data_image0
_chemical_formula_structural       SHFeHFeHCSCHCH4SNSHC4HFeSH3C3HCH6FeHCH2NFeCSCSCHCH2SC2H4CHFeSHC2SHCH3FeHFeCHCHCHCSFeH4CHSC3HSCHCSH2C2HCH2SH9CHCH3C3S2H3NH6CHSCHC2HSHS2FeC2HCSHCSNC2HCNHCFeH4C4H3NHC2H2CH2CHC2H5CH4CH3C2H4C4HNCSCFeCH2SCHCHC3HSCH4CH2CHCFeH2CHCSHSCHS2HC2FeH2SCHC2HCFeSH2SHS2HCHSHCH3CHNH4NCHFeHCH3CFeH2SH2CHCHNS2HC2HSFe2HCSFeH2CH3CHSCFeCHCHCH3NH2NH2CHCH2SH2CHCHCH2CSH4SH5FeCH4CHCFeH2CHFeCHSCHCSCH2CH2CHC4SHC2SHS2C2HCSHCSFeHCH2SH3FeSH3CFeSCSH2SHCNH3CHCH2SHC2SCSCSHCH4C2HCH2NH2C2H3SH3SHFeH2N2CH2SCH2CHCH2FeCHCNH4SHFeHC3HSC2HFeHCH2CH7C4HSCHSC3HSH3CHCFeC3SCSCHCNH4CHCH6CH2CH7SCNH4CH2NHC2HCNHC2H2CSCSCH6SCHSC2H2CH3SCS2C3H3SCHCFeC2HSHC2H3SH3NSCH2C2H3CHSHFeC2HC3FeH2CH3CHFeHCH4CFeHC2HC2H2CH5NHCHFeH2FeCHSHCSC2HS2H3FeCFeHFeSH2FeSH3CHFeCHSNHCFeH2C5HCHSHSH2SH2CS3HC2FeHCNH2CH2CHCHFeHC2H2CHNHCH2SHNFeHC2HSCH2C2SH3C2H2C2SH2C2HS3HFeHSHCH3SFe2CH2NCFeCHS2C2H12CSH2CSCH2CHCS2HCHFeCHFeH3CH6SHSFeHSNHSC3NCHFeCHCFeHC2HSC2HCHSNHCHCNH4CSCHC3FeH8CH4CHNH3SHCH3C2HFeC2H5SCH3CSHCHCHSH3C7FeS3FeCSH3CSCHNCHCHC2H2SHFeH2FeH3SHCH2C3H2CH3C2SCHSHFeSCHSHSCHCSHSC2H2CSCFeHCHFeH4CSCSC2SHC3H2C3Fe2HCFeCFeHFeCFeCHSH2CNCHC2SCH3FeHC2HS2HCH4CSH2NHC2FeCHCHC2HCHFeH2CS2C2HCH2CHCH11S3HSCH3C2HCH2NCHFeCHSCH2SH2NHCHCH2C2H4CH5SH5CH7CHFeHSH3C2H3CNHC2SCSFeHC2SHNHSH5CH3CSCHCH2FeHC2SHSC3H4C2SH3C3FeH4SHFeSHC2H2SHCHC3HFeHNHCNH2SH2SH2SCFeHCSCHC2HCH3FeC3SCHC3HC2HCHCHC2HSHSH2CHCHFeCH4CNH5SH2C2HC2H2CH9CHC3HSH2C2SHCSCSCNH3CFeH2FeCHCH6C3FeH3SHCHCHNHCHSCHC2FeSCHCNHC3H2CHCH5FeHCNHCHCSFeHCHSH2FeCH6CFeHNHCSCHS2HCHS2CS2H2CH2C3H2CH2FeSHCFe2HSH2SH3SNHC2H2C3NHCH2C2FeSHCSHFeHFeSC2H2SC2H3SHCSC2SHC2H2SCHC2H2SHCHFeHCH3C2H2CH4S2CH2SCH3SCFeHCHCNHCNCSCHCSCFeSHCHCH2C2FeC3HSNHFeHCHCH10FeCH4CFeHNC2HSHNHCHCSFeHCH3NHCH7FeH2CHFeSHC2NSCHCHSCHNH2FeCH3CSH3CHC4H2CHCH2SH2CHCH3SH8C2HC2SCSH2CH2CH2SNFeHSCFeHCHCHSH5CHS2HCFeC3HFeSHFeH2SC3HC2H6CHC3S2HSC4H3C2SFeCNHCH2FeC2SHSNH2CHCHCH2CHCH2CH2CHCHCH3S2CHCHSH3S2CH11SHCH2FeHCHSHCH2CSNCSH3FeS2H2FeH3CHSHC2HSHFeH4CSNH2S3HCHSCSC5H4CSCH3C3S2CHCFe2CNCS2Fe3HC2HCHC2HFeCHCHCH5NHCHFeSHSNHCH4FeHC2SC3HCH3C2H2CH3C2H2CHCHCH3FeHFeCH4CHNFeSCSHCSHC2FeCFeHNHCHC2H4C3H3C3HSHSHC4HC2HC2S2H5CHSC2NC2HSH3NCH4S2FeH2S2FeH2FeHCSH4CHCSCSH2CHC2HFeHCH2SCH3FeH3C3SH3FeC2HSHFeC2HC2H9CHSC3HCHSH4SHC2H2C2H4CHFeH4SH2CH9C2HC3H2S2H2FeHC2H2CFeH2CHCSHCH2NHCH2C3HCH3C2HCSCH3C2FeNCNFeH4SCH3SHSHCHCNH2CH2CNSCFeC2HCHFeC3SH3C2HCHCSHC2HCSHC2HCSHCH3CH2C2H3SHCH2CHC2HSH5SCH3CHCH2FeCS2CH2SNHCHNH2FeHCSCH6C2HCH2FeH2NHC4H2CH2SCHCH8C2SHFeH3CHFeCH2FeSH2SCS2HCHSH2C2H2SC2HC2SCH4CH3SHCH3CH3C2H3CFeH2SCSC3HNC2HFeHCHNSHC2HSHSH3CSH2CFeH2NCH3CHC2HC2SCSHCH2FeH5CHSHC2HCSHSHCHC2H2SCSH2C2H2CSHC2HSH4C4SHSH2C2HCSCSH2SHFeHNHFeCFeHC2HC2FeCH2CHCH3CHFeC2HSH2C3NFeCH2C2HC2HFeHSH2FeNCHSH3FeCHSC4HSC2HCHCH2C2NHCSFeH4C2FeH3CH3FeH5SH2CHCHCH2SCNH2CHCH2SHCHCSH3CH3SC4HCSH3C2NCHCH3FeHCSH4C2H3SHCHSHCHCHSHSH3CHCHCHCNCSCHCHC2HCH3FeSHS3CNHFeCHCHC3NHNCFeH3CH2CSH2CH4SFeH4S2H4SFeH2CH2CHS2HFe2CH2CSCH2SC2FeHSH2CH5CHC2H5CH2CH2C3S2C2HSHFeH2NH3CSHCHFeCH2FeNCS2FeHCH2CH2FeH2FeH2FeNSC2NH2CSH2SC2HSC2H2CH3C3HCH4C2H5FeCH3C3HFeHFeCHC2H5C2HNSCHC3H3C4H2CH6C2SH6C2HC2SH4C2SHSCS2H2CHC2HNHFeCHCH3NHSH2CH5CHCH2CH3CHCSH5FeCNHFeHSCH2SC3H4CHFeCSH2CHCH3C2SH2CSH5FeCFeHC4HC2HSHCH4FeHCHCHSCH2FeCHFeC2SHCSC3H4FeSHCH2SH3CH3CSNH3CHCHCSC3H3SHC2S3H2SHFeHSHCHCSNC2SH3C4HC2H2C2HSH2CSHSCNCHCHCFeNC3H3C3H2CHCHS2HSFeC2H3CHCHSCH2C2SCHSHCHC2H4C3HC2FeC4HNH4CHNH3SH2CHSCNH2CH4CH4CH2S2H3Fe2H3CNC3FeH3SFeHCSH2FeCH2SH2C2SH2SHCHCFeNCHC3HC3H2CH2SHNHCHSH4CH5SCH3SHCFe2H2CH7C2H2S2CSC2SCSHSH2CHC5S2FeCHC2HFeSHCH2CH4NHCHFeH3SC2H2FeSH2FeH3CHSHC2HFeCSCFeH2S2NH2FeCHCH2CFeSHCH2NHSC2H2CH3CH3C2H2CH2CH3SFeH2SHCNHCSCH2CHCHFeHSCH2CS2H3SH2CH2CNCHSCFeSCH2CFeCHCHFeH3FeSC2HC2H3SCH2SHCH2SH5NHCHSHC2S2H4CHFeH2CHCHC2HC2FeNSCHCH3CHCSCHFeHFeHCSNCHC2HCH4S2CFeHFeCH2FeS3FeSCH2CSHCHCHCH6CS2C2HCH2SC2HC2NCHSH2Fe2HS2HFe2H4FeCH3C2SH2CSC2H2C2HCH5SCSCFeHCSC6HS2FeCSFeHCHC2NH2CH2C2H2CHC2HSHCNH2SH4SHCFeHCH4CH6CH3FeNHFeH3CHFeHNC4FeCHFeCHC2H4CSH3C2FeHSHCHC2HSHCFeS2H2SFeCNHCHSH2CSHCH3SFeSC2NH6S2CSH2C2SHCH2CH3CHCH2CH2CHCNH2FeCH3SCHS3NH2SC2HNFeHSH4FeHSH2C2H2C2H3C3HC2SH2FeSNCH2SH2CHC2HCHSC3HCH3C2HCSHCHCHCSCH2CH4C2HFeSCFeH7FeHCH3CHNHFeSCSHFe2HSC2H2SCS2CHFeCH2SHSFeNH3CH2C3H4C2H3NHCS2HC2HSHCNH
_chemical_formula_sum              "S528 H2112 Fe264 C1320 N132"
_cell_length_a       56.7728
_cell_length_b       61.7315
_cell_length_c       22.9674
_cell_angle_alpha    69.1006
_cell_angle_beta     87.054
_cell_angle_gamma    116.801

_space_group_name_H-M_alt    "P 1"
_space_group_IT_number       1

loop_
  _space_group_symop_operation_xyz
  'x, y, z'

loop_
  _atom_site_type_symbol
  _atom_site_label
  _atom_site_symmetry_multiplicity
  _atom_site_fract_x
  _atom_site_fract_y
  _atom_site_fract_z
  _atom_site_occupancy
  S   S1        1.0  0.38005  0.06506  0.91773  1.0000
  H   H1        1.0  0.24966  0.10308  0.23411  1.0000
  Fe  Fe1       1.0  0.36452  0.09393  0.89012  1.0000
  H   H2        1.0  0.37485  0.01290  0.00996  1.0000
  Fe  Fe2       1.0  0.07009  0.96087  0.90335  1.0000
  H   H3        1.0  0.33009  0.17082  0.10476  1.0000
  C   C1        1.0  0.32075  0.17752  0.93729  1.0000
  S   S2        1.0  0.20703  0.98740  0.19676  1.0000
  C   C2        1.0  0.12178  0.99189  0.08431  1.0000
  H   H4        1.0  0.27413  0.10451  0.98239  1.0000
  C   C3        1.0  0.20009  1.00000  0.88646  1.0000
  H   H5        1.0  0.22055  0.04330  0.77193  1.0000
  H   H6        1.0  0.19731  0.08103  0.80468  1.0000
  H   H7        1.0  0.14200  0.19457  0.81069  1.0000
  H   H8        1.0  0.22004  0.16648  0.17765  1.0000
  S   S3        1.0  0.26459  0.04616  0.92790  1.0000
  N   N1        1.0  0.25426  0.07221  0.07715  1.0000
  S   S4        1.0  0.13435  0.95709  0.86188  1.0000
  H   H9        1.0  0.25511  0.10978  0.03508  1.0000
  C   C4        1.0  0.09765  0.99935  0.15786  1.0000
  C   C5        1.0  0.39454  0.09064  0.05733  1.0000
  C   C6        1.0  0.35956  0.13967  0.01424  1.0000
  C   C7        1.0  0.24596  0.10463  0.85890  1.0000
  H   H10       1.0  0.37683  0.04992  0.17647  1.0000
  Fe  Fe3       1.0  0.12974  0.99320  0.83219  1.0000
  S   S5        1.0  0.36532  0.02929  0.80573  1.0000
  H   H11       1.0  0.18604  0.10176  0.86862  1.0000
  H   H12       1.0  0.26247  0.03977  0.10527  1.0000
  H   H13       1.0  0.25747  0.96101  0.80525  1.0000
  C   C8        1.0  0.24885  0.95347  0.12299  1.0000
  C   C9        1.0  0.15897  0.06417  0.16669  1.0000
  C   C10       1.0  0.36673  0.00539  0.10976  1.0000
  H   H14       1.0  0.31448  0.14466  0.82801  1.0000
  C   C11       1.0  0.39365  0.99141  0.06319  1.0000
  H   H15       1.0  0.21051  0.00986  0.91709  1.0000
  H   H16       1.0  0.18518  0.00664  0.87212  1.0000
  H   H17       1.0  0.19391  0.97087  0.81917  1.0000
  H   H18       1.0  0.23641  0.04687  0.17809  1.0000
  H   H19       1.0  0.15375  0.16892  0.97719  1.0000
  H   H20       1.0  0.23082  0.07468  0.14784  1.0000
  Fe  Fe4       1.0  0.17544  0.11811  0.95121  1.0000
  H   H21       1.0  0.39632  0.10903  0.78741  1.0000
  C   C12       1.0  0.26839  0.10109  0.03320  1.0000
  H   H22       1.0  0.26390  0.07986  0.15957  1.0000
  H   H23       1.0  0.26151  0.99719  0.14258  1.0000
  N   N2        1.0  0.21993  0.00678  0.82951  1.0000
  Fe  Fe5       1.0  0.34413  0.03969  0.00318  1.0000
  C   C13       1.0  0.22965  0.05766  0.05760  1.0000
  S   S6        1.0  0.38005  0.15790  0.10245  1.0000
  C   C14       1.0  0.27829  0.99286  0.13804  1.0000
  S   S7        1.0  0.24491  0.17317  0.94851  1.0000
  C   C15       1.0  0.38298  0.15573  0.02878  1.0000
  H   H24       1.0  0.10616  0.99135  0.19727  1.0000
  C   C16       1.0  0.12187  0.05499  0.88183  1.0000
  H   H25       1.0  0.11176  0.02145  0.13273  1.0000
  H   H26       1.0  0.39119  0.97454  0.22213  1.0000
  S   S8        1.0  0.17939  0.13699  0.02039  1.0000
  C   C17       1.0  0.16997  0.08551  0.86210  1.0000
  C   C18       1.0  0.14287  0.07530  0.89255  1.0000
  H   H27       1.0  0.36270  0.99543  0.21102  1.0000
  H   H28       1.0  0.22900  0.97606  0.88073  1.0000
  H   H29       1.0  0.18125  0.14984  0.13097  1.0000
  H   H30       1.0  0.31150  0.10030  0.87296  1.0000
  C   C19       1.0  0.13116  0.18395  0.01202  1.0000
  H   H31       1.0  0.36917  0.18377  0.18410  1.0000
  Fe  Fe6       1.0  0.17579  0.99499  0.23294  1.0000
  S   S9        1.0  0.33126  0.07032  0.98072  1.0000
  H   H32       1.0  0.34377  0.12326  0.94717  1.0000
  C   C20       1.0  0.29529  0.94937  0.85211  1.0000
  C   C21       1.0  0.20543  0.99306  0.79058  1.0000
  S   S10       1.0  0.39112  0.13836  0.85496  1.0000
  H   H33       1.0  0.09741  0.02007  0.03317  1.0000
  C   C22       1.0  0.29320  0.10138  0.86815  1.0000
  H   H34       1.0  0.13641  0.01379  0.05665  1.0000
  H   H35       1.0  0.08069  0.98868  0.02706  1.0000
  H   H36       1.0  0.07763  0.99568  0.18065  1.0000
  Fe  Fe7       1.0  0.35094  0.04419  0.86798  1.0000
  H   H37       1.0  0.29137  0.98907  0.76807  1.0000
  Fe  Fe8       1.0  0.20735  0.17546  0.93397  1.0000
  C   C23       1.0  0.34465  0.96138  0.95989  1.0000
  H   H38       1.0  0.30264  0.96960  0.10226  1.0000
  C   C24       1.0  0.12816  0.04410  0.84325  1.0000
  H   H39       1.0  0.38764  0.18103  0.24530  1.0000
  C   C25       1.0  0.15542  0.05298  0.81683  1.0000
  H   H40       1.0  0.37186  0.07861  0.07362  1.0000
  C   C26       1.0  0.23472  0.03605  0.78970  1.0000
  S   S11       1.0  0.13556  0.08716  0.94616  1.0000
  Fe  Fe9       1.0  0.30582  0.05042  0.92473  1.0000
  H   H41       1.0  0.28730  0.11261  0.04592  1.0000
  H   H42       1.0  0.37449  0.99153  0.77560  1.0000
  H   H43       1.0  0.28997  0.00411  0.08675  1.0000
  H   H44       1.0  0.25956  0.96265  0.07126  1.0000
  C   C27       1.0  0.26601  0.17737  0.08135  1.0000
  H   H45       1.0  0.13090  0.98385  0.12216  1.0000
  S   S12       1.0  0.09167  0.97439  0.80202  1.0000
  C   C28       1.0  0.38748  0.98250  0.17592  1.0000
  C   C29       1.0  0.35955  0.95671  0.86663  1.0000
  C   C30       1.0  0.27108  0.12804  0.84016  1.0000
  H   H46       1.0  0.31052  0.96949  0.84773  1.0000
  S   S13       1.0  0.27123  0.02306  0.23764  1.0000
  C   C31       1.0  0.28675  0.14966  0.11317  1.0000
  H   H47       1.0  0.15806  0.14002  0.20306  1.0000
  C   C32       1.0  0.15112  0.07633  0.19879  1.0000
  S   S14       1.0  0.16341  0.03580  0.77984  1.0000
  H   H48       1.0  0.21771  0.07411  0.24658  1.0000
  H   H49       1.0  0.16979  0.19424  0.84400  1.0000
  C   C33       1.0  0.15471  0.18615  0.98140  1.0000
  C   C34       1.0  0.15679  0.03932  0.20179  1.0000
  H   H50       1.0  0.16687  0.07412  0.11484  1.0000
  C   C35       1.0  0.38760  0.14731  0.91770  1.0000
  H   H51       1.0  0.22455  0.06156  0.89774  1.0000
  H   H52       1.0  0.10081  0.04733  0.90412  1.0000
  S   S15       1.0  0.20118  0.15713  0.86351  1.0000
  H   H53       1.0  0.33976  0.12980  0.04703  1.0000
  H   H54       1.0  0.23191  0.95783  0.12556  1.0000
  H   H55       1.0  0.07770  0.10658  0.94500  1.0000
  H   H56       1.0  0.33783  0.10704  0.24052  1.0000
  H   H57       1.0  0.35016  0.99998  0.94206  1.0000
  H   H58       1.0  0.30329  0.17887  0.95652  1.0000
  H   H59       1.0  0.11185  0.02837  0.83520  1.0000
  H   H60       1.0  0.24574  0.04717  0.81727  1.0000
  H   H61       1.0  0.25085  0.00783  0.88052  1.0000
  C   C36       1.0  0.26368  0.15209  0.10428  1.0000
  H   H62       1.0  0.12035  0.98207  0.05139  1.0000
  C   C37       1.0  0.20907  0.17324  0.20187  1.0000
  H   H63       1.0  0.08068  0.16142  0.22092  1.0000
  H   H64       1.0  0.15280  0.09554  0.17165  1.0000
  H   H65       1.0  0.28518  0.13021  0.13046  1.0000
  C   C38       1.0  0.17743  0.18954  0.19782  1.0000
  C   C39       1.0  0.37788  0.00392  0.05648  1.0000
  C   C40       1.0  0.27278  0.06166  0.07425  1.0000
  S   S16       1.0  0.33840  0.07533  0.83261  1.0000
  S   S17       1.0  0.27203  0.15868  0.81909  1.0000
  H   H66       1.0  0.31253  0.16196  0.91849  1.0000
  H   H67       1.0  0.27969  0.06481  0.02434  1.0000
  H   H68       1.0  0.22775  0.10586  0.85586  1.0000
  N   N3        1.0  0.19151  0.18068  0.16375  1.0000
  H   H69       1.0  0.35903  0.18549  0.84636  1.0000
  H   H70       1.0  0.19067  0.99949  0.77310  1.0000
  H   H71       1.0  0.22464  0.19045  0.20937  1.0000
  H   H72       1.0  0.11372  0.16478  0.20896  1.0000
  H   H73       1.0  0.29217  0.00119  0.16654  1.0000
  H   H74       1.0  0.23487  0.05929  0.00867  1.0000
  C   C41       1.0  0.36187  0.13559  0.95848  1.0000
  H   H75       1.0  0.15771  0.16203  0.12634  1.0000
  S   S18       1.0  0.10819  0.98133  0.93170  1.0000
  C   C42       1.0  0.35259  0.98797  0.92090  1.0000
  H   H76       1.0  0.32895  0.17042  0.97857  1.0000
  C   C43       1.0  0.31219  0.17264  0.09829  1.0000
  C   C44       1.0  0.24607  0.06834  0.14370  1.0000
  H   H77       1.0  0.11217  0.16500  0.03180  1.0000
  S   S19       1.0  0.23211  0.12379  0.11925  1.0000
  H   H78       1.0  0.16453  0.17343  0.24634  1.0000
  S   S20       1.0  0.31530  0.01719  0.95556  1.0000
  S   S21       1.0  0.16675  0.02416  0.16222  1.0000
  Fe  Fe10      1.0  0.21672  0.13351  0.03079  1.0000
  C   C45       1.0  0.07614  0.95740  0.14825  1.0000
  C   C46       1.0  0.36672  0.98327  0.82718  1.0000
  H   H79       1.0  0.30484  0.96595  0.18249  1.0000
  C   C47       1.0  0.23955  0.99802  0.85085  1.0000
  S   S22       1.0  0.34749  0.02131  0.10301  1.0000
  H   H80       1.0  0.24835  0.17935  0.07360  1.0000
  C   C48       1.0  0.24427  0.07961  0.88226  1.0000
  S   S23       1.0  0.21029  0.11089  0.97024  1.0000
  N   N4        1.0  0.09478  0.98666  0.11291  1.0000
  C   C49       1.0  0.36238  0.99859  0.85441  1.0000
  C   C50       1.0  0.29058  0.95887  0.15337  1.0000
  H   H81       1.0  0.21816  0.03593  0.09026  1.0000
  C   C51       1.0  0.17630  0.07416  0.82497  1.0000
  N   N5        1.0  0.26767  0.96378  0.16097  1.0000
  H   H82       1.0  0.29116  0.07153  0.09089  1.0000
  C   C52       1.0  0.08357  0.99803  0.06141  1.0000
  Fe  Fe11      1.0  0.23626  0.15104  0.88672  1.0000
  H   H83       1.0  0.18837  0.97799  0.91729  1.0000
  H   H84       1.0  0.21541  0.06544  0.05811  1.0000
  H   H85       1.0  0.25496  0.00303  0.80920  1.0000
  H   H86       1.0  0.31984  0.07415  0.19360  1.0000
  C   C53       1.0  0.29489  0.12654  0.84296  1.0000
  C   C54       1.0  0.26777  0.07786  0.88884  1.0000
  C   C55       1.0  0.37124  0.99433  0.16961  1.0000
  C   C56       1.0  0.17113  0.15713  0.15569  1.0000
  H   H87       1.0  0.16443  0.19586  0.16988  1.0000
  H   H88       1.0  0.07142  0.06097  0.99083  1.0000
  H   H89       1.0  0.16149  0.18217  0.78319  1.0000
  N   N6        1.0  0.28815  0.95087  0.79043  1.0000
  H   H90       1.0  0.33566  0.95302  0.01085  1.0000
  C   C57       1.0  0.09155  0.14989  0.22702  1.0000
  C   C58       1.0  0.36712  0.17621  0.23708  1.0000
  H   H91       1.0  0.37388  0.09000  0.16554  1.0000
  H   H92       1.0  0.32689  0.18648  0.20668  1.0000
  C   C59       1.0  0.27693  0.96903  0.77051  1.0000
  H   H93       1.0  0.19687  0.15668  0.25055  1.0000
  H   H94       1.0  0.08590  0.13952  0.19471  1.0000
  C   C60       1.0  0.25293  0.95001  0.22973  1.0000
  H   H95       1.0  0.23599  0.95390  0.23698  1.0000
  C   C61       1.0  0.30850  0.06987  0.23944  1.0000
  C   C62       1.0  0.39655  0.10177  0.14818  1.0000
  H   H96       1.0  0.08432  0.94815  0.18657  1.0000
  H   H97       1.0  0.21813  0.19655  0.07071  1.0000
  H   H98       1.0  0.37497  0.19586  0.90441  1.0000
  H   H99       1.0  0.07310  0.94723  0.11560  1.0000
  H   H100      1.0  0.32182  0.94799  0.75448  1.0000
  C   C63       1.0  0.31293  0.96135  0.74078  1.0000
  H   H101      1.0  0.19781  0.10502  0.33520  1.0000
  H   H102      1.0  0.36872  0.09096  0.52045  1.0000
  H   H103      1.0  0.14477  0.00722  0.29601  1.0000
  H   H104      1.0  0.09373  0.10054  0.35096  1.0000
  C   C64       1.0  0.13827  0.98918  0.65164  1.0000
  H   H105      1.0  0.36339  0.11256  0.41307  1.0000
  H   H106      1.0  0.22422  0.10501  0.68998  1.0000
  H   H107      1.0  0.15087  0.05720  0.49023  1.0000
  C   C65       1.0  0.35018  0.17086  0.55332  1.0000
  C   C66       1.0  0.16522  0.07810  0.47695  1.0000
  H   H108      1.0  0.06531  0.17683  0.67050  1.0000
  H   H109      1.0  0.08050  0.15845  0.65734  1.0000
  H   H110      1.0  0.30833  0.96284  0.69340  1.0000
  H   H111      1.0  0.35120  0.16018  0.47425  1.0000
  C   C67       1.0  0.14029  0.99583  0.54080  1.0000
  C   C68       1.0  0.14673  0.02656  0.26876  1.0000
  C   C69       1.0  0.09192  0.14532  0.33592  1.0000
  C   C70       1.0  0.26899  0.04048  0.33092  1.0000
  H   H112      1.0  0.12188  0.12961  0.28882  1.0000
  N   N7        1.0  0.08444  0.13064  0.29497  1.0000
  C   C71       1.0  0.28369  0.04589  0.27189  1.0000
  S   S24       1.0  0.19751  0.06116  0.53934  1.0000
  C   C72       1.0  0.36171  0.03780  0.57569  1.0000
  Fe  Fe12      1.0  0.29473  0.12085  0.54918  1.0000
  C   C73       1.0  0.30425  0.08291  0.32564  1.0000
  H   H113      1.0  0.07769  0.03610  0.73235  1.0000
  H   H114      1.0  0.26970  0.17253  0.68253  1.0000
  S   S25       1.0  0.12986  0.07784  0.30601  1.0000
  C   C74       1.0  0.39123  0.17910  0.48972  1.0000
  H   H115      1.0  0.14372  0.98941  0.50315  1.0000
  C   C75       1.0  0.07533  0.17429  0.63262  1.0000
  H   H116      1.0  0.17510  0.97709  0.55859  1.0000
  C   C76       1.0  0.38367  0.13014  0.40446  1.0000
  C   C77       1.0  0.36632  0.97613  0.50600  1.0000
  C   C78       1.0  0.18930  0.08559  0.49757  1.0000
  H   H117      1.0  0.22570  0.11847  0.49832  1.0000
  S   S26       1.0  0.14129  0.18346  0.57258  1.0000
  C   C79       1.0  0.07152  0.03544  0.68747  1.0000
  H   H118      1.0  0.09474  0.19329  0.60542  1.0000
  H   H119      1.0  0.20842  0.12869  0.60425  1.0000
  H   H120      1.0  0.21570  0.15324  0.43078  1.0000
  H   H121      1.0  0.38528  0.13667  0.62733  1.0000
  C   C80       1.0  0.38983  0.10809  0.50749  1.0000
  H   H122      1.0  0.35436  0.15407  0.25767  1.0000
  H   H123      1.0  0.25812  0.11977  0.31775  1.0000
  C   C81       1.0  0.13863  0.03857  0.30063  1.0000
  H   H124      1.0  0.26667  0.95702  0.25984  1.0000
  C   C82       1.0  0.24269  0.12476  0.67816  1.0000
  Fe  Fe13      1.0  0.18067  0.18465  0.54833  1.0000
  H   H125      1.0  0.13934  0.97705  0.69968  1.0000
  H   H126      1.0  0.25809  0.18978  0.62067  1.0000
  C   C83       1.0  0.31866  0.08845  0.26604  1.0000
  H   H127      1.0  0.08653  0.13141  0.38752  1.0000
  C   C84       1.0  0.33692  0.03641  0.66728  1.0000
  S   S27       1.0  0.20264  0.95233  0.34551  1.0000
  H   H128      1.0  0.19243  0.09371  0.27268  1.0000
  S   S28       1.0  0.31451  0.15626  0.57330  1.0000
  C   C85       1.0  0.22720  0.14787  0.59495  1.0000
  H   H129      1.0  0.09530  0.10549  0.26879  1.0000
  S   S29       1.0  0.07761  0.04065  0.47828  1.0000
  S   S30       1.0  0.31767  0.10122  0.53252  1.0000
  H   H130      1.0  0.34411  0.96125  0.52583  1.0000
  C   C86       1.0  0.17105  0.98412  0.59441  1.0000
  C   C87       1.0  0.14057  0.06330  0.26570  1.0000
  Fe  Fe14      1.0  0.17098  0.96213  0.37071  1.0000
  H   H131      1.0  0.17404  0.97275  0.64050  1.0000
  H   H132      1.0  0.23290  0.10201  0.39309  1.0000
  S   S31       1.0  0.26072  0.05580  0.52269  1.0000
  C   C88       1.0  0.36027  0.03858  0.63579  1.0000
  H   H133      1.0  0.18676  0.00568  0.57715  1.0000
  C   C89       1.0  0.36582  0.18351  0.58886  1.0000
  C   C90       1.0  0.26186  0.17261  0.63904  1.0000
  H   H134      1.0  0.21999  0.99777  0.74749  1.0000
  C   C91       1.0  0.39271  0.09467  0.68736  1.0000
  Fe  Fe15      1.0  0.29570  0.09604  0.45597  1.0000
  S   S32       1.0  0.31779  0.10650  0.35788  1.0000
  H   H135      1.0  0.22350  0.12322  0.26010  1.0000
  H   H136      1.0  0.07942  0.94979  0.29949  1.0000
  S   S33       1.0  0.28686  0.03255  0.67622  1.0000
  H   H137      1.0  0.33573  0.03720  0.71351  1.0000
  S   S34       1.0  0.17064  0.14918  0.37556  1.0000
  S   S35       1.0  0.14787  0.95160  0.29908  1.0000
  H   H138      1.0  0.11763  0.98706  0.65774  1.0000
  C   C92       1.0  0.20180  0.13228  0.44298  1.0000
  H   H139      1.0  0.27847  0.17659  0.60170  1.0000
  S   S36       1.0  0.19656  0.00605  0.30628  1.0000
  H   H140      1.0  0.24230  0.07038  0.28938  1.0000
  C   C93       1.0  0.31696  0.03341  0.57794  1.0000
  H   H141      1.0  0.06993  0.08378  0.46130  1.0000
  H   H142      1.0  0.38864  0.12210  0.52582  1.0000
  H   H143      1.0  0.09712  0.10536  0.52493  1.0000
  C   C94       1.0  0.20744  0.11266  0.48120  1.0000
  H   H144      1.0  0.34227  0.15693  0.36187  1.0000
  N   N8        1.0  0.38239  0.96889  0.54982  1.0000
  H   H145      1.0  0.20865  0.04672  0.39455  1.0000
  H   H146      1.0  0.14134  0.09198  0.42131  1.0000
  H   H147      1.0  0.07297  0.05499  0.65880  1.0000
  H   H148      1.0  0.38736  0.09533  0.64135  1.0000
  N   N9        1.0  0.23678  0.14691  0.65402  1.0000
  C   C95       1.0  0.36303  0.16909  0.50309  1.0000
  H   H149      1.0  0.15519  0.01756  0.52290  1.0000
  Fe  Fe16      1.0  0.12131  0.14401  0.56738  1.0000
  H   H150      1.0  0.24992  0.02183  0.35636  1.0000
  C   C96       1.0  0.31535  0.03392  0.63831  1.0000
  H   H151      1.0  0.39247  0.14156  0.35159  1.0000
  H   H152      1.0  0.36920  0.99620  0.49755  1.0000
  H   H153      1.0  0.38009  0.14330  0.42181  1.0000
  C   C97       1.0  0.21543  0.14238  0.70394  1.0000
  Fe  Fe17      1.0  0.09059  0.04476  0.37943  1.0000
  H   H154      1.0  0.18377  0.04866  0.35085  1.0000
  H   H155      1.0  0.37134  0.12240  0.71254  1.0000
  S   S37       1.0  0.16010  0.14304  0.55286  1.0000
  H   H156      1.0  0.31728  0.18761  0.28101  1.0000
  H   H157      1.0  0.37331  0.08173  0.72567  1.0000
  C   C98       1.0  0.15988  0.09776  0.43760  1.0000
  H   H158      1.0  0.19596  0.12354  0.71506  1.0000
  C   C99       1.0  0.09948  0.11600  0.30087  1.0000
  H   H159      1.0  0.15346  0.01064  0.63773  1.0000
  N   N10       1.0  0.14319  0.98017  0.60298  1.0000
  S   S38       1.0  0.07570  0.00076  0.41336  1.0000
  S   S39       1.0  0.25893  0.08240  0.62229  1.0000
  H   H160      1.0  0.08109  0.15670  0.33281  1.0000
  C   C100      1.0  0.17828  0.12483  0.42027  1.0000
  C   C101      1.0  0.35436  0.17911  0.33531  1.0000
  H   H161      1.0  0.25181  0.08764  0.37409  1.0000
  S   S40       1.0  0.12378  0.16265  0.46187  1.0000
  Fe  Fe18      1.0  0.16333  0.16349  0.44726  1.0000
  Fe  Fe19      1.0  0.24176  0.07877  0.53848  1.0000
  H   H162      1.0  0.37258  0.97706  0.45807  1.0000
  C   C102      1.0  0.27939  0.05892  0.35801  1.0000
  S   S41       1.0  0.39095  0.04166  0.53380  1.0000
  Fe  Fe20      1.0  0.28077  0.06275  0.60034  1.0000
  H   H163      1.0  0.31407  0.15719  0.28179  1.0000
  H   H164      1.0  0.11420  0.15993  0.32174  1.0000
  C   C103      1.0  0.23320  0.08330  0.27107  1.0000
  H   H165      1.0  0.25875  0.12763  0.64166  1.0000
  H   H166      1.0  0.21092  0.15906  0.68807  1.0000
  H   H167      1.0  0.18915  0.06082  0.41176  1.0000
  C   C104      1.0  0.32705  0.17944  0.25845  1.0000
  H   H168      1.0  0.26818  0.05443  0.40392  1.0000
  S   S42       1.0  0.27574  0.11898  0.46649  1.0000
  C   C105      1.0  0.19963  0.05941  0.37235  1.0000
  Fe  Fe21      1.0  0.22614  0.99549  0.27431  1.0000
  C   C106      1.0  0.24183  0.09951  0.35339  1.0000
  H   H169      1.0  0.09024  0.18758  0.50441  1.0000
  C   C107      1.0  0.20807  0.10279  0.29686  1.0000
  H   H170      1.0  0.22235  0.16426  0.57569  1.0000
  C   C108      1.0  0.39069  0.13436  0.67418  1.0000
  H   H171      1.0  0.08094  0.15356  0.55374  1.0000
  H   H172      1.0  0.27285  0.97210  0.72215  1.0000
  H   H173      1.0  0.38330  0.96014  0.64883  1.0000
  N   N11       1.0  0.22068  0.08626  0.32350  1.0000
  H   H174      1.0  0.34107  0.03443  0.50043  1.0000
  H   H175      1.0  0.25032  0.12366  0.72222  1.0000
  N   N12       1.0  0.35511  0.18801  0.26599  1.0000
  H   H176      1.0  0.24303  0.15154  0.55621  1.0000
  H   H177      1.0  0.11959  0.99343  0.54534  1.0000
  C   C109      1.0  0.37246  0.96667  0.61363  1.0000
  H   H178      1.0  0.13143  0.02892  0.35248  1.0000
  C   C110      1.0  0.07513  0.09589  0.53853  1.0000
  H   H179      1.0  0.37553  0.98623  0.61048  1.0000
  H   H180      1.0  0.08689  0.03404  0.65920  1.0000
  S   S43       1.0  0.08170  0.11017  0.63811  1.0000
  H   H181      1.0  0.30037  0.03163  0.55517  1.0000
  H   H182      1.0  0.32890  0.98170  0.73385  1.0000
  C   C111      1.0  0.12310  0.95143  0.62506  1.0000
  H   H183      1.0  0.37704  0.04080  0.65817  1.0000
  C   C112      1.0  0.33995  0.03494  0.54709  1.0000
  H   H184      1.0  0.35594  0.18499  0.62766  1.0000
  C   C113      1.0  0.39408  0.19318  0.57604  1.0000
  H   H185      1.0  0.35026  0.95180  0.63391  1.0000
  H   H186      1.0  0.25028  0.04179  0.74739  1.0000
  C   C114      1.0  0.07276  0.16719  0.53583  1.0000
  S   S44       1.0  0.14760  0.94876  0.46977  1.0000
  H   H187      1.0  0.34500  0.18750  0.35828  1.0000
  H   H188      1.0  0.37516  0.18586  0.34307  1.0000
  H   H189      1.0  0.38446  0.08432  0.42816  1.0000
  H   H190      1.0  0.22184  0.14094  0.74959  1.0000
  S   S45       1.0  0.06441  0.97127  0.60186  1.0000
  H   H191      1.0  0.06478  0.98009  0.31588  1.0000
  H   H192      1.0  0.10183  0.94721  0.63843  1.0000
  H   H193      1.0  0.27133  0.28997  0.25051  1.0000
  H   H194      1.0  0.10512  0.29256  0.77158  1.0000
  H   H195      1.0  0.29278  0.21969  0.05155  1.0000
  Fe  Fe22      1.0  0.29017  0.25617  0.15816  1.0000
  C   C115      1.0  0.29794  0.34683  0.79642  1.0000
  H   H196      1.0  0.09612  0.35447  0.10090  1.0000
  H   H197      1.0  0.39430  0.41296  0.02377  1.0000
  H   H198      1.0  0.31149  0.21125  0.84731  1.0000
  H   H199      1.0  0.19231  0.20697  0.20559  1.0000
  C   C116      1.0  0.09170  0.37124  0.08489  1.0000
  H   H200      1.0  0.07387  0.26824  0.96671  1.0000
  C   C117      1.0  0.12664  0.29930  0.76364  1.0000
  Fe  Fe23      1.0  0.33531  0.24962  0.10405  1.0000
  H   H201      1.0  0.11587  0.36851  0.98610  1.0000
  H   H202      1.0  0.28697  0.33952  0.15278  1.0000
  C   C118      1.0  0.34970  0.40826  0.98107  1.0000
  H   H203      1.0  0.19588  0.20977  0.07120  1.0000
  Fe  Fe24      1.0  0.16343  0.29393  0.05309  1.0000
  C   C119      1.0  0.06860  0.29854  0.12210  1.0000
  H   H204      1.0  0.32977  0.36778  0.86622  1.0000
  S   S46       1.0  0.14255  0.43973  0.15587  1.0000
  C   C120      1.0  0.30856  0.34894  0.15046  1.0000
  H   H205      1.0  0.30611  0.30444  0.84676  1.0000
  C   C121      1.0  0.09007  0.38370  0.81706  1.0000
  S   S47       1.0  0.20323  0.44068  0.06839  1.0000
  C   C122      1.0  0.33585  0.29318  0.76550  1.0000
  H   H206      1.0  0.15760  0.24820  0.99411  1.0000
  H   H207      1.0  0.19890  0.25225  0.93906  1.0000
  C   C123      1.0  0.22277  0.30511  0.07284  1.0000
  H   H208      1.0  0.25565  0.31979  0.90169  1.0000
  H   H209      1.0  0.16112  0.39389  0.80584  1.0000
  C   C124      1.0  0.10398  0.40921  0.81649  1.0000
  H   H210      1.0  0.15561  0.32776  0.84084  1.0000
  C   C125      1.0  0.11088  0.38484  0.97328  1.0000
  C   C126      1.0  0.36534  0.20123  0.86465  1.0000
  C   C127      1.0  0.18005  0.23315  0.95946  1.0000
  C   C128      1.0  0.39138  0.42611  0.90288  1.0000
  S   S48       1.0  0.13733  0.30457  0.09946  1.0000
  H   H211      1.0  0.14526  0.38803  0.05017  1.0000
  C   C129      1.0  0.24887  0.30978  0.05166  1.0000
  C   C130      1.0  0.26908  0.31118  0.90016  1.0000
  S   S49       1.0  0.30039  0.37972  0.20216  1.0000
  H   H212      1.0  0.24337  0.42446  0.09204  1.0000
  S   S50       1.0  0.30046  0.22371  0.19229  1.0000
  S   S51       1.0  0.20911  0.21409  0.91815  1.0000
  C   C131      1.0  0.35297  0.35354  0.12134  1.0000
  C   C132      1.0  0.39342  0.43162  0.00110  1.0000
  H   H213      1.0  0.31589  0.32574  0.10803  1.0000
  C   C133      1.0  0.34826  0.38143  0.16760  1.0000
  S   S52       1.0  0.13815  0.28490  0.98384  1.0000
  H   H214      1.0  0.31132  0.25214  0.83597  1.0000
  C   C134      1.0  0.28645  0.26755  0.79091  1.0000
  S   S53       1.0  0.36472  0.27161  0.15168  1.0000
  Fe  Fe25      1.0  0.34924  0.30041  0.11837  1.0000
  H   H215      1.0  0.38141  0.22038  0.82512  1.0000
  C   C135      1.0  0.31458  0.31996  0.86538  1.0000
  H   H216      1.0  0.29614  0.36149  0.89256  1.0000
  H   H217      1.0  0.26796  0.29913  0.95067  1.0000
  S   S54       1.0  0.37393  0.34468  0.08840  1.0000
  H   H218      1.0  0.08588  0.29605  0.12999  1.0000
  H   H219      1.0  0.28672  0.35788  0.79334  1.0000
  H   H220      1.0  0.19356  0.34293  0.89032  1.0000
  Fe  Fe26      1.0  0.11480  0.24259  0.06155  1.0000
  S   S55       1.0  0.34544  0.22645  0.06199  1.0000
  H   H221      1.0  0.33584  0.33504  0.83546  1.0000
  H   H222      1.0  0.18734  0.28271  0.15219  1.0000
  H   H223      1.0  0.31915  0.36162  0.76606  1.0000
  C   C136      1.0  0.21474  0.26742  0.17021  1.0000
  Fe  Fe27      1.0  0.08125  0.23007  0.82249  1.0000
  S   S56       1.0  0.24705  0.24543  0.18780  1.0000
  C   C137      1.0  0.13954  0.40389  0.03593  1.0000
  S   S57       1.0  0.10301  0.20352  0.05658  1.0000
  H   H224      1.0  0.39099  0.40665  0.92501  1.0000
  H   H225      1.0  0.09178  0.37734  0.12500  1.0000
  S   S58       1.0  0.20889  0.32183  0.02101  1.0000
  H   H226      1.0  0.20937  0.33145  0.16382  1.0000
  C   C138      1.0  0.13213  0.20634  0.01670  1.0000
  N   N13       1.0  0.37819  0.43058  0.95110  1.0000
  H   H227      1.0  0.14108  0.41073  0.07502  1.0000
  H   H228      1.0  0.34880  0.38860  0.00367  1.0000
  H   H229      1.0  0.20138  0.25102  0.21601  1.0000
  C   C139      1.0  0.35146  0.22409  0.91223  1.0000
  H   H230      1.0  0.18819  0.40445  0.84411  1.0000
  C   C140      1.0  0.29117  0.20019  0.06852  1.0000
  H   H231      1.0  0.30845  0.34141  0.94406  1.0000
  H   H232      1.0  0.15536  0.42127  0.99200  1.0000
  S   S59       1.0  0.14182  0.25101  0.12710  1.0000
  H   H233      1.0  0.10593  0.42330  0.04329  1.0000
  C   C141      1.0  0.33077  0.21193  0.83136  1.0000
  C   C142      1.0  0.20652  0.28499  0.13370  1.0000
  S   S60       1.0  0.08892  0.31493  0.99402  1.0000
  C   C143      1.0  0.17918  0.21077  0.95528  1.0000
  S   S61       1.0  0.11222  0.25220  0.86622  1.0000
  C   C144      1.0  0.15665  0.23087  0.99066  1.0000
  S   S62       1.0  0.33916  0.42499  0.80986  1.0000
  H   H234      1.0  0.26012  0.29689  0.87775  1.0000
  C   C145      1.0  0.20836  0.20279  0.09969  1.0000
  H   H235      1.0  0.06594  0.25744  0.90398  1.0000
  H   H236      1.0  0.21958  0.31043  0.21939  1.0000
  H   H237      1.0  0.12592  0.42109  0.79889  1.0000
  H   H238      1.0  0.12556  0.40155  0.92709  1.0000
  C   C146      1.0  0.25735  0.29226  0.08841  1.0000
  C   C147      1.0  0.32492  0.34110  0.12528  1.0000
  H   H239      1.0  0.38587  0.38258  0.14243  1.0000
  C   C148      1.0  0.36446  0.37344  0.14335  1.0000
  H   H240      1.0  0.20744  0.37507  0.89229  1.0000
  H   H241      1.0  0.32596  0.19844  0.80665  1.0000
  N   N14       1.0  0.17650  0.36683  0.83986  1.0000
  H   H242      1.0  0.21546  0.39737  0.77299  1.0000
  H   H243      1.0  0.12047  0.43340  0.96060  1.0000
  C   C149      1.0  0.37199  0.21751  0.23275  1.0000
  C   C150      1.0  0.18836  0.35799  0.89312  1.0000
  H   H244      1.0  0.33943  0.41053  0.01937  1.0000
  H   H245      1.0  0.26740  0.24923  0.81955  1.0000
  H   H246      1.0  0.07692  0.20809  0.21817  1.0000
  S   S63       1.0  0.31645  0.27805  0.20916  1.0000
  H   H247      1.0  0.19096  0.24323  0.81480  1.0000
  H   H248      1.0  0.35747  0.39666  0.18451  1.0000
  H   H249      1.0  0.22482  0.22046  0.10393  1.0000
  S   S64       1.0  0.08468  0.24963  0.10688  1.0000
  H   H250      1.0  0.17069  0.28045  0.82823  1.0000
  Fe  Fe28      1.0  0.32783  0.42223  0.18837  1.0000
  H   H251      1.0  0.34533  0.23277  0.79505  1.0000
  H   H252      1.0  0.23064  0.34355  0.21325  1.0000
  N   N15       1.0  0.29749  0.33238  0.86384  1.0000
  N   N16       1.0  0.34207  0.20368  0.88638  1.0000
  C   C151      1.0  0.16366  0.29258  0.79593  1.0000
  H   H253      1.0  0.28810  0.33280  0.77419  1.0000
  H   H254      1.0  0.31568  0.30989  0.91531  1.0000
  S   S65       1.0  0.36609  0.43516  0.22261  1.0000
  C   C152      1.0  0.21309  0.32550  0.21277  1.0000
  H   H255      1.0  0.15443  0.37760  0.89210  1.0000
  H   H256      1.0  0.27690  0.29490  0.07064  1.0000
  C   C153      1.0  0.30840  0.35154  0.89314  1.0000
  H   H257      1.0  0.17391  0.34845  0.94102  1.0000
  C   C154      1.0  0.32033  0.36931  0.17136  1.0000
  H   H258      1.0  0.36048  0.21872  0.95325  1.0000
  H   H259      1.0  0.07927  0.42389  0.18844  1.0000
  Fe  Fe29      1.0  0.32881  0.24710  0.23780  1.0000
  C   C155      1.0  0.31128  0.26916  0.80005  1.0000
  H   H260      1.0  0.33743  0.40728  0.94488  1.0000
  C   C156      1.0  0.18294  0.24504  0.77107  1.0000
  N   N17       1.0  0.11188  0.39397  0.02493  1.0000
  H   H261      1.0  0.33438  0.22628  0.92994  1.0000
  H   H262      1.0  0.13553  0.33399  0.88842  1.0000
  H   H263      1.0  0.38107  0.42561  0.86331  1.0000
  H   H264      1.0  0.09016  0.37675  0.96433  1.0000
  S   S66       1.0  0.36634  0.29551  0.78246  1.0000
  H   H265      1.0  0.37198  0.22502  0.18088  1.0000
  Fe  Fe30      1.0  0.11034  0.29255  0.03599  1.0000
  H   H266      1.0  0.07062  0.36295  0.07808  1.0000
  C   C157      1.0  0.15141  0.34344  0.84291  1.0000
  C   C158      1.0  0.13574  0.28353  0.80488  1.0000
  C   C159      1.0  0.23965  0.27041  0.14636  1.0000
  H   H267      1.0  0.26182  0.32610  0.00571  1.0000
  S   S67       1.0  0.32211  0.28024  0.06405  1.0000
  C   C160      1.0  0.19646  0.37935  0.77748  1.0000
  C   C161      1.0  0.16972  0.38653  0.84596  1.0000
  H   H268      1.0  0.14242  0.34919  0.80217  1.0000
  Fe  Fe31      1.0  0.11342  0.26094  0.16742  1.0000
  H   H269      1.0  0.10128  0.37625  0.79862  1.0000
  C   C162      1.0  0.08954  0.41903  0.83973  1.0000
  H   H270      1.0  0.39354  0.22448  0.23505  1.0000
  H   H271      1.0  0.17608  0.34171  0.20594  1.0000
  C   C163      1.0  0.10547  0.41587  0.00548  1.0000
  H   H272      1.0  0.21766  0.22655  0.77858  1.0000
  H   H273      1.0  0.36727  0.24424  0.87494  1.0000
  H   H274      1.0  0.16076  0.29610  0.21287  1.0000
  H   H275      1.0  0.08495  0.40927  0.99556  1.0000
  H   H276      1.0  0.20225  0.36516  0.77139  1.0000
  H   H277      1.0  0.38366  0.43389  0.04004  1.0000
  H   H278      1.0  0.16239  0.24256  0.78363  1.0000
  C   C164      1.0  0.06520  0.30795  0.05982  1.0000
  C   C165      1.0  0.25353  0.44608  0.07339  1.0000
  C   C166      1.0  0.16291  0.19778  0.79869  1.0000
  C   C167      1.0  0.31429  0.19787  0.07657  1.0000
  H   H279      1.0  0.06338  0.23423  0.98151  1.0000
  S   S68       1.0  0.18786  0.20472  0.44100  1.0000
  C   C168      1.0  0.37890  0.38469  0.41851  1.0000
  H   H280      1.0  0.29735  0.41682  0.63523  1.0000
  S   S69       1.0  0.26425  0.36055  0.66583  1.0000
  C   C169      1.0  0.10716  0.34866  0.40097  1.0000
  C   C170      1.0  0.17331  0.33267  0.70273  1.0000
  C   C171      1.0  0.11123  0.25617  0.43979  1.0000
  H   H281      1.0  0.20941  0.21353  0.71897  1.0000
  S   S70       1.0  0.09765  0.24621  0.27301  1.0000
  H   H282      1.0  0.26882  0.25919  0.30464  1.0000
  H   H283      1.0  0.29760  0.41710  0.74246  1.0000
  H   H284      1.0  0.09126  0.33046  0.44036  1.0000
  C   C172      1.0  0.19617  0.35688  0.47060  1.0000
  H   H285      1.0  0.37216  0.42708  0.35891  1.0000
  C   C173      1.0  0.33555  0.41718  0.74418  1.0000
  Fe  Fe32      1.0  0.25530  0.34332  0.51968  1.0000
  C   C174      1.0  0.16338  0.31368  0.55541  1.0000
  C   C175      1.0  0.21115  0.27262  0.48647  1.0000
  C   C176      1.0  0.23427  0.29279  0.49153  1.0000
  S   S71       1.0  0.26135  0.38255  0.51368  1.0000
  C   C177      1.0  0.31381  0.41646  0.71747  1.0000
  S   S72       1.0  0.19663  0.36257  0.63678  1.0000
  C   C178      1.0  0.26455  0.27538  0.30204  1.0000
  H   H286      1.0  0.27601  0.32394  0.29211  1.0000
  C   C179      1.0  0.10156  0.25816  0.54124  1.0000
  N   N18       1.0  0.27825  0.28846  0.34293  1.0000
  H   H287      1.0  0.06410  0.35997  0.61045  1.0000
  H   H288      1.0  0.06664  0.20769  0.53684  1.0000
  H   H289      1.0  0.19835  0.27751  0.45736  1.0000
  H   H290      1.0  0.17123  0.32058  0.59253  1.0000
  C   C180      1.0  0.33564  0.41762  0.62216  1.0000
  H   H291      1.0  0.37427  0.41911  0.62219  1.0000
  C   C181      1.0  0.35834  0.27663  0.32261  1.0000
  H   H292      1.0  0.35854  0.38285  0.53078  1.0000
  H   H293      1.0  0.38349  0.31774  0.30415  1.0000
  H   H294      1.0  0.38333  0.24551  0.69886  1.0000
  H   H295      1.0  0.18816  0.38609  0.73599  1.0000
  H   H296      1.0  0.17585  0.29793  0.36648  1.0000
  H   H297      1.0  0.07437  0.37041  0.27526  1.0000
  C   C182      1.0  0.12832  0.24618  0.46185  1.0000
  H   H298      1.0  0.28026  0.31867  0.37180  1.0000
  H   H299      1.0  0.24197  0.26582  0.31753  1.0000
  C   C183      1.0  0.31082  0.31363  0.71021  1.0000
  H   H300      1.0  0.07954  0.30638  0.69442  1.0000
  H   H301      1.0  0.31504  0.28791  0.32075  1.0000
  H   H302      1.0  0.07157  0.37358  0.34965  1.0000
  H   H303      1.0  0.18663  0.23094  0.51402  1.0000
  H   H304      1.0  0.25634  0.25418  0.59225  1.0000
  H   H305      1.0  0.35465  0.33390  0.69292  1.0000
  H   H306      1.0  0.14649  0.23587  0.53973  1.0000
  S   S73       1.0  0.08496  0.26632  0.58917  1.0000
  C   C184      1.0  0.15715  0.32627  0.44756  1.0000
  N   N19       1.0  0.38575  0.40739  0.43564  1.0000
  H   H307      1.0  0.37487  0.42001  0.72927  1.0000
  H   H308      1.0  0.15363  0.36504  0.46813  1.0000
  H   H309      1.0  0.07362  0.38238  0.47553  1.0000
  H   H310      1.0  0.26846  0.30161  0.53419  1.0000
  C   C185      1.0  0.14546  0.32404  0.71292  1.0000
  H   H311      1.0  0.21133  0.32357  0.33191  1.0000
  H   H312      1.0  0.16194  0.34302  0.40035  1.0000
  N   N20       1.0  0.16697  0.33617  0.49631  1.0000
  H   H313      1.0  0.31075  0.33103  0.67643  1.0000
  C   C186      1.0  0.19415  0.30642  0.32739  1.0000
  C   C187      1.0  0.14775  0.39556  0.29823  1.0000
  H   H314      1.0  0.13463  0.31281  0.46241  1.0000
  C   C188      1.0  0.35738  0.41828  0.64882  1.0000
  N   N21       1.0  0.18192  0.22510  0.74835  1.0000
  H   H315      1.0  0.34661  0.40459  0.43416  1.0000
  C   C189      1.0  0.33675  0.26896  0.44535  1.0000
  C   C190      1.0  0.38051  0.39765  0.50645  1.0000
  H   H316      1.0  0.19972  0.37412  0.42570  1.0000
  H   H317      1.0  0.18652  0.24941  0.64963  1.0000
  C   C191      1.0  0.15120  0.34790  0.51171  1.0000
  S   S74       1.0  0.28974  0.34521  0.56468  1.0000
  C   C192      1.0  0.27019  0.30822  0.34185  1.0000
  S   S75       1.0  0.21326  0.20558  0.59151  1.0000
  C   C193      1.0  0.36799  0.29813  0.33931  1.0000
  H   H318      1.0  0.10493  0.37483  0.43978  1.0000
  H   H319      1.0  0.16209  0.32751  0.29096  1.0000
  H   H320      1.0  0.12266  0.24621  0.61013  1.0000
  H   H321      1.0  0.08896  0.42951  0.68391  1.0000
  H   H322      1.0  0.08039  0.33026  0.72316  1.0000
  H   H323      1.0  0.17155  0.21428  0.67021  1.0000
  S   S76       1.0  0.22383  0.31885  0.61356  1.0000
  C   C194      1.0  0.25026  0.28609  0.53081  1.0000
  H   H324      1.0  0.15174  0.22657  0.69674  1.0000
  S   S77       1.0  0.13782  0.42797  0.33741  1.0000
  C   C195      1.0  0.33813  0.25114  0.36727  1.0000
  C   C196      1.0  0.24348  0.25919  0.56351  1.0000
  H   H325      1.0  0.35477  0.27199  0.61220  1.0000
  H   H326      1.0  0.37345  0.43659  0.42430  1.0000
  C   C197      1.0  0.22065  0.23904  0.55693  1.0000
  H   H327      1.0  0.31526  0.31755  0.26776  1.0000
  H   H328      1.0  0.14663  0.28259  0.29740  1.0000
  H   H329      1.0  0.29898  0.44201  0.49430  1.0000
  S   S78       1.0  0.33454  0.41647  0.54760  1.0000
  C   C198      1.0  0.35741  0.41819  0.70991  1.0000
  S   S79       1.0  0.37181  0.32157  0.42039  1.0000
  S   S80       1.0  0.24282  0.32620  0.44901  1.0000
  C   C199      1.0  0.33568  0.31535  0.71999  1.0000
  C   C200      1.0  0.27009  0.26786  0.40956  1.0000
  C   C201      1.0  0.35729  0.29441  0.40043  1.0000
  H   H330      1.0  0.10768  0.25879  0.39249  1.0000
  H   H331      1.0  0.19945  0.29039  0.33677  1.0000
  H   H332      1.0  0.31898  0.31289  0.34770  1.0000
  S   S81       1.0  0.09534  0.22109  0.74561  1.0000
  C   C202      1.0  0.07489  0.38407  0.29680  1.0000
  H   H333      1.0  0.39250  0.38790  0.52624  1.0000
  C   C203      1.0  0.31385  0.41664  0.65651  1.0000
  Fe  Fe33      1.0  0.14786  0.20216  0.46567  1.0000
  C   C204      1.0  0.07710  0.32425  0.68258  1.0000
  C   C205      1.0  0.32732  0.24714  0.42888  1.0000
  H   H334      1.0  0.09367  0.34084  0.63901  1.0000
  S   S82       1.0  0.32497  0.22544  0.34226  1.0000
  H   H335      1.0  0.24780  0.29854  0.36065  1.0000
  C   C206      1.0  0.14078  0.37060  0.29947  1.0000
  C   C207      1.0  0.18244  0.31698  0.74421  1.0000
  H   H336      1.0  0.17437  0.30382  0.54530  1.0000
  H   H337      1.0  0.24760  0.25651  0.42910  1.0000
  H   H338      1.0  0.31152  0.22735  0.46326  1.0000
  S   S83       1.0  0.25486  0.28839  0.74154  1.0000
  H   H339      1.0  0.32863  0.26600  0.49293  1.0000
  H   H340      1.0  0.38513  0.27495  0.52476  1.0000
  H   H341      1.0  0.15806  0.35543  0.54868  1.0000
  N   N22       1.0  0.18846  0.31459  0.26344  1.0000
  S   S84       1.0  0.14378  0.23782  0.41228  1.0000
  C   C208      1.0  0.11913  0.24866  0.56307  1.0000
  H   H342      1.0  0.16645  0.31475  0.43981  1.0000
  H   H343      1.0  0.13844  0.33623  0.68099  1.0000
  C   C209      1.0  0.17244  0.22900  0.68862  1.0000
  C   C210      1.0  0.11486  0.37366  0.40073  1.0000
  H   H344      1.0  0.07772  0.42975  0.28832  1.0000
  H   H345      1.0  0.19737  0.35344  0.25569  1.0000
  H   H346      1.0  0.14151  0.29817  0.57735  1.0000
  C   C211      1.0  0.09784  0.26204  0.47954  1.0000
  H   H347      1.0  0.12901  0.33275  0.53084  1.0000
  S   S85       1.0  0.10855  0.31675  0.34591  1.0000
  H   H348      1.0  0.35713  0.36866  0.44111  1.0000
  Fe  Fe34      1.0  0.23223  0.35809  0.61169  1.0000
  C   C212      1.0  0.36875  0.41938  0.41213  1.0000
  C   C213      1.0  0.13412  0.39711  0.34770  1.0000
  H   H349      1.0  0.27961  0.27700  0.44214  1.0000
  C   C214      1.0  0.16564  0.29100  0.26039  1.0000
  C   C215      1.0  0.20436  0.24593  0.51931  1.0000
  C   C216      1.0  0.13268  0.24285  0.52313  1.0000
  Fe  Fe35      1.0  0.29302  0.38222  0.56767  1.0000
  H   H350      1.0  0.36668  0.27984  0.27495  1.0000
  H   H351      1.0  0.17015  0.27447  0.26945  1.0000
  C   C217      1.0  0.11976  0.34731  0.34949  1.0000
  H   H352      1.0  0.20405  0.36496  0.50605  1.0000
  H   H353      1.0  0.20871  0.34862  0.45918  1.0000
  H   H354      1.0  0.27647  0.25299  0.41198  1.0000
  C   C218      1.0  0.30817  0.30234  0.31857  1.0000
  H   H355      1.0  0.09588  0.40174  0.27782  1.0000
  Fe  Fe36      1.0  0.25863  0.32352  0.65867  1.0000
  H   H356      1.0  0.08422  0.26919  0.46259  1.0000
  C   C219      1.0  0.28617  0.28985  0.74655  1.0000
  H   H357      1.0  0.19675  0.26589  0.73403  1.0000
  H   H358      1.0  0.36945  0.23799  0.63505  1.0000
  H   H359      1.0  0.20398  0.32366  0.73679  1.0000
  H   H360      1.0  0.38624  0.41445  0.52084  1.0000
  C   C220      1.0  0.38781  0.25151  0.64604  1.0000
  Fe  Fe37      1.0  0.07044  0.23671  0.69222  1.0000
  H   H361      1.0  0.36741  0.27876  0.67773  1.0000
  C   C221      1.0  0.37321  0.28421  0.62535  1.0000
  C   C222      1.0  0.06556  0.19847  0.26767  1.0000
  H   H362      1.0  0.25450  0.44289  0.74477  1.0000
  C   C223      1.0  0.20946  0.22855  0.73506  1.0000
  C   C224      1.0  0.07230  0.21233  0.30642  1.0000
  H   H363      1.0  0.37892  0.30561  0.59891  1.0000
  H   H364      1.0  0.22421  0.24880  0.69654  1.0000
  C   C225      1.0  0.06765  0.42358  0.68028  1.0000
  H   H365      1.0  0.36451  0.22721  0.25534  1.0000
  H   H366      1.0  0.06329  0.20993  0.40147  1.0000
  H   H367      1.0  0.16311  0.41357  0.25784  1.0000
  H   H368      1.0  0.38231  0.39121  0.36546  1.0000
  H   H369      1.0  0.15066  0.36949  0.25991  1.0000
  N   N23       1.0  0.39593  0.27999  0.60951  1.0000
  H   H370      1.0  0.39154  0.37530  0.43508  1.0000
  C   C226      1.0  0.18075  0.33529  0.25359  1.0000
  H   H371      1.0  0.32956  0.57865  0.05977  1.0000
  Fe  Fe38      1.0  0.38686  0.46573  0.12038  1.0000
  H   H372      1.0  0.24572  0.57321  0.86896  1.0000
  H   H373      1.0  0.31454  0.52828  0.77529  1.0000
  Fe  Fe39      1.0  0.19724  0.62249  0.91238  1.0000
  C   C227      1.0  0.08457  0.47217  0.09610  1.0000
  H   H374      1.0  0.27181  0.61978  0.85705  1.0000
  S   S86       1.0  0.32847  0.50711  0.04713  1.0000
  H   H375      1.0  0.26294  0.58736  0.17879  1.0000
  C   C228      1.0  0.28136  0.46082  0.06981  1.0000
  S   S87       1.0  0.34917  0.45127  0.08523  1.0000
  C   C229      1.0  0.21493  0.59899  0.81017  1.0000
  C   C230      1.0  0.12381  0.51799  0.82856  1.0000
  H   H376      1.0  0.09378  0.52848  0.93970  1.0000
  S   S88       1.0  0.19391  0.65461  0.83429  1.0000
  S   S89       1.0  0.18585  0.48477  0.77692  1.0000
  H   H377      1.0  0.12625  0.55156  0.88130  1.0000
  H   H378      1.0  0.30657  0.64896  0.08904  1.0000
  H   H379      1.0  0.27519  0.56972  0.87830  1.0000
  Fe  Fe40      1.0  0.36288  0.63098  0.86215  1.0000
  C   C231      1.0  0.18802  0.67252  0.17259  1.0000
  Fe  Fe41      1.0  0.14539  0.47708  0.75663  1.0000
  H   H380      1.0  0.36884  0.46025  0.95480  1.0000
  Fe  Fe42      1.0  0.18685  0.46077  0.10785  1.0000
  S   S90       1.0  0.39467  0.62738  0.91223  1.0000
  H   H381      1.0  0.28402  0.53983  0.13129  1.0000
  H   H382      1.0  0.35997  0.57919  0.07875  1.0000
  Fe  Fe43      1.0  0.19925  0.50901  0.13582  1.0000
  S   S91       1.0  0.11298  0.47649  0.04925  1.0000
  H   H383      1.0  0.14029  0.53913  0.79924  1.0000
  H   H384      1.0  0.14628  0.62715  0.17671  1.0000
  H   H385      1.0  0.17710  0.63613  0.12436  1.0000
  C   C232      1.0  0.32915  0.66148  0.06999  1.0000
  H   H386      1.0  0.22439  0.56028  0.00577  1.0000
  Fe  Fe44      1.0  0.35803  0.46557  0.23586  1.0000
  C   C233      1.0  0.21787  0.56985  0.76524  1.0000
  H   H387      1.0  0.08839  0.47722  0.93861  1.0000
  S   S92       1.0  0.18434  0.63102  0.99143  1.0000
  N   N24       1.0  0.33770  0.68962  0.02759  1.0000
  H   H388      1.0  0.28994  0.52362  0.00809  1.0000
  C   C234      1.0  0.32403  0.69043  0.97442  1.0000
  Fe  Fe45      1.0  0.14580  0.47952  0.10202  1.0000
  H   H389      1.0  0.15004  0.63891  0.09128  1.0000
  H   H390      1.0  0.08209  0.52111  0.78719  1.0000
  C   C235      1.0  0.37846  0.45619  0.91964  1.0000
  C   C236      1.0  0.29451  0.52882  0.15449  1.0000
  C   C237      1.0  0.29441  0.48874  0.04672  1.0000
  C   C238      1.0  0.25502  0.56784  0.21853  1.0000
  C   C239      1.0  0.07990  0.48808  0.90499  1.0000
  H   H391      1.0  0.25469  0.68339  0.15387  1.0000
  C   C240      1.0  0.28215  0.61322  0.89372  1.0000
  H   H392      1.0  0.08035  0.67738  0.77378  1.0000
  S   S93       1.0  0.34962  0.64593  0.92560  1.0000
  H   H393      1.0  0.33730  0.52025  0.15468  1.0000
  S   S94       1.0  0.24179  0.64822  0.90241  1.0000
  H   H394      1.0  0.13701  0.66290  0.17656  1.0000
  H   H395      1.0  0.18965  0.52758  0.82037  1.0000
  S   S95       1.0  0.15533  0.49188  0.18287  1.0000
  H   H396      1.0  0.33801  0.66010  0.11233  1.0000
  H   H397      1.0  0.33138  0.67816  0.82330  1.0000
  C   C241      1.0  0.36126  0.54621  0.83315  1.0000
  S   S96       1.0  0.37606  0.63152  0.07651  1.0000
  S   S97       1.0  0.38131  0.49707  0.13576  1.0000
  S   S98       1.0  0.18983  0.50016  0.04997  1.0000
  H   H398      1.0  0.24327  0.54616  0.93809  1.0000
  C   C242      1.0  0.16119  0.64170  0.12899  1.0000
  C   C243      1.0  0.19354  0.57660  0.86179  1.0000
  Fe  Fe46      1.0  0.18410  0.66506  0.91283  1.0000
  H   H399      1.0  0.24032  0.49738  0.01846  1.0000
  C   C244      1.0  0.25681  0.56773  0.90471  1.0000
  N   N25       1.0  0.26432  0.58481  0.93989  1.0000
  H   H400      1.0  0.34424  0.57771  0.18423  1.0000
  H   H401      1.0  0.30130  0.61652  0.86727  1.0000
  C   C245      1.0  0.18484  0.55088  0.86587  1.0000
  H   H402      1.0  0.35280  0.52495  0.84734  1.0000
  H   H403      1.0  0.33767  0.55440  0.05411  1.0000
  C   C246      1.0  0.34428  0.55594  0.84466  1.0000
  H   H404      1.0  0.07202  0.47748  0.87381  1.0000
  C   C247      1.0  0.08886  0.53013  0.82168  1.0000
  H   H405      1.0  0.39420  0.69282  0.17886  1.0000
  Fe  Fe47      1.0  0.38127  0.68695  0.85224  1.0000
  H   H406      1.0  0.35763  0.54554  0.18052  1.0000
  C   C248      1.0  0.19284  0.68815  0.05789  1.0000
  C   C249      1.0  0.19669  0.54752  0.81718  1.0000
  H   H407      1.0  0.28785  0.62668  0.91864  1.0000
  H   H408      1.0  0.15960  0.53125  0.25088  1.0000
  C   C250      1.0  0.38936  0.56377  0.80683  1.0000
  H   H409      1.0  0.06678  0.48013  0.22696  1.0000
  N   N26       1.0  0.32297  0.54745  0.15102  1.0000
  H   H410      1.0  0.22180  0.61890  0.80711  1.0000
  C   C251      1.0  0.06434  0.47340  0.18938  1.0000
  H   H411      1.0  0.29796  0.57914  0.96296  1.0000
  H   H412      1.0  0.24398  0.59275  0.00477  1.0000
  S   S99       1.0  0.33463  0.59554  0.84541  1.0000
  H   H413      1.0  0.22902  0.58935  0.93966  1.0000
  N   N27       1.0  0.10082  0.51655  0.86616  1.0000
  Fe  Fe48      1.0  0.22860  0.65970  0.97475  1.0000
  H   H414      1.0  0.20409  0.66700  0.17029  1.0000
  C   C252      1.0  0.23939  0.58166  0.97398  1.0000
  C   C253      1.0  0.15161  0.67609  0.12808  1.0000
  H   H415      1.0  0.28892  0.67308  0.79086  1.0000
  S   S100      1.0  0.10640  0.45173  0.83461  1.0000
  C   C254      1.0  0.35533  0.58329  0.82843  1.0000
  H   H416      1.0  0.30142  0.67910  0.99288  1.0000
  H   H417      1.0  0.28421  0.58863  0.01575  1.0000
  C   C255      1.0  0.38717  0.66390  0.14001  1.0000
  C   C256      1.0  0.08747  0.48052  0.14561  1.0000
  S   S101      1.0  0.34857  0.49679  0.75916  1.0000
  H   H418      1.0  0.29370  0.51594  0.13004  1.0000
  H   H419      1.0  0.33598  0.65227  0.04434  1.0000
  H   H420      1.0  0.31333  0.57553  0.16467  1.0000
  C   C257      1.0  0.33632  0.53204  0.18086  1.0000
  C   C258      1.0  0.32302  0.56341  0.18599  1.0000
  H   H421      1.0  0.12122  0.68914  0.99242  1.0000
  H   H422      1.0  0.10753  0.49237  0.15042  1.0000
  C   C259      1.0  0.26442  0.69522  0.05150  1.0000
  C   C260      1.0  0.27977  0.50200  0.02646  1.0000
  S   S102      1.0  0.17778  0.58018  0.92247  1.0000
  H   H423      1.0  0.20962  0.68390  0.05177  1.0000
  H   H424      1.0  0.29917  0.68748  0.22409  1.0000
  C   C261      1.0  0.38334  0.60088  0.80090  1.0000
  C   C262      1.0  0.25177  0.48719  0.03224  1.0000
  H   H425      1.0  0.16892  0.53351  0.90689  1.0000
  S   S103      1.0  0.23161  0.54750  0.13527  1.0000
  S   S104      1.0  0.14865  0.67061  0.93243  1.0000
  S   S105      1.0  0.09904  0.68342  0.18781  1.0000
  H   H426      1.0  0.26589  0.55514  0.02179  1.0000
  Fe  Fe49      1.0  0.23761  0.68115  0.82951  1.0000
  H   H427      1.0  0.13285  0.50731  0.86073  1.0000
  S   S106      1.0  0.33403  0.66493  0.23527  1.0000
  H   H428      1.0  0.32284  0.54210  0.86835  1.0000
  C   C263      1.0  0.23827  0.54462  0.21086  1.0000
  H   H429      1.0  0.11693  0.50828  0.79537  1.0000
  H   H430      1.0  0.26529  0.51152  0.79184  1.0000
  H   H431      1.0  0.12065  0.52077  0.94199  1.0000
  S   S107      1.0  0.20029  0.47138  0.18844  1.0000
  Fe  Fe50      1.0  0.15610  0.45386  0.23177  1.0000
  Fe  Fe51      1.0  0.38384  0.64577  0.96932  1.0000
  C   C264      1.0  0.27881  0.57663  0.98712  1.0000
  H   H432      1.0  0.36698  0.45595  0.88182  1.0000
  H   H433      1.0  0.32942  0.68165  0.94496  1.0000
  N   N28       1.0  0.17342  0.66961  0.12193  1.0000
  C   C265      1.0  0.30451  0.69244  0.78609  1.0000
  Fe  Fe52      1.0  0.34157  0.47975  0.11011  1.0000
  C   C266      1.0  0.23863  0.45922  0.05583  1.0000
  H   H434      1.0  0.36722  0.64932  0.17229  1.0000
  S   S108      1.0  0.24572  0.66216  0.05969  1.0000
  S   S109      1.0  0.39170  0.67210  0.78452  1.0000
  C   C267      1.0  0.33815  0.56568  0.08291  1.0000
  C   C268      1.0  0.11073  0.52992  0.90906  1.0000
  H   H435      1.0  0.10383  0.55184  0.79293  1.0000
  H   H436      1.0  0.29502  0.55461  0.79734  1.0000
  H   H437      1.0  0.18259  0.68618  0.01865  1.0000
  H   H438      1.0  0.11974  0.67908  0.81932  1.0000
  H   H439      1.0  0.31178  0.55040  0.23761  1.0000
  H   H440      1.0  0.32514  0.51769  0.23185  1.0000
  H   H441      1.0  0.17383  0.65952  0.22165  1.0000
  H   H442      1.0  0.30770  0.68896  0.08989  1.0000
  H   H443      1.0  0.28231  0.51525  0.20528  1.0000
  H   H444      1.0  0.13968  0.67332  0.09171  1.0000
  H   H445      1.0  0.19825  0.69357  0.16728  1.0000
  H   H446      1.0  0.39195  0.62205  0.78792  1.0000
  C   C269      1.0  0.22727  0.59558  0.76212  1.0000
  S   S110      1.0  0.31744  0.44996  0.21156  1.0000
  H   H447      1.0  0.29263  0.45053  0.08540  1.0000
  H   H448      1.0  0.07065  0.52838  0.84824  1.0000
  C   C270      1.0  0.06462  0.59530  0.22026  1.0000
  S   S111      1.0  0.22754  0.69450  0.90147  1.0000
  C   C271      1.0  0.32847  0.69527  0.80464  1.0000
  H   H449      1.0  0.37427  0.69675  0.97216  1.0000
  H   H450      1.0  0.30247  0.46027  0.41014  1.0000
  C   C272      1.0  0.28087  0.50668  0.58488  1.0000
  H   H451      1.0  0.25361  0.58259  0.40460  1.0000
  C   C273      1.0  0.14412  0.55936  0.45368  1.0000
  S   S112      1.0  0.23254  0.56553  0.70442  1.0000
  S   S113      1.0  0.26297  0.53820  0.39990  1.0000
  H   H452      1.0  0.38376  0.55326  0.45246  1.0000
  C   C274      1.0  0.33907  0.48240  0.50948  1.0000
  H   H453      1.0  0.18214  0.51694  0.40215  1.0000
  Fe  Fe53      1.0  0.16950  0.50905  0.61178  1.0000
  C   C275      1.0  0.11140  0.56554  0.50759  1.0000
  H   H454      1.0  0.18238  0.68339  0.36014  1.0000
  Fe  Fe54      1.0  0.39289  0.52454  0.74635  1.0000
  H   H455      1.0  0.13351  0.68573  0.44662  1.0000
  H   H456      1.0  0.33564  0.50857  0.35466  1.0000
  H   H457      1.0  0.23580  0.58228  0.56316  1.0000
  C   C276      1.0  0.12907  0.57226  0.45146  1.0000
  H   H458      1.0  0.34942  0.50150  0.51465  1.0000
  H   H459      1.0  0.14324  0.54122  0.29695  1.0000
  H   H460      1.0  0.07011  0.61799  0.60839  1.0000
  H   H461      1.0  0.14072  0.67396  0.52285  1.0000
  H   H462      1.0  0.30790  0.68171  0.52914  1.0000
  H   H463      1.0  0.09179  0.46741  0.70443  1.0000
  S   S114      1.0  0.33424  0.52459  0.58506  1.0000
  H   H464      1.0  0.31670  0.52707  0.69884  1.0000
  S   S115      1.0  0.20846  0.44741  0.70877  1.0000
  Fe  Fe55      1.0  0.36302  0.46928  0.75247  1.0000
  H   H465      1.0  0.15401  0.47419  0.39382  1.0000
  S   S116      1.0  0.38675  0.58183  0.25657  1.0000
  N   N29       1.0  0.29633  0.54761  0.71229  1.0000
  H   H466      1.0  0.13275  0.48934  0.45631  1.0000
  S   S117      1.0  0.16104  0.52017  0.68980  1.0000
  C   C277      1.0  0.31742  0.53990  0.72318  1.0000
  C   C278      1.0  0.26905  0.52317  0.73921  1.0000
  C   C279      1.0  0.22155  0.60275  0.41800  1.0000
  N   N30       1.0  0.14978  0.50916  0.35378  1.0000
  C   C280      1.0  0.37138  0.62325  0.60076  1.0000
  H   H467      1.0  0.26201  0.63784  0.44819  1.0000
  Fe  Fe56      1.0  0.35870  0.51391  0.65120  1.0000
  C   C281      1.0  0.30295  0.48963  0.47316  1.0000
  H   H468      1.0  0.10803  0.48495  0.40960  1.0000
  C   C282      1.0  0.29538  0.67846  0.64643  1.0000
  Fe  Fe57      1.0  0.34112  0.63238  0.29809  1.0000
  H   H469      1.0  0.32974  0.45547  0.43565  1.0000
  C   C283      1.0  0.29940  0.50120  0.61581  1.0000
  C   C284      1.0  0.32306  0.68399  0.38092  1.0000
  H   H470      1.0  0.22017  0.60240  0.53582  1.0000
  S   S118      1.0  0.36967  0.47953  0.31325  1.0000
  C   C285      1.0  0.25283  0.48935  0.61196  1.0000
  C   C286      1.0  0.37180  0.62917  0.53587  1.0000
  H   H471      1.0  0.26681  0.50967  0.71558  1.0000
  C   C287      1.0  0.08168  0.46645  0.59236  1.0000
  H   H472      1.0  0.08716  0.63073  0.46510  1.0000
  S   S119      1.0  0.31638  0.60734  0.40090  1.0000
  N   N31       1.0  0.06359  0.44698  0.65756  1.0000
  H   H473      1.0  0.10357  0.47391  0.59229  1.0000
  C   C288      1.0  0.09272  0.58572  0.29003  1.0000
  H   H474      1.0  0.20363  0.56865  0.54329  1.0000
  C   C289      1.0  0.37202  0.64099  0.62589  1.0000
  N   N32       1.0  0.09843  0.65284  0.52300  1.0000
  H   H475      1.0  0.28444  0.68135  0.68194  1.0000
  H   H476      1.0  0.37018  0.60469  0.63201  1.0000
  H   H477      1.0  0.22659  0.49809  0.36170  1.0000
  H   H478      1.0  0.13046  0.47202  0.34412  1.0000
  C   C290      1.0  0.32345  0.67649  0.28435  1.0000
  S   S120      1.0  0.15061  0.46542  0.67707  1.0000
  C   C291      1.0  0.15022  0.48599  0.34973  1.0000
  H   H479      1.0  0.36269  0.50505  0.38521  1.0000
  C   C292      1.0  0.31346  0.45951  0.44887  1.0000
  C   C293      1.0  0.37389  0.65348  0.49534  1.0000
  C   C294      1.0  0.09205  0.62922  0.58265  1.0000
  Fe  Fe58      1.0  0.36413  0.59578  0.30327  1.0000
  H   H480      1.0  0.31111  0.50840  0.48000  1.0000
  H   H481      1.0  0.09498  0.54045  0.60967  1.0000
  H   H482      1.0  0.28761  0.47304  0.51876  1.0000
  H   H483      1.0  0.16657  0.49247  0.30812  1.0000
  H   H484      1.0  0.09668  0.61512  0.57192  1.0000
  H   H485      1.0  0.22332  0.55704  0.46760  1.0000
  H   H486      1.0  0.30931  0.67189  0.66919  1.0000
  H   H487      1.0  0.27799  0.61803  0.47598  1.0000
  C   C295      1.0  0.37613  0.67206  0.51986  1.0000
  H   H488      1.0  0.07883  0.48419  0.57346  1.0000
  H   H489      1.0  0.37102  0.63592  0.67659  1.0000
  H   H490      1.0  0.13084  0.58724  0.40604  1.0000
  H   H491      1.0  0.33832  0.55777  0.70431  1.0000
  C   C296      1.0  0.24326  0.46659  0.67012  1.0000
  H   H492      1.0  0.32051  0.58099  0.62069  1.0000
  N   N33       1.0  0.23827  0.59687  0.46155  1.0000
  H   H493      1.0  0.32446  0.46665  0.55670  1.0000
  H   H494      1.0  0.30421  0.47327  0.69601  1.0000
  H   H495      1.0  0.35475  0.47697  0.50084  1.0000
  S   S121      1.0  0.16243  0.52541  0.51439  1.0000
  H   H496      1.0  0.21721  0.61806  0.42243  1.0000
  C   C297      1.0  0.12783  0.66737  0.49094  1.0000
  H   H497      1.0  0.17683  0.54469  0.36445  1.0000
  H   H498      1.0  0.27612  0.62946  0.39359  1.0000
  H   H499      1.0  0.27384  0.58400  0.28350  1.0000
  C   C298      1.0  0.08213  0.64392  0.47946  1.0000
  C   C299      1.0  0.12838  0.49952  0.41104  1.0000
  H   H500      1.0  0.10402  0.63509  0.61663  1.0000
  Fe  Fe59      1.0  0.30542  0.57251  0.37675  1.0000
  C   C300      1.0  0.30040  0.56220  0.64239  1.0000
  C   C301      1.0  0.34490  0.50729  0.39640  1.0000
  H   H501      1.0  0.10671  0.59143  0.31909  1.0000
  H   H502      1.0  0.30000  0.55003  0.61620  1.0000
  H   H503      1.0  0.25259  0.52819  0.73215  1.0000
  H   H504      1.0  0.20165  0.58439  0.42929  1.0000
  H   H505      1.0  0.28814  0.52462  0.54056  1.0000
  S   S122      1.0  0.13066  0.67398  0.33641  1.0000
  C   C302      1.0  0.28993  0.47778  0.67244  1.0000
  H   H506      1.0  0.10306  0.67751  0.57295  1.0000
  H   H507      1.0  0.23860  0.49361  0.58763  1.0000
  H   H508      1.0  0.12668  0.51635  0.41430  1.0000
  C   C303      1.0  0.14226  0.54030  0.51244  1.0000
  S   S123      1.0  0.08926  0.53672  0.34375  1.0000
  H   H509      1.0  0.24369  0.61286  0.72203  1.0000
  C   C304      1.0  0.12448  0.53344  0.56872  1.0000
  H   H510      1.0  0.32991  0.68316  0.42435  1.0000
  C   C305      1.0  0.17667  0.52741  0.35928  1.0000
  H   H511      1.0  0.19318  0.53560  0.31603  1.0000
  S   S124      1.0  0.36991  0.48447  0.64508  1.0000
  H   H512      1.0  0.23201  0.61047  0.36668  1.0000
  H   H513      1.0  0.12244  0.51832  0.61398  1.0000
  H   H514      1.0  0.15731  0.56443  0.40967  1.0000
  C   C306      1.0  0.37499  0.66564  0.58538  1.0000
  C   C307      1.0  0.10879  0.54583  0.56620  1.0000
  C   C308      1.0  0.22385  0.58714  0.52888  1.0000
  C   C309      1.0  0.24288  0.57602  0.45490  1.0000
  C   C310      1.0  0.26475  0.62161  0.44417  1.0000
  C   C311      1.0  0.14387  0.52368  0.29514  1.0000
  C   C312      1.0  0.26179  0.46044  0.69966  1.0000
  Fe  Fe60      1.0  0.19209  0.47544  0.69355  1.0000
  S   S125      1.0  0.34058  0.56815  0.40573  1.0000
  S   S126      1.0  0.09286  0.58202  0.50378  1.0000
  S   S127      1.0  0.21174  0.51834  0.62075  1.0000
  Fe  Fe61      1.0  0.35391  0.60553  0.42059  1.0000
  C   C313      1.0  0.23437  0.51759  0.32200  1.0000
  S   S128      1.0  0.37969  0.63324  0.31935  1.0000
  H   H515      1.0  0.13347  0.65462  0.47617  1.0000
  H   H516      1.0  0.35289  0.52684  0.39928  1.0000
  H   H517      1.0  0.06950  0.66075  0.56134  1.0000
  C   C314      1.0  0.22744  0.51952  0.26324  1.0000
  S   S129      1.0  0.32813  0.59756  0.27337  1.0000
  C   C315      1.0  0.08200  0.56022  0.29093  1.0000
  H   H518      1.0  0.29204  0.49173  0.43442  1.0000
  N   N34       1.0  0.32507  0.48471  0.45695  1.0000
  C   C316      1.0  0.26152  0.56593  0.27760  1.0000
  H   H519      1.0  0.25547  0.57098  0.48691  1.0000
  C   C317      1.0  0.09166  0.67083  0.53899  1.0000
  H   H520      1.0  0.34561  0.66737  0.35377  1.0000
  C   C318      1.0  0.33191  0.67504  0.34105  1.0000
  C   C319      1.0  0.25200  0.54079  0.32874  1.0000
  H   H521      1.0  0.12367  0.51057  0.28954  1.0000
  H   H522      1.0  0.07746  0.45724  0.55757  1.0000
  S   S130      1.0  0.37022  0.60580  0.50753  1.0000
  H   H523      1.0  0.28435  0.56767  0.63246  1.0000
  Fe  Fe62      1.0  0.09654  0.67386  0.29206  1.0000
  H   H524      1.0  0.27978  0.66179  0.63732  1.0000
  H   H525      1.0  0.28320  0.57178  0.73617  1.0000
  Fe  Fe63      1.0  0.20218  0.52690  0.70275  1.0000
  H   H526      1.0  0.08614  0.66127  0.43435  1.0000
  H   H527      1.0  0.37442  0.65821  0.44499  1.0000
  H   H528      1.0  0.37852  0.69116  0.48830  1.0000
  S   S131      1.0  0.37848  0.68825  0.61813  1.0000
  H   H529      1.0  0.12233  0.68707  0.70490  1.0000
  C   C320      1.0  0.30614  0.68682  0.26737  1.0000
  H   H530      1.0  0.09692  0.68913  0.49507  1.0000
  H   H531      1.0  0.31904  0.58347  0.72612  1.0000
  C   C321      1.0  0.29845  0.56511  0.74438  1.0000
  C   C322      1.0  0.29740  0.69590  0.30703  1.0000
  C   C323      1.0  0.30599  0.69463  0.36354  1.0000
  H   H532      1.0  0.21405  0.50151  0.25855  1.0000
  H   H533      1.0  0.38956  0.56709  0.51004  1.0000
  C   C324      1.0  0.07013  0.45989  0.70230  1.0000
  H   H534      1.0  0.06649  0.47715  0.68786  1.0000
  H   H535      1.0  0.33834  0.69214  0.55680  1.0000
  H   H536      1.0  0.09139  0.62241  0.25670  1.0000
  C   C325      1.0  0.06382  0.55292  0.25350  1.0000
  C   C326      1.0  0.08385  0.60317  0.25517  1.0000
  S   S132      1.0  0.07554  0.69668  0.29692  1.0000
  C   C327      1.0  0.14705  0.73207  0.95286  1.0000
  H   H537      1.0  0.36080  0.89361  0.08137  1.0000
  S   S133      1.0  0.30422  0.81187  0.23581  1.0000
  H   H538      1.0  0.10393  0.88177  0.17614  1.0000
  Fe  Fe64      1.0  0.10966  0.94368  0.95990  1.0000
  S   S134      1.0  0.31375  0.78021  0.03605  1.0000
  C   C328      1.0  0.17118  0.75440  0.90922  1.0000
  H   H539      1.0  0.15082  0.71051  0.79343  1.0000
  S   S135      1.0  0.08303  0.74395  0.12613  1.0000
  H   H540      1.0  0.08102  0.79932  0.90471  1.0000
  S   S136      1.0  0.21062  0.80753  0.06546  1.0000
  C   C329      1.0  0.13854  0.84837  0.21511  1.0000
  H   H541      1.0  0.19850  0.75069  0.14142  1.0000
  C   C330      1.0  0.32987  0.70134  0.06552  1.0000
  S   S137      1.0  0.20993  0.85771  0.76445  1.0000
  H   H542      1.0  0.30387  0.93586  0.86876  1.0000
  S   S138      1.0  0.26512  0.85970  0.11560  1.0000
  C   C331      1.0  0.16207  0.76722  0.07193  1.0000
  C   C332      1.0  0.16040  0.80381  0.08458  1.0000
  H   H543      1.0  0.14129  0.77221  0.22598  1.0000
  H   H544      1.0  0.09472  0.81343  0.95944  1.0000
  C   C333      1.0  0.19496  0.73570  0.18862  1.0000
  S   S139      1.0  0.35202  0.84861  0.87351  1.0000
  C   C334      1.0  0.19271  0.78373  0.23106  1.0000
  Fe  Fe65      1.0  0.37030  0.83974  0.80237  1.0000
  H   H545      1.0  0.15128  0.71538  0.20511  1.0000
  C   C335      1.0  0.38571  0.74201  0.14203  1.0000
  H   H546      1.0  0.27832  0.71319  0.94788  1.0000
  Fe  Fe66      1.0  0.20171  0.81577  0.79707  1.0000
  H   H547      1.0  0.37318  0.91335  0.21893  1.0000
  H   H548      1.0  0.15044  0.85717  0.80916  1.0000
  H   H549      1.0  0.27724  0.94170  0.89066  1.0000
  H   H550      1.0  0.35446  0.75777  0.07366  1.0000
  C   C336      1.0  0.12666  0.80382  0.84968  1.0000
  S   S140      1.0  0.27328  0.92028  0.04968  1.0000
  C   C337      1.0  0.30089  0.71467  0.76098  1.0000
  S   S141      1.0  0.24242  0.88293  0.23679  1.0000
  C   C338      1.0  0.19331  0.92740  0.02725  1.0000
  C   C339      1.0  0.14029  0.70635  0.95984  1.0000
  S   S142      1.0  0.17855  0.78648  0.89850  1.0000
  H   H551      1.0  0.14432  0.83176  0.95546  1.0000
  C   C340      1.0  0.24662  0.81481  0.91156  1.0000
  C   C341      1.0  0.11850  0.76383  0.09981  1.0000
  C   C342      1.0  0.37382  0.75936  0.21050  1.0000
  H   H552      1.0  0.26974  0.78922  0.88130  1.0000
  H   H553      1.0  0.06329  0.88831  0.09924  1.0000
  C   C343      1.0  0.12977  0.84494  0.84303  1.0000
  C   C344      1.0  0.18248  0.72515  0.88173  1.0000
  C   C345      1.0  0.34842  0.72016  0.79985  1.0000
  Fe  Fe67      1.0  0.39477  0.86968  0.88174  1.0000
  Fe  Fe68      1.0  0.07499  0.70341  0.19453  1.0000
  H   H554      1.0  0.33505  0.73549  0.15599  1.0000
  C   C346      1.0  0.18883  0.75101  0.87324  1.0000
  Fe  Fe69      1.0  0.34791  0.81099  0.94786  1.0000
  C   C347      1.0  0.15805  0.70286  0.92459  1.0000
  Fe  Fe70      1.0  0.23144  0.84764  0.06662  1.0000
  H   H555      1.0  0.36323  0.93287  0.08635  1.0000
  Fe  Fe71      1.0  0.09377  0.93657  0.84187  1.0000
  C   C348      1.0  0.26752  0.92384  0.79856  1.0000
  Fe  Fe72      1.0  0.33729  0.80146  0.24173  1.0000
  C   C349      1.0  0.26547  0.69996  0.10674  1.0000
  H   H556      1.0  0.38987  0.74364  0.09226  1.0000
  S   S143      1.0  0.22258  0.92440  0.93466  1.0000
  H   H557      1.0  0.12349  0.73366  0.08435  1.0000
  H   H558      1.0  0.12816  0.85637  0.86964  1.0000
  C   C350      1.0  0.14896  0.92368  0.02493  1.0000
  N   N35       1.0  0.12473  0.81822  0.88747  1.0000
  C   C351      1.0  0.08460  0.87883  0.20088  1.0000
  H   H559      1.0  0.27540  0.90964  0.81337  1.0000
  C   C352      1.0  0.19352  0.92196  0.97315  1.0000
  C   C353      1.0  0.34747  0.94553  0.93263  1.0000
  S   S144      1.0  0.06913  0.92146  0.94174  1.0000
  C   C354      1.0  0.24580  0.77812  0.99942  1.0000
  H   H560      1.0  0.23441  0.80147  0.88952  1.0000
  H   H561      1.0  0.14735  0.81482  0.81667  1.0000
  H   H562      1.0  0.12007  0.79797  0.10914  1.0000
  Fe  Fe73      1.0  0.24724  0.88228  0.13971  1.0000
  H   H563      1.0  0.13963  0.84008  0.18140  1.0000
  C   C355      1.0  0.06996  0.87714  0.83032  1.0000
  C   C356      1.0  0.34549  0.91928  0.12942  1.0000
  H   H564      1.0  0.23188  0.81523  0.94428  1.0000
  S   S145      1.0  0.24959  0.76524  0.17462  1.0000
  S   S146      1.0  0.25646  0.88240  0.97211  1.0000
  H   H565      1.0  0.32495  0.87206  0.11580  1.0000
  C   C357      1.0  0.37124  0.90161  0.19038  1.0000
  H   H566      1.0  0.19600  0.72256  0.85350  1.0000
  H   H567      1.0  0.36803  0.77396  0.21362  1.0000
  H   H568      1.0  0.17060  0.82328  0.08490  1.0000
  H   H569      1.0  0.26691  0.82526  0.00760  1.0000
  C   C358      1.0  0.28035  0.72619  0.10128  1.0000
  S   S147      1.0  0.21169  0.86727  0.09776  1.0000
  H   H570      1.0  0.37864  0.70504  0.03950  1.0000
  H   H571      1.0  0.17459  0.88641  0.15827  1.0000
  N   N36       1.0  0.34596  0.89460  0.16814  1.0000
  H   H572      1.0  0.25931  0.83544  0.87244  1.0000
  C   C359      1.0  0.27873  0.71676  0.99074  1.0000
  C   C360      1.0  0.13181  0.78956  0.09780  1.0000
  Fe  Fe74      1.0  0.28863  0.89640  0.02332  1.0000
  C   C361      1.0  0.28166  0.80374  0.90098  1.0000
  H   H573      1.0  0.20332  0.80572  0.20060  1.0000
  C   C362      1.0  0.28011  0.82374  0.97350  1.0000
  H   H574      1.0  0.16010  0.69726  0.12110  1.0000
  C   C363      1.0  0.14535  0.82136  0.92540  1.0000
  C   C364      1.0  0.12821  0.70104  0.80301  1.0000
  H   H575      1.0  0.17365  0.75860  0.06111  1.0000
  C   C365      1.0  0.13365  0.75301  0.08538  1.0000
  H   H576      1.0  0.16642  0.83307  0.89371  1.0000
  Fe  Fe75      1.0  0.23899  0.90314  0.00579  1.0000
  H   H577      1.0  0.13320  0.73474  0.97983  1.0000
  H   H578      1.0  0.11191  0.80173  0.81906  1.0000
  C   C366      1.0  0.29423  0.74299  0.98541  1.0000
  S   S148      1.0  0.37742  0.72350  0.82741  1.0000
  S   S149      1.0  0.33223  0.91109  0.97946  1.0000
  C   C367      1.0  0.29496  0.74772  0.04075  1.0000
  C   C368      1.0  0.15723  0.88561  0.24512  1.0000
  H   H579      1.0  0.15997  0.80443  0.22711  1.0000
  C   C369      1.0  0.34476  0.74236  0.77502  1.0000
  H   H580      1.0  0.09309  0.78281  0.96716  1.0000
  H   H581      1.0  0.34625  0.93078  0.15786  1.0000
  C   C370      1.0  0.17108  0.92852  0.05285  1.0000
  H   H582      1.0  0.23269  0.76356  0.98116  1.0000
  C   C371      1.0  0.36764  0.70517  0.00077  1.0000
  H   H583      1.0  0.18505  0.77374  0.19887  1.0000
  H   H584      1.0  0.28321  0.93717  0.16920  1.0000
  H   H585      1.0  0.33432  0.72197  0.03448  1.0000
  H   H586      1.0  0.11483  0.84325  0.81287  1.0000
  H   H587      1.0  0.34578  0.77045  0.12479  1.0000
  H   H588      1.0  0.13080  0.91123  0.95431  1.0000
  H   H589      1.0  0.08087  0.87108  0.09269  1.0000
  H   H590      1.0  0.37478  0.72648  0.96805  1.0000
  H   H591      1.0  0.29412  0.84427  0.93513  1.0000
  H   H592      1.0  0.29528  0.79719  0.92499  1.0000
  H   H593      1.0  0.28067  0.72982  0.14413  1.0000
  S   S150      1.0  0.37999  0.83135  0.17680  1.0000
  S   S151      1.0  0.18379  0.91784  0.22806  1.0000
  S   S152      1.0  0.12347  0.92970  0.04827  1.0000
  H   H594      1.0  0.14251  0.80155  0.95824  1.0000
  S   S153      1.0  0.38890  0.83301  0.96374  1.0000
  C   C372      1.0  0.17102  0.91625  0.94673  1.0000
  H   H595      1.0  0.12103  0.70386  0.84435  1.0000
  H   H596      1.0  0.20738  0.76827  0.83893  1.0000
  H   H597      1.0  0.38957  0.91397  0.14898  1.0000
  C   C373      1.0  0.21697  0.73754  0.21539  1.0000
  C   C374      1.0  0.16825  0.71564  0.22465  1.0000
  H   H598      1.0  0.29478  0.82362  0.85934  1.0000
  C   C375      1.0  0.35212  0.75589  0.12388  1.0000
  H   H599      1.0  0.23216  0.77857  0.03493  1.0000
  H   H600      1.0  0.25801  0.77027  0.02682  1.0000
  N   N37       1.0  0.37772  0.76145  0.14415  1.0000
  C   C376      1.0  0.32215  0.87741  0.22474  1.0000
  H   H601      1.0  0.33018  0.71141  0.94118  1.0000
  Fe  Fe76      1.0  0.27702  0.77095  0.24153  1.0000
  C   C377      1.0  0.15827  0.87463  0.20193  1.0000
  H   H602      1.0  0.29272  0.81666  0.00128  1.0000
  S   S154      1.0  0.36261  0.80014  0.87647  1.0000
  C   C378      1.0  0.14849  0.91643  0.97370  1.0000
  H   H603      1.0  0.17096  0.91163  0.90549  1.0000
  H   H604      1.0  0.36962  0.72108  0.17388  1.0000
  S   S155      1.0  0.09025  0.91213  0.78665  1.0000
  H   H605      1.0  0.30523  0.75951  0.93842  1.0000
  H   H606      1.0  0.20823  0.77863  0.24911  1.0000
  N   N38       1.0  0.26356  0.80511  0.94642  1.0000
  H   H607      1.0  0.34083  0.70218  0.10411  1.0000
  C   C379      1.0  0.09716  0.80272  0.93161  1.0000
  H   H608      1.0  0.30267  0.87069  0.20995  1.0000
  C   C380      1.0  0.17545  0.79230  0.07318  1.0000
  H   H609      1.0  0.32666  0.91446  0.11176  1.0000
  H   H610      1.0  0.12279  0.78347  0.88146  1.0000
  C   C381      1.0  0.34497  0.88018  0.12802  1.0000
  C   C382      1.0  0.07114  0.86047  0.80331  1.0000
  H   H611      1.0  0.17140  0.93388  0.09295  1.0000
  H   H612      1.0  0.24863  0.91528  0.83604  1.0000
  H   H613      1.0  0.08599  0.89879  0.18263  1.0000
  H   H614      1.0  0.34841  0.86314  0.15264  1.0000
  C   C383      1.0  0.07764  0.75379  0.78282  1.0000
  H   H615      1.0  0.23922  0.93126  0.14150  1.0000
  H   H616      1.0  0.21064  0.93168  0.04796  1.0000
  H   H617      1.0  0.39282  0.76358  0.22724  1.0000
  H   H618      1.0  0.20224  0.70942  0.05051  1.0000
  H   H619      1.0  0.37180  0.88334  0.22135  1.0000
  S   S156      1.0  0.31090  0.76187  0.23903  1.0000
  H   H620      1.0  0.39388  0.80397  0.09966  1.0000
  H   H621      1.0  0.08445  0.75590  0.82459  1.0000
  H   H622      1.0  0.24376  0.92789  0.24843  1.0000
  H   H623      1.0  0.08139  0.70127  0.80205  1.0000
  H   H624      1.0  0.36003  0.76158  0.77192  1.0000
  C   C384      1.0  0.08975  0.69923  0.76056  1.0000
  H   H625      1.0  0.36175  0.94438  0.84554  1.0000
  H   H626      1.0  0.06368  0.73125  0.01948  1.0000
  H   H627      1.0  0.12414  0.74535  0.76648  1.0000
  H   H628      1.0  0.35740  0.73897  0.24525  1.0000
  H   H629      1.0  0.23837  0.83408  0.24307  1.0000
  H   H630      1.0  0.07800  0.83459  0.19035  1.0000
  H   H631      1.0  0.08427  0.86919  0.75580  1.0000
  C   C385      1.0  0.32114  0.73970  0.75475  1.0000
  H   H632      1.0  0.12553  0.75124  0.68362  1.0000
  Fe  Fe77      1.0  0.09517  0.77351  0.52639  1.0000
  H   H633      1.0  0.17539  0.83627  0.55173  1.0000
  S   S157      1.0  0.28544  0.81081  0.40394  1.0000
  H   H634      1.0  0.25539  0.80565  0.30868  1.0000
  H   H635      1.0  0.13314  0.77672  0.29579  1.0000
  H   H636      1.0  0.26428  0.77568  0.63028  1.0000
  C   C386      1.0  0.11837  0.83254  0.27305  1.0000
  C   C387      1.0  0.26052  0.86484  0.34166  1.0000
  H   H637      1.0  0.20371  0.86279  0.37568  1.0000
  H   H638      1.0  0.29112  0.87006  0.63581  1.0000
  H   H639      1.0  0.34434  0.74342  0.55522  1.0000
  C   C388      1.0  0.33359  0.81158  0.59137  1.0000
  N   N39       1.0  0.31065  0.70336  0.58628  1.0000
  H   H640      1.0  0.23952  0.77665  0.53855  1.0000
  C   C389      1.0  0.15654  0.86415  0.47000  1.0000
  C   C390      1.0  0.17478  0.75549  0.52181  1.0000
  S   S158      1.0  0.37485  0.80290  0.48527  1.0000
  C   C391      1.0  0.34921  0.88392  0.72341  1.0000
  S   S159      1.0  0.27078  0.71099  0.73876  1.0000
  Fe  Fe78      1.0  0.29272  0.79181  0.34373  1.0000
  H   H641      1.0  0.38698  0.94404  0.50948  1.0000
  C   C392      1.0  0.29177  0.71228  0.55961  1.0000
  C   C393      1.0  0.12704  0.90102  0.57379  1.0000
  S   S160      1.0  0.23180  0.86734  0.61702  1.0000
  H   H642      1.0  0.08658  0.93550  0.52817  1.0000
  N   N40       1.0  0.18143  0.86299  0.45428  1.0000
  H   H643      1.0  0.19674  0.83599  0.49138  1.0000
  S   S161      1.0  0.24262  0.82835  0.74195  1.0000
  H   H644      1.0  0.10764  0.90005  0.57378  1.0000
  H   H645      1.0  0.22949  0.71866  0.29585  1.0000
  H   H646      1.0  0.11109  0.79225  0.71448  1.0000
  H   H647      1.0  0.20316  0.88514  0.50604  1.0000
  H   H648      1.0  0.06660  0.87876  0.53728  1.0000
  C   C394      1.0  0.18585  0.78377  0.57929  1.0000
  H   H649      1.0  0.28285  0.81545  0.52422  1.0000
  H   H650      1.0  0.14737  0.76627  0.55594  1.0000
  H   H651      1.0  0.16037  0.81997  0.50229  1.0000
  C   C395      1.0  0.18105  0.78864  0.32621  1.0000
  S   S162      1.0  0.35858  0.84586  0.70868  1.0000
  C   C396      1.0  0.28496  0.78464  0.63882  1.0000
  H   H652      1.0  0.35012  0.82531  0.54614  1.0000
  C   C397      1.0  0.13639  0.87015  0.30221  1.0000
  H   H653      1.0  0.30274  0.73109  0.51413  1.0000
  H   H654      1.0  0.18003  0.79342  0.60347  1.0000
  Fe  Fe79      1.0  0.24935  0.87018  0.70135  1.0000
  H   H655      1.0  0.30414  0.83634  0.55883  1.0000
  C   C398      1.0  0.08403  0.77114  0.66690  1.0000
  C   C399      1.0  0.33382  0.89664  0.72087  1.0000
  S   S163      1.0  0.26264  0.75168  0.34967  1.0000
  H   H656      1.0  0.08177  0.90963  0.46525  1.0000
  S   S164      1.0  0.32722  0.78363  0.34972  1.0000
  C   C400      1.0  0.13140  0.74167  0.72692  1.0000
  C   C401      1.0  0.11723  0.84333  0.31683  1.0000
  C   C402      1.0  0.17717  0.90286  0.57426  1.0000
  H   H657      1.0  0.22447  0.88566  0.44453  1.0000
  H   H658      1.0  0.26240  0.88164  0.35011  1.0000
  H   H659      1.0  0.13556  0.87856  0.33576  1.0000
  H   H660      1.0  0.35735  0.92675  0.57530  1.0000
  C   C403      1.0  0.21197  0.78692  0.57410  1.0000
  C   C404      1.0  0.24749  0.83840  0.28037  1.0000
  S   S165      1.0  0.12789  0.78836  0.44054  1.0000
  H   H661      1.0  0.31728  0.84680  0.64340  1.0000
  H   H662      1.0  0.15410  0.75234  0.71572  1.0000
  H   H663      1.0  0.28364  0.70349  0.29438  1.0000
  C   C405      1.0  0.17555  0.92370  0.52637  1.0000
  C   C406      1.0  0.31231  0.89101  0.69089  1.0000
  C   C407      1.0  0.32340  0.69813  0.53913  1.0000
  Fe  Fe80      1.0  0.29816  0.74495  0.34674  1.0000
  H   H664      1.0  0.10156  0.83104  0.36179  1.0000
  H   H665      1.0  0.34634  0.71821  0.62155  1.0000
  H   H666      1.0  0.11017  0.86305  0.65623  1.0000
  H   H667      1.0  0.08381  0.87239  0.25316  1.0000
  S   S166      1.0  0.18166  0.80844  0.71983  1.0000
  H   H668      1.0  0.27908  0.85267  0.41734  1.0000
  Fe  Fe81      1.0  0.22325  0.82483  0.66070  1.0000
  S   S167      1.0  0.08777  0.73157  0.56834  1.0000
  H   H669      1.0  0.20668  0.74868  0.49357  1.0000
  C   C408      1.0  0.30437  0.78351  0.54470  1.0000
  C   C409      1.0  0.15349  0.88092  0.62076  1.0000
  H   H670      1.0  0.32317  0.72942  0.63421  1.0000
  H   H671      1.0  0.17109  0.73948  0.34124  1.0000
  S   S168      1.0  0.15173  0.73579  0.48895  1.0000
  H   H672      1.0  0.31992  0.79522  0.49755  1.0000
  C   C410      1.0  0.18547  0.86424  0.38875  1.0000
  H   H673      1.0  0.37999  0.85171  0.39079  1.0000
  C   C411      1.0  0.33208  0.72453  0.59991  1.0000
  C   C412      1.0  0.15040  0.92273  0.52653  1.0000
  C   C413      1.0  0.30726  0.87396  0.66049  1.0000
  H   H674      1.0  0.19662  0.90383  0.57563  1.0000
  Fe  Fe82      1.0  0.11871  0.74590  0.47990  1.0000
  H   H675      1.0  0.33791  0.90991  0.74431  1.0000
  N   N41       1.0  0.17011  0.77516  0.28415  1.0000
  H   H676      1.0  0.28153  0.71608  0.59441  1.0000
  C   C414      1.0  0.26999  0.84854  0.37952  1.0000
  N   N42       1.0  0.30649  0.80070  0.57771  1.0000
  H   H677      1.0  0.28545  0.79715  0.66416  1.0000
  H   H678      1.0  0.16476  0.78174  0.36820  1.0000
  S   S169      1.0  0.08792  0.73421  0.42409  1.0000
  H   H679      1.0  0.14715  0.73498  0.29222  1.0000
  H   H680      1.0  0.13818  0.84740  0.46723  1.0000
  S   S170      1.0  0.29578  0.70670  0.41193  1.0000
  H   H681      1.0  0.15829  0.88333  0.43654  1.0000
  H   H682      1.0  0.19040  0.81078  0.29992  1.0000
  S   S171      1.0  0.23591  0.80674  0.60523  1.0000
  C   C415      1.0  0.26898  0.82777  0.36610  1.0000
  Fe  Fe83      1.0  0.19158  0.85115  0.68419  1.0000
  H   H683      1.0  0.13986  0.73862  0.36375  1.0000
  C   C416      1.0  0.30304  0.82303  0.53566  1.0000
  S   S172      1.0  0.09580  0.79882  0.29186  1.0000
  C   C417      1.0  0.39459  0.85699  0.41890  1.0000
  H   H684      1.0  0.20800  0.90532  0.42282  1.0000
  C   C418      1.0  0.09260  0.77427  0.72083  1.0000
  C   C419      1.0  0.21932  0.77417  0.54324  1.0000
  H   H685      1.0  0.33778  0.79536  0.61890  1.0000
  C   C420      1.0  0.39626  0.83675  0.46833  1.0000
  H   H686      1.0  0.30752  0.76681  0.57431  1.0000
  H   H687      1.0  0.33431  0.71621  0.49227  1.0000
  H   H688      1.0  0.28724  0.76790  0.67214  1.0000
  Fe  Fe84      1.0  0.09393  0.77541  0.39307  1.0000
  C   C421      1.0  0.16739  0.76837  0.55233  1.0000
  C   C422      1.0  0.15646  0.74577  0.32200  1.0000
  C   C423      1.0  0.13012  0.70871  0.69187  1.0000
  S   S173      1.0  0.15378  0.85380  0.67970  1.0000
  C   C424      1.0  0.32236  0.86104  0.66386  1.0000
  H   H689      1.0  0.33542  0.82317  0.62001  1.0000
  C   C425      1.0  0.12852  0.88008  0.62045  1.0000
  C   C426      1.0  0.34278  0.86532  0.69694  1.0000
  C   C427      1.0  0.20536  0.88585  0.45693  1.0000
  H   H690      1.0  0.38377  0.81532  0.30832  1.0000
  C   C428      1.0  0.20071  0.75832  0.51763  1.0000
  C   C429      1.0  0.17845  0.83773  0.50183  1.0000
  H   H691      1.0  0.07171  0.90532  0.60244  1.0000
  C   C430      1.0  0.21247  0.71807  0.27623  1.0000
  H   H692      1.0  0.19672  0.78422  0.34585  1.0000
  C   C431      1.0  0.25010  0.86024  0.29069  1.0000
  H   H693      1.0  0.28404  0.77469  0.53437  1.0000
  C   C432      1.0  0.37916  0.94289  0.55663  1.0000
  C   C433      1.0  0.15026  0.78244  0.25715  1.0000
  H   H694      1.0  0.18842  0.88338  0.35161  1.0000
  S   S174      1.0  0.10405  0.79508  0.58916  1.0000
  H   H695      1.0  0.15232  0.86226  0.52005  1.0000
  S   S175      1.0  0.29020  0.90333  0.69531  1.0000
  H   H696      1.0  0.16757  0.84767  0.38435  1.0000
  H   H697      1.0  0.39044  0.93641  0.59068  1.0000
  C   C434      1.0  0.25695  0.82219  0.31790  1.0000
  H   H698      1.0  0.31884  0.83544  0.48889  1.0000
  C   C435      1.0  0.16369  0.69711  0.28704  1.0000
  H   H699      1.0  0.12377  0.71680  0.64796  1.0000
  Fe  Fe85      1.0  0.18134  0.94479  0.26934  1.0000
  C   C436      1.0  0.06699  0.91843  0.56323  1.0000
  H   H700      1.0  0.36574  0.88818  0.74681  1.0000
  H   H701      1.0  0.08265  0.70800  0.71888  1.0000
  H   H702      1.0  0.19379  0.94077  0.49056  1.0000
  H   H703      1.0  0.15285  0.71913  0.67848  1.0000
  C   C437      1.0  0.18583  0.69793  0.31218  1.0000
  N   N43       1.0  0.11985  0.71266  0.74550  1.0000
  H   H704      1.0  0.31826  0.75684  0.73623  1.0000
  H   H705      1.0  0.27557  0.69694  0.54780  1.0000
  H   H706      1.0  0.26163  0.92429  0.75283  1.0000
  H   H707      1.0  0.12664  0.93877  0.66799  1.0000
  H   H708      1.0  0.12446  0.94448  0.58740  1.0000
  S   S176      1.0  0.39363  0.75267  0.46372  1.0000
  H   H709      1.0  0.32168  0.88815  0.25435  1.0000
  H   H710      1.0  0.32239  0.85917  0.25708  1.0000
  C   C438      1.0  0.68362  0.16141  0.17641  1.0000
  C   C439      1.0  0.47863  0.13007  0.82621  1.0000
  H   H711      1.0  0.44676  0.10806  0.12926  1.0000
  C   C440      1.0  0.68177  0.13432  0.81641  1.0000
  C   C441      1.0  0.71757  0.02451  0.22067  1.0000
  H   H712      1.0  0.43521  0.96398  0.88525  1.0000
  H   H713      1.0  0.65901  0.09562  0.89744  1.0000
  C   C442      1.0  0.66046  0.05848  0.75918  1.0000
  H   H714      1.0  0.60795  0.17526  0.81796  1.0000
  H   H715      1.0  0.59674  0.11453  0.12253  1.0000
  H   H716      1.0  0.60176  0.18441  0.88048  1.0000
  H   H717      1.0  0.52724  0.18538  0.25131  1.0000
  H   H718      1.0  0.57592  0.07914  0.24137  1.0000
  H   H719      1.0  0.67065  0.95926  0.05257  1.0000
  H   H720      1.0  0.58183  0.15032  0.89094  1.0000
  H   H721      1.0  0.40895  0.06226  0.19693  1.0000
  H   H722      1.0  0.57373  0.16161  0.75890  1.0000
  C   C443      1.0  0.47557  0.03046  0.84468  1.0000
  H   H723      1.0  0.71521  0.96710  0.00098  1.0000
  C   C444      1.0  0.40852  0.16886  0.98581  1.0000
  C   C445      1.0  0.67750  0.10930  0.85889  1.0000
  C   C446      1.0  0.54828  0.03850  0.76391  1.0000
  H   H724      1.0  0.44326  0.12852  0.05576  1.0000
  S   S177      1.0  0.53317  0.04623  0.19785  1.0000
  H   H725      1.0  0.64537  0.14850  0.09605  1.0000
  H   H726      1.0  0.65741  0.10701  0.02703  1.0000
  C   C447      1.0  0.45331  0.99432  0.95128  1.0000
  C   C448      1.0  0.67995  0.98413  0.84331  1.0000
  S   S178      1.0  0.48563  0.14274  0.20271  1.0000
  H   H727      1.0  0.60014  0.12042  0.03925  1.0000
  C   C449      1.0  0.72107  0.96580  0.04714  1.0000
  S   S179      1.0  0.67861  0.97721  0.22433  1.0000
  C   C450      1.0  0.45287  0.98466  0.85805  1.0000
  S   S180      1.0  0.58756  0.99674  0.78940  1.0000
  C   C451      1.0  0.55833  0.16025  0.79398  1.0000
  N   N44       1.0  0.57143  0.17781  0.82640  1.0000
  H   H728      1.0  0.47235  0.99352  0.95630  1.0000
  H   H729      1.0  0.54556  0.13884  0.82889  1.0000
  H   H730      1.0  0.49517  0.03090  0.84870  1.0000
  C   C452      1.0  0.63654  0.10430  0.03196  1.0000
  Fe  Fe86      1.0  0.54888  0.98464  0.85473  1.0000
  H   H731      1.0  0.42516  0.01808  0.89595  1.0000
  H   H732      1.0  0.40020  0.11129  0.02291  1.0000
  Fe  Fe87      1.0  0.44171  0.19533  0.22813  1.0000
  C   C453      1.0  0.39891  0.98116  0.12283  1.0000
  H   H733      1.0  0.47734  0.13272  0.87012  1.0000
  C   C454      1.0  0.46537  0.10766  0.24445  1.0000
  H   H734      1.0  0.58671  0.08699  0.10115  1.0000
  H   H735      1.0  0.54501  0.16609  0.76620  1.0000
  H   H736      1.0  0.63569  0.11638  0.98342  1.0000
  H   H737      1.0  0.49809  0.10119  0.22009  1.0000
  H   H738      1.0  0.69070  0.12817  0.19804  1.0000
  H   H739      1.0  0.54091  0.06591  0.78840  1.0000
  C   C455      1.0  0.72510  0.14423  0.75834  1.0000
  C   C456      1.0  0.72649  0.16556  0.13592  1.0000
  C   C457      1.0  0.69920  0.14955  0.17162  1.0000
  Fe  Fe88      1.0  0.42000  0.17575  0.12769  1.0000
  H   H740      1.0  0.64666  0.09362  0.76995  1.0000
  H   H741      1.0  0.42528  0.10770  0.76076  1.0000
  H   H742      1.0  0.40122  0.08175  0.03023  1.0000
  S   S181      1.0  0.45540  0.01704  0.20272  1.0000
  H   H743      1.0  0.42465  0.01026  0.82806  1.0000
  C   C458      1.0  0.42636  0.00376  0.87878  1.0000
  H   H744      1.0  0.67117  0.14516  0.05835  1.0000
  C   C459      1.0  0.42003  0.94868  0.76337  1.0000
  H   H745      1.0  0.61740  0.06612  0.76583  1.0000
  N   N45       1.0  0.63015  0.11261  0.08080  1.0000
  H   H746      1.0  0.45549  0.08690  0.87491  1.0000
  C   C460      1.0  0.69457  0.18897  0.14123  1.0000
  H   H747      1.0  0.53503  0.17780  0.85675  1.0000
  S   S182      1.0  0.46114  0.18536  0.07931  1.0000
  C   C461      1.0  0.59160  0.17165  0.85532  1.0000
  H   H748      1.0  0.47197  0.98377  0.86034  1.0000
  C   C462      1.0  0.41084  0.16468  0.93016  1.0000
  C   C463      1.0  0.69498  0.98291  0.79546  1.0000
  Fe  Fe89      1.0  0.56409  0.95697  0.78655  1.0000
  S   S183      1.0  0.55927  0.96554  0.94524  1.0000
  C   C464      1.0  0.65275  0.99356  0.77123  1.0000
  H   H749      1.0  0.55958  0.18609  0.90284  1.0000
  C   C465      1.0  0.43685  0.10745  0.08879  1.0000
  N   N46       1.0  0.45201  0.00329  0.88325  1.0000
  H   H750      1.0  0.40817  0.98364  0.90785  1.0000
  C   C466      1.0  0.60224  0.10850  0.08601  1.0000
  C   C467      1.0  0.69635  0.10129  0.84941  1.0000
  C   C468      1.0  0.46646  0.10420  0.82893  1.0000
  H   H751      1.0  0.67073  0.06715  0.79176  1.0000
  H   H752      1.0  0.61695  0.07461  0.16089  1.0000
  C   C469      1.0  0.49103  0.15246  0.76656  1.0000
  H   H753      1.0  0.47515  0.04535  0.86065  1.0000
  C   C470      1.0  0.68986  0.00504  0.24187  1.0000
  H   H754      1.0  0.45312  0.00827  0.97126  1.0000
  H   H755      1.0  0.40237  0.99046  0.02187  1.0000
  H   H756      1.0  0.43069  0.17407  0.89798  1.0000
  H   H757      1.0  0.43557  0.97411  0.98216  1.0000
  H   H758      1.0  0.40489  0.10159  0.19094  1.0000
  Fe  Fe90      1.0  0.43804  0.97492  0.21300  1.0000
  H   H759      1.0  0.64099  0.03977  0.78957  1.0000
  C   C471      1.0  0.72695  0.04674  0.23507  1.0000
  N   N47       1.0  0.40681  0.09070  0.11256  1.0000
  H   H760      1.0  0.64965  0.15404  0.01292  1.0000
  C   C472      1.0  0.65844  0.98892  0.83175  1.0000
  H   H761      1.0  0.63627  0.99734  0.76169  1.0000
  C   C473      1.0  0.46745  0.10069  0.77212  1.0000
  S   S184      1.0  0.65621  0.14253  0.82396  1.0000
  Fe  Fe91      1.0  0.59623  0.97485  0.87844  1.0000
  H   H762      1.0  0.53931  0.15193  0.91398  1.0000
  C   C474      1.0  0.72003  0.11859  0.79876  1.0000
  H   H763      1.0  0.62736  0.10236  0.18169  1.0000
  S   S185      1.0  0.44803  0.06848  0.77600  1.0000
  H   H764      1.0  0.72626  0.18848  0.92358  1.0000
  H   H765      1.0  0.62185  0.08280  0.04489  1.0000
  Fe  Fe92      1.0  0.46500  0.16729  0.17970  1.0000
  C   C475      1.0  0.39930  0.06296  0.15589  1.0000
  H   H766      1.0  0.63689  0.18650  0.02551  1.0000
  H   H767      1.0  0.71108  0.97850  0.80553  1.0000
  H   H768      1.0  0.42651  0.18199  0.99572  1.0000
  H   H769      1.0  0.69239  0.08148  0.88086  1.0000
  H   H770      1.0  0.68444  0.98052  0.88993  1.0000
  H   H771      1.0  0.65261  0.09888  0.14215  1.0000
  C   C476      1.0  0.63187  0.09638  0.14402  1.0000
  Fe  Fe93      1.0  0.48985  0.01261  0.23626  1.0000
  H   H772      1.0  0.71654  0.96641  0.16317  1.0000
  N   N48       1.0  0.69697  0.94764  0.10301  1.0000
  H   H773      1.0  0.47584  0.03758  0.79262  1.0000
  C   C477      1.0  0.55041  0.17316  0.87736  1.0000
  S   S186      1.0  0.53163  0.01187  0.84120  1.0000
  C   C478      1.0  0.70573  0.15190  0.76646  1.0000
  H   H774      1.0  0.68768  0.97854  0.09557  1.0000
  S   S187      1.0  0.42271  0.15485  0.22727  1.0000
  S   S188      1.0  0.63811  0.98786  0.89403  1.0000
  H   H775      1.0  0.45226  0.99118  0.80653  1.0000
  C   C479      1.0  0.64992  0.14129  0.06121  1.0000
  H   H776      1.0  0.44524  0.09952  0.06204  1.0000
  S   S189      1.0  0.50425  0.18458  0.76388  1.0000
  S   S190      1.0  0.47441  0.97179  0.23856  1.0000
  C   C480      1.0  0.67787  0.95804  0.09719  1.0000
  S   S191      1.0  0.65204  0.14228  0.23293  1.0000
  S   S192      1.0  0.42056  0.96764  0.13154  1.0000
  H   H777      1.0  0.40242  0.12286  0.11724  1.0000
  H   H778      1.0  0.40589  0.05363  0.13003  1.0000
  C   C481      1.0  0.47687  0.09180  0.24464  1.0000
  H   H779      1.0  0.59916  0.19654  0.01872  1.0000
  H   H780      1.0  0.41258  0.11224  0.36226  1.0000
  C   C482      1.0  0.71128  0.09567  0.52134  1.0000
  C   C483      1.0  0.49268  0.14902  0.70976  1.0000
  C   C484      1.0  0.52000  0.95466  0.60133  1.0000
  H   H781      1.0  0.68736  0.14825  0.39953  1.0000
  H   H782      1.0  0.51053  0.18043  0.32741  1.0000
  C   C485      1.0  0.68214  0.10244  0.67027  1.0000
  H   H783      1.0  0.57958  0.06594  0.51822  1.0000
  H   H784      1.0  0.68318  0.05312  0.57234  1.0000
  Fe  Fe94      1.0  0.68585  0.07870  0.33375  1.0000
  S   S193      1.0  0.64881  0.07351  0.29727  1.0000
  H   H785      1.0  0.49276  0.97712  0.53527  1.0000
  C   C486      1.0  0.58349  0.08356  0.64947  1.0000
  Fe  Fe95      1.0  0.61943  0.18568  0.64599  1.0000
  Fe  Fe96      1.0  0.65597  0.11020  0.30868  1.0000
  H   H786      1.0  0.66651  0.03249  0.31795  1.0000
  S   S194      1.0  0.63883  0.18736  0.55641  1.0000
  H   H787      1.0  0.44647  0.12950  0.64002  1.0000
  H   H788      1.0  0.67130  0.99341  0.41754  1.0000
  S   S195      1.0  0.41438  0.95613  0.31628  1.0000
  H   H789      1.0  0.69965  0.98984  0.39538  1.0000
  H   H790      1.0  0.52509  0.98909  0.48451  1.0000
  H   H791      1.0  0.43871  0.15594  0.36896  1.0000
  S   S196      1.0  0.46676  0.06542  0.51593  1.0000
  N   N49       1.0  0.55225  0.07552  0.46794  1.0000
  H   H792      1.0  0.66592  0.97223  0.56196  1.0000
  C   C487      1.0  0.56884  0.05831  0.27199  1.0000
  C   C488      1.0  0.57860  0.05814  0.65832  1.0000
  H   H793      1.0  0.66559  0.00210  0.51230  1.0000
  H   H794      1.0  0.54881  0.13015  0.55518  1.0000
  C   C489      1.0  0.56617  0.16057  0.59018  1.0000
  C   C490      1.0  0.41153  0.98988  0.52290  1.0000
  C   C491      1.0  0.53465  0.15838  0.52206  1.0000
  N   N50       1.0  0.68457  0.18270  0.39154  1.0000
  H   H795      1.0  0.40120  0.17820  0.45018  1.0000
  C   C492      1.0  0.54964  0.00438  0.35330  1.0000
  H   H796      1.0  0.56190  0.09466  0.53239  1.0000
  H   H797      1.0  0.54524  0.03850  0.54248  1.0000
  C   C493      1.0  0.63759  0.08432  0.73730  1.0000
  C   C494      1.0  0.66156  0.16670  0.44965  1.0000
  Fe  Fe97      1.0  0.45213  0.95624  0.34113  1.0000
  S   S197      1.0  0.51513  0.14325  0.47622  1.0000
  H   H798      1.0  0.65564  0.05982  0.64304  1.0000
  C   C495      1.0  0.53577  0.18128  0.52383  1.0000
  S   S198      1.0  0.44586  0.09157  0.59316  1.0000
  H   H799      1.0  0.42901  0.10746  0.27607  1.0000
  Fe  Fe98      1.0  0.47103  0.04128  0.60991  1.0000
  H   H800      1.0  0.71754  0.17984  0.35128  1.0000
  Fe  Fe99      1.0  0.66939  0.09204  0.43786  1.0000
  S   S199      1.0  0.63108  0.08856  0.41062  1.0000
  C   C496      1.0  0.71659  0.02833  0.43725  1.0000
  C   C497      1.0  0.57461  0.09935  0.41334  1.0000
  H   H801      1.0  0.54266  0.98354  0.38328  1.0000
  H   H802      1.0  0.42431  0.98527  0.55492  1.0000
  S   S200      1.0  0.43043  0.02899  0.66728  1.0000
  C   C498      1.0  0.57026  0.02458  0.36499  1.0000
  C   C499      1.0  0.50428  0.97136  0.50900  1.0000
  H   H803      1.0  0.67226  0.96384  0.46552  1.0000
  H   H804      1.0  0.71439  0.95386  0.41096  1.0000
  H   H805      1.0  0.52367  0.18911  0.49930  1.0000
  S   S201      1.0  0.48466  0.01150  0.61759  1.0000
  H   H806      1.0  0.51138  0.04423  0.48370  1.0000
  C   C500      1.0  0.55222  0.19388  0.55852  1.0000
  S   S202      1.0  0.41302  0.01622  0.34197  1.0000
  C   C501      1.0  0.68914  0.98732  0.73515  1.0000
  C   C502      1.0  0.57978  0.05155  0.32440  1.0000
  S   S203      1.0  0.47018  0.99700  0.34048  1.0000
  H   H807      1.0  0.56822  0.11411  0.38826  1.0000
  C   C503      1.0  0.56817  0.08582  0.69421  1.0000
  C   C504      1.0  0.67911  0.99406  0.53064  1.0000
  H   H808      1.0  0.46998  0.05172  0.27451  1.0000
  H   H809      1.0  0.63997  0.08017  0.62429  1.0000
  S   S204      1.0  0.67071  0.16067  0.64118  1.0000
  C   C505      1.0  0.68080  0.03031  0.29089  1.0000
  H   H810      1.0  0.59541  0.06727  0.33356  1.0000
  C   C506      1.0  0.70432  0.06872  0.55070  1.0000
  C   C507      1.0  0.68506  0.98595  0.43723  1.0000
  H   H811      1.0  0.70402  0.03745  0.41832  1.0000
  H   H812      1.0  0.49765  0.97554  0.71071  1.0000
  S   S205      1.0  0.70689  0.98395  0.67727  1.0000
  H   H813      1.0  0.64997  0.99301  0.29299  1.0000
  C   C508      1.0  0.54813  0.03807  0.26064  1.0000
  H   H814      1.0  0.66890  0.16480  0.49428  1.0000
  Fe  Fe100     1.0  0.62598  0.05187  0.40139  1.0000
  H   H815      1.0  0.41464  0.00985  0.51618  1.0000
  C   C509      1.0  0.56771  0.18372  0.59118  1.0000
  H   H816      1.0  0.53629  0.09769  0.49292  1.0000
  H   H817      1.0  0.69656  0.09805  0.64882  1.0000
  H   H818      1.0  0.68915  0.00365  0.56192  1.0000
  C   C510      1.0  0.70855  0.04971  0.26982  1.0000
  C   C511      1.0  0.53844  0.01113  0.30147  1.0000
  H   H819      1.0  0.69208  0.11259  0.70067  1.0000
  H   H820      1.0  0.41865  0.09659  0.43743  1.0000
  C   C512      1.0  0.55102  0.06347  0.75204  1.0000
  H   H821      1.0  0.58955  0.05596  0.62289  1.0000
  H   H822      1.0  0.56735  0.04929  0.46693  1.0000
  H   H823      1.0  0.42880  0.14096  0.58514  1.0000
  H   H824      1.0  0.57780  0.15239  0.61556  1.0000
  S   S206      1.0  0.61061  0.11244  0.58657  1.0000
  S   S207      1.0  0.66244  0.05342  0.43733  1.0000
  C   C513      1.0  0.43314  0.13843  0.63303  1.0000
  H   H825      1.0  0.58116  0.09377  0.37704  1.0000
  H   H826      1.0  0.44313  0.13938  0.44607  1.0000
  S   S208      1.0  0.58435  0.01634  0.42987  1.0000
  C   C514      1.0  0.46092  0.06374  0.27534  1.0000
  H   H827      1.0  0.67946  0.11697  0.62963  1.0000
  H   H828      1.0  0.70923  0.17136  0.73381  1.0000
  H   H829      1.0  0.70467  0.96629  0.53538  1.0000
  S   S209      1.0  0.69510  0.11741  0.33662  1.0000
  C   C515      1.0  0.46410  0.98135  0.68652  1.0000
  Fe  Fe101     1.0  0.45293  0.06671  0.68089  1.0000
  H   H830      1.0  0.72857  0.03889  0.46506  1.0000
  C   C516      1.0  0.56153  0.05648  0.50022  1.0000
  H   H831      1.0  0.54158  0.97120  0.57806  1.0000
  C   C517      1.0  0.54957  0.14784  0.55607  1.0000
  N   N51       1.0  0.69943  0.99913  0.47728  1.0000
  H   H832      1.0  0.52093  0.07600  0.41937  1.0000
  C   C518      1.0  0.52862  0.06231  0.44374  1.0000
  N   N52       1.0  0.50553  0.94789  0.55320  1.0000
  C   C519      1.0  0.40447  0.10289  0.41528  1.0000
  S   S210      1.0  0.68580  0.10423  0.51378  1.0000
  C   C520      1.0  0.43795  0.09534  0.27632  1.0000
  H   H833      1.0  0.64826  0.14594  0.45459  1.0000
  C   C521      1.0  0.48143  0.12309  0.71266  1.0000
  S   S211      1.0  0.60891  0.14359  0.70778  1.0000
  C   C522      1.0  0.64291  0.06575  0.66469  1.0000
  Fe  Fe102     1.0  0.48583  0.10011  0.54231  1.0000
  S   S212      1.0  0.44869  0.19634  0.68860  1.0000
  H   H834      1.0  0.53403  0.05567  0.40846  1.0000
  C   C523      1.0  0.70040  0.16895  0.39488  1.0000
  H   H835      1.0  0.49419  0.96720  0.47078  1.0000
  C   C524      1.0  0.42909  0.14524  0.42172  1.0000
  H   H836      1.0  0.59277  0.10975  0.43000  1.0000
  H   H837      1.0  0.52827  0.06638  0.55766  1.0000
  C   C525      1.0  0.43605  0.97138  0.70522  1.0000
  C   C526      1.0  0.54430  0.08398  0.51458  1.0000
  Fe  Fe103     1.0  0.62977  0.14583  0.61857  1.0000
  C   C527      1.0  0.43345  0.05137  0.30696  1.0000
  C   C528      1.0  0.71690  0.98821  0.50406  1.0000
  C   C529      1.0  0.66837  0.99321  0.72258  1.0000
  H   H838      1.0  0.55702  0.01597  0.72200  1.0000
  S   S213      1.0  0.49386  0.07704  0.63127  1.0000
  N   N53       1.0  0.65576  0.07773  0.70798  1.0000
  H   H839      1.0  0.66055  0.16531  0.33393  1.0000
  Fe  Fe104     1.0  0.43443  0.99841  0.30714  1.0000
  H   H840      1.0  0.48284  0.12049  0.66872  1.0000
  C   C530      1.0  0.42208  0.06722  0.30834  1.0000
  H   H841      1.0  0.53501  0.16992  0.32443  1.0000
  C   C531      1.0  0.41478  0.11946  0.74768  1.0000
  H   H842      1.0  0.50281  0.16635  0.66366  1.0000
  H   H843      1.0  0.40471  0.08419  0.69805  1.0000
  H   H844      1.0  0.52254  0.99540  0.29262  1.0000
  H   H845      1.0  0.40085  0.05772  0.33293  1.0000
  H   H846      1.0  0.66371  0.99659  0.67616  1.0000
  H   H847      1.0  0.63359  0.09870  0.69980  1.0000
  H   H848      1.0  0.44524  0.15885  0.63097  1.0000
  H   H849      1.0  0.42675  0.98132  0.67514  1.0000
  H   H850      1.0  0.70936  0.16727  0.43724  1.0000
  H   H851      1.0  0.41960  0.99208  0.47462  1.0000
  Fe  Fe105     1.0  0.42725  0.05492  0.57454  1.0000
  C   C532      1.0  0.56074  0.03557  0.71526  1.0000
  H   H852      1.0  0.42803  0.16004  0.43705  1.0000
  H   H853      1.0  0.56971  0.10485  0.68469  1.0000
  H   H854      1.0  0.64857  0.17590  0.44826  1.0000
  H   H855      1.0  0.62257  0.04768  0.69046  1.0000
  C   C533      1.0  0.67382  0.18526  0.33360  1.0000
  Fe  Fe106     1.0  0.65024  0.16125  0.72634  1.0000
  H   H856      1.0  0.40138  0.15458  0.67376  1.0000
  N   N54       1.0  0.40179  0.12163  0.43720  1.0000
  C   C534      1.0  0.53034  0.18598  0.29838  1.0000
  C   C535      1.0  0.72472  0.06187  0.55065  1.0000
  H   H857      1.0  0.42821  0.13937  0.74713  1.0000
  S   S214      1.0  0.56620  0.95107  0.69646  1.0000
  H   H858      1.0  0.72816  0.99796  0.53412  1.0000
  N   N55       1.0  0.40781  0.12174  0.68550  1.0000
  H   H859      1.0  0.67365  0.05266  0.73866  1.0000
  C   C536      1.0  0.67146  0.00786  0.27719  1.0000
  H   H860      1.0  0.71941  0.04109  0.57385  1.0000
  C   C537      1.0  0.40665  0.19035  0.52731  1.0000
  S   S215      1.0  0.72055  0.07756  0.28745  1.0000
  Fe  Fe107     1.0  0.71953  0.95528  0.73520  1.0000
  H   H861      1.0  0.40205  0.09989  0.53351  1.0000
  C   C538      1.0  0.47590  0.96775  0.72453  1.0000
  H   H862      1.0  0.50999  0.96116  0.62895  1.0000
  H   H863      1.0  0.54172  0.95715  0.49111  1.0000
  H   H864      1.0  0.66177  0.19556  0.32974  1.0000
  N   N56       1.0  0.46508  0.40429  0.05026  1.0000
  H   H865      1.0  0.63448  0.28676  0.01521  1.0000
  C   C539      1.0  0.49790  0.31861  0.00117  1.0000
  H   H866      1.0  0.44625  0.29590  0.06958  1.0000
  H   H867      1.0  0.68887  0.41742  0.94395  1.0000
  H   H868      1.0  0.48014  0.43589  0.95411  1.0000
  H   H869      1.0  0.47948  0.40464  0.83306  1.0000
  H   H870      1.0  0.48033  0.29692  0.15348  1.0000
  H   H871      1.0  0.47611  0.30270  0.91176  1.0000
  H   H872      1.0  0.63896  0.43888  0.96537  1.0000
  Fe  Fe108     1.0  0.57186  0.43237  0.93404  1.0000
  H   H873      1.0  0.41729  0.26277  0.82074  1.0000
  H   H874      1.0  0.67034  0.25258  0.98202  1.0000
  C   C540      1.0  0.70295  0.38957  0.85608  1.0000
  H   H875      1.0  0.65805  0.39404  0.88624  1.0000
  Fe  Fe109     1.0  0.61046  0.27984  0.85756  1.0000
  S   S216      1.0  0.50752  0.26493  0.02232  1.0000
  H   H876      1.0  0.43855  0.40282  0.12350  1.0000
  C   C541      1.0  0.56969  0.35716  0.95116  1.0000
  C   C542      1.0  0.55006  0.25771  0.05235  1.0000
  N   N57       1.0  0.50738  0.25513  0.85556  1.0000
  S   S217      1.0  0.72584  0.28752  0.82657  1.0000
  C   C543      1.0  0.45252  0.29055  0.23327  1.0000
  H   H877      1.0  0.59527  0.23883  0.24496  1.0000
  C   C544      1.0  0.46173  0.29943  0.95306  1.0000
  H   H878      1.0  0.50892  0.33450  0.01784  1.0000
  S   S218      1.0  0.59236  0.23567  0.91838  1.0000
  C   C545      1.0  0.58535  0.20622  0.77890  1.0000
  H   H879      1.0  0.53350  0.23879  0.88554  1.0000
  N   N58       1.0  0.66548  0.27580  0.02755  1.0000
  H   H880      1.0  0.63934  0.40209  0.22036  1.0000
  H   H881      1.0  0.50001  0.35039  0.88165  1.0000
  Fe  Fe110     1.0  0.61282  0.34596  0.25082  1.0000
  C   C546      1.0  0.67147  0.41797  0.96635  1.0000
  H   H882      1.0  0.69546  0.31755  0.99362  1.0000
  H   H883      1.0  0.67056  0.30397  0.06709  1.0000
  H   H884      1.0  0.48364  0.27472  0.84221  1.0000
  C   C547      1.0  0.72689  0.35840  0.78300  1.0000
  S   S219      1.0  0.43238  0.41075  0.83687  1.0000
  H   H885      1.0  0.69781  0.26726  0.01631  1.0000
  H   H886      1.0  0.51300  0.32076  0.96348  1.0000
  H   H887      1.0  0.46470  0.33100  0.04957  1.0000
  C   C548      1.0  0.48561  0.23042  0.85442  1.0000
  H   H888      1.0  0.49654  0.36346  0.93791  1.0000
  C   C549      1.0  0.57322  0.26308  0.07645  1.0000
  C   C550      1.0  0.56187  0.37657  0.93293  1.0000
  C   C551      1.0  0.57035  0.29788  0.09654  1.0000
  C   C552      1.0  0.59869  0.43952  0.18040  1.0000
  H   H889      1.0  0.57795  0.31318  0.11429  1.0000
  H   H890      1.0  0.58311  0.25150  0.07833  1.0000
  C   C553      1.0  0.49505  0.26862  0.87629  1.0000
  H   H891      1.0  0.55069  0.40029  0.85826  1.0000
  C   C554      1.0  0.64935  0.25207  0.08955  1.0000
  H   H892      1.0  0.70800  0.35900  0.77511  1.0000
  H   H893      1.0  0.69027  0.39600  0.76753  1.0000
  S   S220      1.0  0.43571  0.21523  0.13246  1.0000
  H   H894      1.0  0.40988  0.43003  0.18649  1.0000
  H   H895      1.0  0.72173  0.33710  0.80269  1.0000
  C   C555      1.0  0.63745  0.20095  0.98081  1.0000
  H   H896      1.0  0.65837  0.29839  0.94223  1.0000
  C   C556      1.0  0.66073  0.23379  0.87050  1.0000
  H   H897      1.0  0.54217  0.24201  0.03586  1.0000
  H   H898      1.0  0.69776  0.41576  0.24561  1.0000
  H   H899      1.0  0.45471  0.27906  0.99157  1.0000
  S   S221      1.0  0.66730  0.33576  0.17661  1.0000
  H   H900      1.0  0.62980  0.37690  0.95489  1.0000
  H   H901      1.0  0.48678  0.40924  0.96267  1.0000
  H   H902      1.0  0.49067  0.29897  0.04280  1.0000
  H   H903      1.0  0.56317  0.43801  0.10825  1.0000
  H   H904      1.0  0.59572  0.41923  0.19129  1.0000
  H   H905      1.0  0.63248  0.26367  0.98246  1.0000
  H   H906      1.0  0.63583  0.23406  0.08191  1.0000
  H   H907      1.0  0.43662  0.36372  0.06666  1.0000
  C   C557      1.0  0.45501  0.31620  0.02907  1.0000
  C   C558      1.0  0.61623  0.20681  0.97716  1.0000
  H   H908      1.0  0.48540  0.41217  0.12310  1.0000
  C   C559      1.0  0.63969  0.23985  0.86708  1.0000
  C   C560      1.0  0.68276  0.27056  0.99060  1.0000
  S   S222      1.0  0.42654  0.34693  0.81796  1.0000
  C   C561      1.0  0.44692  0.43181  0.20835  1.0000
  S   S223      1.0  0.60865  0.30702  0.89904  1.0000
  H   H909      1.0  0.53711  0.30393  0.07054  1.0000
  H   H910      1.0  0.55354  0.37968  0.78516  1.0000
  C   C562      1.0  0.70317  0.40530  0.79434  1.0000
  H   H911      1.0  0.68260  0.19822  0.14471  1.0000
  H   H912      1.0  0.63626  0.25556  0.11859  1.0000
  C   C563      1.0  0.66007  0.21491  0.92788  1.0000
  H   H913      1.0  0.53934  0.26650  0.90392  1.0000
  H   H914      1.0  0.57375  0.35058  0.99792  1.0000
  S   S224      1.0  0.68126  0.35470  0.89307  1.0000
  N   N59       1.0  0.65332  0.41968  0.92324  1.0000
  Fe  Fe111     1.0  0.65196  0.33579  0.84072  1.0000
  H   H915      1.0  0.46879  0.24948  0.19592  1.0000
  S   S225      1.0  0.49468  0.43417  0.23228  1.0000
  C   C564      1.0  0.47157  0.41381  0.97946  1.0000
  Fe  Fe112     1.0  0.72683  0.24983  0.88000  1.0000
  H   H916      1.0  0.54267  0.29183  0.79023  1.0000
  C   C565      1.0  0.53730  0.27272  0.04924  1.0000
  H   H917      1.0  0.69725  0.29575  0.06788  1.0000
  C   C566      1.0  0.57812  0.21923  0.25061  1.0000
  H   H918      1.0  0.54931  0.40530  0.17313  1.0000
  S   S226      1.0  0.62468  0.35765  0.14473  1.0000
  H   H919      1.0  0.45306  0.40404  0.96297  1.0000
  H   H920      1.0  0.50994  0.23418  0.95036  1.0000
  H   H921      1.0  0.44373  0.29953  0.93619  1.0000
  H   H922      1.0  0.44913  0.36706  0.13456  1.0000
  H   H923      1.0  0.46872  0.34935  0.90350  1.0000
  C   C567      1.0  0.68297  0.29930  0.03968  1.0000
  H   H924      1.0  0.42462  0.39813  0.05782  1.0000
  S   S227      1.0  0.46170  0.32451  0.20243  1.0000
  S   S228      1.0  0.59545  0.29566  0.77351  1.0000
  H   H925      1.0  0.47306  0.23490  0.82141  1.0000
  C   C568      1.0  0.57210  0.34608  0.90912  1.0000
  Fe  Fe113     1.0  0.66735  0.37378  0.15672  1.0000
  C   C569      1.0  0.47540  0.44568  0.18737  1.0000
  C   C570      1.0  0.61772  0.22679  0.92082  1.0000
  C   C571      1.0  0.66910  0.44412  0.86221  1.0000
  H   H926      1.0  0.67750  0.24372  0.82855  1.0000
  Fe  Fe114     1.0  0.59781  0.32554  0.80959  1.0000
  S   S229      1.0  0.56734  0.33926  0.79820  1.0000
  H   H927      1.0  0.69450  0.28777  0.94266  1.0000
  Fe  Fe115     1.0  0.47695  0.22331  0.09246  1.0000
  H   H928      1.0  0.61680  0.42213  0.92366  1.0000
  H   H929      1.0  0.62793  0.39632  0.87734  1.0000
  S   S230      1.0  0.68823  0.21019  0.93509  1.0000
  C   C572      1.0  0.71972  0.40182  0.89035  1.0000
  C   C573      1.0  0.63095  0.42095  0.95479  1.0000
  C   C574      1.0  0.45119  0.30274  0.78994  1.0000
  H   H930      1.0  0.65866  0.26105  0.20834  1.0000
  C   C575      1.0  0.52321  0.24829  0.90074  1.0000
  C   C576      1.0  0.58330  0.28307  0.09881  1.0000
  H   H931      1.0  0.49421  0.21997  0.83770  1.0000
  H   H932      1.0  0.43773  0.31809  0.01201  1.0000
  H   H933      1.0  0.66049  0.39954  0.01241  1.0000
  H   H934      1.0  0.57760  0.33067  0.92400  1.0000
  H   H935      1.0  0.47155  0.21604  0.90309  1.0000
  H   H936      1.0  0.61856  0.40282  0.00106  1.0000
  C   C577      1.0  0.48631  0.42578  0.81627  1.0000
  H   H937      1.0  0.47095  0.37058  0.06892  1.0000
  C   C578      1.0  0.64682  0.28131  0.99029  1.0000
  C   C579      1.0  0.44369  0.40938  0.07044  1.0000
  C   C580      1.0  0.46516  0.28237  0.19862  1.0000
  S   S231      1.0  0.55701  0.38878  0.98740  1.0000
  S   S232      1.0  0.48419  0.20623  0.18875  1.0000
  H   H938      1.0  0.52895  0.43788  0.79563  1.0000
  S   S233      1.0  0.70695  0.25885  0.18369  1.0000
  C   C581      1.0  0.55398  0.42620  0.16097  1.0000
  C   C582      1.0  0.64176  0.39571  0.90979  1.0000
  C   C583      1.0  0.46723  0.43430  0.81498  1.0000
  C   C584      1.0  0.45504  0.37517  0.08121  1.0000
  H   H939      1.0  0.68023  0.43546  0.97862  1.0000
  H   H940      1.0  0.57653  0.22079  0.20130  1.0000
  H   H941      1.0  0.53508  0.26387  0.77217  1.0000
  C   C585      1.0  0.48978  0.41868  0.06997  1.0000
  C   C586      1.0  0.43739  0.27755  0.78904  1.0000
  S   S234      1.0  0.61099  0.28784  0.13318  1.0000
  Fe  Fe116     1.0  0.62340  0.31810  0.17479  1.0000
  C   C587      1.0  0.52579  0.27344  0.79042  1.0000
  N   N60       1.0  0.47500  0.32035  0.97650  1.0000
  H   H942      1.0  0.64040  0.25444  0.82251  1.0000
  C   C588      1.0  0.55843  0.37364  0.83112  1.0000
  H   H943      1.0  0.51100  0.28711  0.87875  1.0000
  H   H944      1.0  0.48057  0.25523  0.92479  1.0000
  Fe  Fe117     1.0  0.42913  0.38688  0.78067  1.0000
  C   C589      1.0  0.56609  0.35407  0.84948  1.0000
  C   C590      1.0  0.55683  0.38530  0.87239  1.0000
  S   S235      1.0  0.65468  0.30737  0.80488  1.0000
  H   H945      1.0  0.71918  0.38980  0.93869  1.0000
  S   S236      1.0  0.70266  0.41367  0.08964  1.0000
  N   N61       1.0  0.57246  0.43815  0.19754  1.0000
  H   H946      1.0  0.54186  0.23383  0.20827  1.0000
  H   H947      1.0  0.71226  0.38124  0.20202  1.0000
  C   C591      1.0  0.72200  0.20503  0.10642  1.0000
  H   H948      1.0  0.50632  0.41507  0.05629  1.0000
  C   C592      1.0  0.54735  0.29273  0.07154  1.0000
  H   H949      1.0  0.45030  0.43112  0.04705  1.0000
  C   C593      1.0  0.45869  0.25551  0.22284  1.0000
  H   H950      1.0  0.44154  0.30733  0.82185  1.0000
  H   H951      1.0  0.66288  0.24725  0.11858  1.0000
  C   C594      1.0  0.48547  0.34708  0.92274  1.0000
  H   H952      1.0  0.65605  0.44619  0.82850  1.0000
  C   C595      1.0  0.72007  0.43332  0.76733  1.0000
  H   H953      1.0  0.59434  0.22004  0.80228  1.0000
  H   H954      1.0  0.68622  0.44387  0.83715  1.0000
  C   C596      1.0  0.69621  0.26901  0.23674  1.0000
  H   H955      1.0  0.53433  0.42577  0.17090  1.0000
  H   H956      1.0  0.51493  0.28012  0.75565  1.0000
  C   C597      1.0  0.67135  0.26852  0.23787  1.0000
  H   H957      1.0  0.49802  0.44077  0.04714  1.0000
  C   C598      1.0  0.43182  0.44108  0.17085  1.0000
  H   H958      1.0  0.66899  0.44323  0.23318  1.0000
  C   C599      1.0  0.51427  0.44458  0.79487  1.0000
  H   H959      1.0  0.56126  0.25359  0.24780  1.0000
  H   H960      1.0  0.41308  0.44224  0.88026  1.0000
  H   H961      1.0  0.57091  0.21115  0.75382  1.0000
  S   S237      1.0  0.64095  0.35608  0.75356  1.0000
  S   S238      1.0  0.65563  0.36390  0.26092  1.0000
  C   C600      1.0  0.64436  0.27155  0.58674  1.0000
  H   H962      1.0  0.49960  0.31445  0.28178  1.0000
  C   C601      1.0  0.60610  0.38706  0.30027  1.0000
  H   H963      1.0  0.47448  0.25763  0.44491  1.0000
  S   S239      1.0  0.43169  0.24093  0.74293  1.0000
  H   H964      1.0  0.69186  0.32567  0.45331  1.0000
  H   H965      1.0  0.58226  0.34216  0.66935  1.0000
  H   H966      1.0  0.67090  0.32583  0.51386  1.0000
  S   S240      1.0  0.58569  0.35728  0.29248  1.0000
  S   S241      1.0  0.49094  0.36587  0.29892  1.0000
  C   C602      1.0  0.71241  0.27856  0.27560  1.0000
  H   H967      1.0  0.40449  0.24773  0.63415  1.0000
  H   H968      1.0  0.57610  0.37852  0.37910  1.0000
  H   H969      1.0  0.53154  0.32850  0.37870  1.0000
  H   H970      1.0  0.60210  0.21076  0.74112  1.0000
  H   H971      1.0  0.52570  0.26888  0.36234  1.0000
  H   H972      1.0  0.71722  0.29703  0.34165  1.0000
  H   H973      1.0  0.42055  0.44533  0.41757  1.0000
  H   H974      1.0  0.54948  0.38435  0.62540  1.0000
  H   H975      1.0  0.56991  0.35361  0.53547  1.0000
  H   H976      1.0  0.41957  0.43572  0.35207  1.0000
  H   H977      1.0  0.52565  0.22901  0.28452  1.0000
  S   S242      1.0  0.43514  0.36396  0.26103  1.0000
  H   H978      1.0  0.47609  0.25513  0.36989  1.0000
  C   C603      1.0  0.55895  0.35482  0.57471  1.0000
  H   H979      1.0  0.48411  0.28734  0.66941  1.0000
  H   H980      1.0  0.50571  0.30125  0.44885  1.0000
  Fe  Fe118     1.0  0.63944  0.32494  0.72279  1.0000
  H   H981      1.0  0.54650  0.33408  0.61344  1.0000
  C   C604      1.0  0.52055  0.38087  0.44944  1.0000
  H   H982      1.0  0.64278  0.25294  0.62293  1.0000
  S   S243      1.0  0.47914  0.32930  0.49096  1.0000
  H   H983      1.0  0.42007  0.28459  0.52626  1.0000
  C   C605      1.0  0.67614  0.27404  0.50725  1.0000
  H   H984      1.0  0.60158  0.28636  0.66615  1.0000
  H   H985      1.0  0.52555  0.37962  0.40512  1.0000
  C   C606      1.0  0.71643  0.42846  0.25705  1.0000
  S   S244      1.0  0.39889  0.37646  0.72190  1.0000
  N   N62       1.0  0.71525  0.41670  0.32632  1.0000
  C   C607      1.0  0.60205  0.30020  0.62063  1.0000
  S   S245      1.0  0.54949  0.30353  0.51012  1.0000
  H   H986      1.0  0.62763  0.26525  0.56240  1.0000
  H   H987      1.0  0.41540  0.29292  0.67826  1.0000
  H   H988      1.0  0.54833  0.29976  0.36706  1.0000
  Fe  Fe119     1.0  0.46257  0.21582  0.58084  1.0000
  S   S246      1.0  0.65393  0.33539  0.61857  1.0000
  S   S247      1.0  0.44880  0.36917  0.39443  1.0000
  H   H989      1.0  0.53474  0.32362  0.27518  1.0000
  H   H990      1.0  0.64044  0.28207  0.61311  1.0000
  Fe  Fe120     1.0  0.41523  0.34087  0.36730  1.0000
  H   H991      1.0  0.54918  0.35685  0.68857  1.0000
  H   H992      1.0  0.43652  0.41406  0.25355  1.0000
  H   H993      1.0  0.60429  0.34798  0.45312  1.0000
  C   C608      1.0  0.53627  0.40448  0.45667  1.0000
  H   H994      1.0  0.42760  0.31870  0.59737  1.0000
  S   S248      1.0  0.54971  0.43503  0.52542  1.0000
  H   H995      1.0  0.55315  0.21163  0.55960  1.0000
  C   C609      1.0  0.44939  0.27185  0.74612  1.0000
  C   C610      1.0  0.43325  0.27172  0.29220  1.0000
  H   H996      1.0  0.60779  0.36108  0.59443  1.0000
  S   S249      1.0  0.43039  0.20280  0.31057  1.0000
  H   H997      1.0  0.40906  0.30872  0.51075  1.0000
  Fe  Fe121     1.0  0.46108  0.36567  0.73250  1.0000
  H   H998      1.0  0.64558  0.36048  0.49560  1.0000
  H   H999      1.0  0.49628  0.31901  0.38335  1.0000
  H   H1000     1.0  0.58387  0.20373  0.27339  1.0000
  H   H1001     1.0  0.72153  0.36460  0.66329  1.0000
  C   C611      1.0  0.41486  0.42793  0.40554  1.0000
  S   S250      1.0  0.58977  0.20041  0.63114  1.0000
  N   N63       1.0  0.67138  0.28898  0.53995  1.0000
  H   H1002     1.0  0.71989  0.22227  0.34508  1.0000
  H   H1003     1.0  0.56037  0.27413  0.62464  1.0000
  S   S251      1.0  0.44406  0.42551  0.54272  1.0000
  S   S252      1.0  0.46591  0.40644  0.69961  1.0000
  S   S253      1.0  0.43462  0.35510  0.66673  1.0000
  H   H1004     1.0  0.46414  0.27595  0.38276  1.0000
  C   C612      1.0  0.67996  0.28940  0.31186  1.0000
  H   H1005     1.0  0.69239  0.43352  0.35057  1.0000
  S   S254      1.0  0.49321  0.35423  0.74582  1.0000
  C   C613      1.0  0.55582  0.21226  0.35319  1.0000
  S   S255      1.0  0.43149  0.31287  0.38034  1.0000
  C   C614      1.0  0.66323  0.27865  0.27541  1.0000
  C   C615      1.0  0.47722  0.32200  0.74902  1.0000
  C   C616      1.0  0.49244  0.36014  0.55773  1.0000
  C   C617      1.0  0.50763  0.38403  0.56410  1.0000
  C   C618      1.0  0.57933  0.31060  0.53708  1.0000
  H   H1006     1.0  0.64430  0.27887  0.27465  1.0000
  H   H1007     1.0  0.52275  0.27192  0.43702  1.0000
  H   H1008     1.0  0.50246  0.38524  0.60841  1.0000
  H   H1009     1.0  0.67599  0.25599  0.54203  1.0000
  C   C619      1.0  0.63218  0.40554  0.25883  1.0000
  S   S256      1.0  0.50246  0.24892  0.68424  1.0000
  C   C620      1.0  0.69143  0.41385  0.36458  1.0000
  H   H1010     1.0  0.69028  0.40556  0.41706  1.0000
  H   H1011     1.0  0.55562  0.40045  0.28083  1.0000
  H   H1012     1.0  0.69622  0.28671  0.47090  1.0000
  C   C621      1.0  0.72645  0.25051  0.62030  1.0000
  C   C622      1.0  0.57876  0.29310  0.59673  1.0000
  C   C623      1.0  0.63920  0.43468  0.31230  1.0000
  S   S257      1.0  0.71629  0.23764  0.51839  1.0000
  S   S258      1.0  0.65852  0.20345  0.67420  1.0000
  C   C624      1.0  0.42006  0.29701  0.62652  1.0000
  H   H1013     1.0  0.57647  0.39016  0.66556  1.0000
  C   C625      1.0  0.52982  0.40611  0.51403  1.0000
  Fe  Fe122     1.0  0.45433  0.33822  0.27660  1.0000
  Fe  Fe123     1.0  0.51267  0.26430  0.57710  1.0000
  C   C626      1.0  0.62593  0.32484  0.58517  1.0000
  N   N64       1.0  0.57809  0.37338  0.59874  1.0000
  C   C627      1.0  0.54490  0.23316  0.25624  1.0000
  S   S259      1.0  0.67186  0.30655  0.34815  1.0000
  S   S260      1.0  0.47017  0.25586  0.57188  1.0000
  Fe  Fe124     1.0  0.45944  0.23708  0.67956  1.0000
  Fe  Fe125     1.0  0.65187  0.32433  0.28057  1.0000
  Fe  Fe126     1.0  0.46625  0.34258  0.40142  1.0000
  H   H1014     1.0  0.72426  0.42085  0.55942  1.0000
  C   C628      1.0  0.56265  0.37633  0.64641  1.0000
  C   C629      1.0  0.51036  0.31113  0.39544  1.0000
  H   H1015     1.0  0.54463  0.36137  0.55499  1.0000
  C   C630      1.0  0.59579  0.39988  0.54417  1.0000
  H   H1016     1.0  0.60783  0.39850  0.50721  1.0000
  C   C631      1.0  0.51347  0.30638  0.29599  1.0000
  C   C632      1.0  0.47524  0.29117  0.70470  1.0000
  H   H1017     1.0  0.66019  0.26724  0.48137  1.0000
  Fe  Fe127     1.0  0.43588  0.39431  0.64219  1.0000
  C   C633      1.0  0.43958  0.23670  0.28199  1.0000
  H   H1018     1.0  0.57207  0.23210  0.34860  1.0000
  C   C634      1.0  0.69277  0.29741  0.57413  1.0000
  H   H1019     1.0  0.60899  0.37549  0.65055  1.0000
  C   C635      1.0  0.71271  0.39006  0.34523  1.0000
  H   H1020     1.0  0.71016  0.38011  0.39792  1.0000
  H   H1021     1.0  0.49746  0.43735  0.42034  1.0000
  H   H1022     1.0  0.57328  0.42940  0.29642  1.0000
  H   H1023     1.0  0.50850  0.33141  0.67250  1.0000
  H   H1024     1.0  0.69306  0.27994  0.61050  1.0000
  N   N65       1.0  0.50753  0.29238  0.36681  1.0000
  H   H1025     1.0  0.58350  0.40849  0.52008  1.0000
  C   C636      1.0  0.59628  0.39277  0.34690  1.0000
  H   H1026     1.0  0.51094  0.29273  0.27270  1.0000
  Fe  Fe128     1.0  0.47026  0.38991  0.28986  1.0000
  S   S261      1.0  0.44093  0.19843  0.51586  1.0000
  H   H1027     1.0  0.40594  0.20208  0.60498  1.0000
  S   S262      1.0  0.50581  0.22532  0.57909  1.0000
  N   N66       1.0  0.55229  0.21264  0.28958  1.0000
  H   H1028     1.0  0.69476  0.37638  0.33379  1.0000
  C   C637      1.0  0.47935  0.26931  0.39204  1.0000
  H   H1029     1.0  0.71089  0.38294  0.52814  1.0000
  H   H1030     1.0  0.42288  0.27769  0.31850  1.0000
  H   H1031     1.0  0.47559  0.34306  0.59709  1.0000
  H   H1032     1.0  0.69050  0.19729  0.28860  1.0000
  Fe  Fe129     1.0  0.49256  0.20927  0.68654  1.0000
  H   H1033     1.0  0.71505  0.22920  0.65053  1.0000
  C   C638      1.0  0.42693  0.24484  0.31680  1.0000
  C   C639      1.0  0.70235  0.20966  0.38854  1.0000
  S   S263      1.0  0.60771  0.30478  0.28043  1.0000
  C   C640      1.0  0.52690  0.28274  0.38384  1.0000
  C   C641      1.0  0.59507  0.36260  0.62948  1.0000
  C   C642      1.0  0.40280  0.28733  0.53979  1.0000
  H   H1034     1.0  0.69102  0.22054  0.38693  1.0000
  C   C643      1.0  0.70423  0.28871  0.31345  1.0000
  H   H1035     1.0  0.43729  0.29357  0.61750  1.0000
  H   H1036     1.0  0.71104  0.20848  0.43124  1.0000
  H   H1037     1.0  0.71332  0.31090  0.53987  1.0000
  C   C644      1.0  0.49887  0.35857  0.50040  1.0000
  C   C645      1.0  0.64883  0.42905  0.26549  1.0000
  H   H1038     1.0  0.68988  0.30885  0.59918  1.0000
  H   H1039     1.0  0.42365  0.43244  0.64899  1.0000
  C   C646      1.0  0.62703  0.34162  0.52369  1.0000
  H   H1040     1.0  0.61042  0.41440  0.56063  1.0000
  H   H1041     1.0  0.60521  0.42098  0.38885  1.0000
  H   H1042     1.0  0.65536  0.30751  0.46775  1.0000
  C   C647      1.0  0.60368  0.33460  0.49985  1.0000
  C   C648      1.0  0.48924  0.31611  0.70671  1.0000
  H   H1043     1.0  0.55333  0.42118  0.41799  1.0000
  H   H1044     1.0  0.41191  0.23033  0.36229  1.0000
  C   C649      1.0  0.61276  0.41670  0.35261  1.0000
  H   H1045     1.0  0.67198  0.40009  0.35735  1.0000
  C   C650      1.0  0.67234  0.31303  0.49162  1.0000
  H   H1046     1.0  0.54006  0.42016  0.28169  1.0000
  C   C651      1.0  0.55976  0.42130  0.26725  1.0000
  H   H1047     1.0  0.53660  0.20700  0.38412  1.0000
  H   H1048     1.0  0.42829  0.41965  0.42300  1.0000
  H   H1049     1.0  0.72019  0.44554  0.71968  1.0000
  Fe  Fe130     1.0  0.67737  0.20207  0.58818  1.0000
  H   H1050     1.0  0.56155  0.19709  0.37970  1.0000
  Fe  Fe131     1.0  0.40002  0.33810  0.75094  1.0000
  C   C652      1.0  0.71024  0.55314  0.77520  1.0000
  H   H1051     1.0  0.58793  0.47907  0.12977  1.0000
  H   H1052     1.0  0.50140  0.63422  0.03465  1.0000
  H   H1053     1.0  0.42699  0.60197  0.09713  1.0000
  H   H1054     1.0  0.68095  0.57749  0.93908  1.0000
  C   C653      1.0  0.51736  0.65982  0.76900  1.0000
  H   H1055     1.0  0.60621  0.68531  0.01490  1.0000
  N   N67       1.0  0.46433  0.63558  0.02890  1.0000
  Fe  Fe132     1.0  0.72510  0.61026  0.03367  1.0000
  S   S264      1.0  0.59762  0.45744  0.98037  1.0000
  C   C654      1.0  0.46711  0.60841  0.23396  1.0000
  S   S265      1.0  0.59971  0.45984  0.83461  1.0000
  H   H1056     1.0  0.46139  0.46830  0.79095  1.0000
  C   C655      1.0  0.44722  0.60667  0.07213  1.0000
  S   S266      1.0  0.51144  0.65332  0.22877  1.0000
  H   H1057     1.0  0.41474  0.44878  0.98065  1.0000
  C   C656      1.0  0.45071  0.64309  0.97862  1.0000
  C   C657      1.0  0.50107  0.63220  0.80630  1.0000
  Fe  Fe133     1.0  0.53011  0.62717  0.25264  1.0000
  C   C658      1.0  0.47359  0.47740  0.09082  1.0000
  Fe  Fe134     1.0  0.60947  0.68320  0.80809  1.0000
  H   H1058     1.0  0.70940  0.61656  0.17642  1.0000
  N   N68       1.0  0.67493  0.59667  0.84732  1.0000
  H   H1059     1.0  0.43120  0.57224  0.24480  1.0000
  C   C659      1.0  0.64840  0.68158  0.16699  1.0000
  H   H1060     1.0  0.47233  0.54204  0.11790  1.0000
  C   C660      1.0  0.49722  0.58078  0.99676  1.0000
  C   C661      1.0  0.40244  0.68851  0.14370  1.0000
  H   H1061     1.0  0.64497  0.62993  0.22422  1.0000
  H   H1062     1.0  0.50510  0.66310  0.96955  1.0000
  H   H1063     1.0  0.55479  0.50526  0.12838  1.0000
  H   H1064     1.0  0.48627  0.58563  0.02703  1.0000
  C   C662      1.0  0.56536  0.69403  0.03903  1.0000
  C   C663      1.0  0.69247  0.59035  0.88753  1.0000
  C   C664      1.0  0.61878  0.55547  0.17266  1.0000
  H   H1065     1.0  0.53957  0.57543  0.95894  1.0000
  H   H1066     1.0  0.63504  0.52896  0.18708  1.0000
  H   H1067     1.0  0.69923  0.60357  0.76053  1.0000
  C   C665      1.0  0.56740  0.51513  0.02785  1.0000
  C   C666      1.0  0.47864  0.66559  0.78946  1.0000
  C   C667      1.0  0.52598  0.57708  0.06925  1.0000
  H   H1068     1.0  0.46296  0.66485  0.94500  1.0000
  S   S267      1.0  0.66859  0.50677  0.86840  1.0000
  H   H1069     1.0  0.66299  0.68816  0.01408  1.0000
  S   S268      1.0  0.60117  0.50903  0.86374  1.0000
  H   H1070     1.0  0.67126  0.55873  0.08470  1.0000
  C   C668      1.0  0.64491  0.67604  0.11311  1.0000
  C   C669      1.0  0.68424  0.53130  0.78931  1.0000
  C   C670      1.0  0.47324  0.62111  0.83267  1.0000
  C   C671      1.0  0.40038  0.59109  0.79069  1.0000
  H   H1071     1.0  0.50747  0.54760  0.96657  1.0000
  C   C672      1.0  0.57734  0.46550  0.18155  1.0000
  C   C673      1.0  0.42197  0.60311  0.23845  1.0000
  H   H1072     1.0  0.39964  0.47346  0.89661  1.0000
  C   C674      1.0  0.57975  0.53576  0.96553  1.0000
  C   C675      1.0  0.48864  0.46855  0.12898  1.0000
  S   S269      1.0  0.59510  0.53624  0.24767  1.0000
  S   S270      1.0  0.53906  0.61479  0.17808  1.0000
  H   H1073     1.0  0.59880  0.57823  0.90740  1.0000
  H   H1074     1.0  0.44769  0.63168  0.94902  1.0000
  H   H1075     1.0  0.48030  0.60001  0.23599  1.0000
  H   H1076     1.0  0.65186  0.59869  0.92087  1.0000
  H   H1077     1.0  0.46847  0.52704  0.06227  1.0000
  C   C676      1.0  0.66069  0.58971  0.05913  1.0000
  H   H1078     1.0  0.65142  0.61649  0.84002  1.0000
  S   S271      1.0  0.61525  0.64838  0.11610  1.0000
  C   C677      1.0  0.42310  0.67769  0.05121  1.0000
  C   C678      1.0  0.43261  0.62971  0.22949  1.0000
  N   N69       1.0  0.50689  0.56325  0.03633  1.0000
  C   C679      1.0  0.58904  0.56234  0.95541  1.0000
  C   C680      1.0  0.43938  0.59276  0.23843  1.0000
  H   H1079     1.0  0.71011  0.60891  0.88552  1.0000
  S   S272      1.0  0.69069  0.61401  0.99831  1.0000
  H   H1080     1.0  0.70072  0.57951  0.87163  1.0000
  H   H1081     1.0  0.47890  0.67331  0.03502  1.0000
  H   H1082     1.0  0.45706  0.60022  0.11023  1.0000
  N   N70       1.0  0.68055  0.62726  0.20159  1.0000
  C   C681      1.0  0.69106  0.61377  0.77959  1.0000
  H   H1083     1.0  0.71629  0.51284  0.92330  1.0000
  H   H1084     1.0  0.69313  0.66810  0.18192  1.0000
  H   H1085     1.0  0.70875  0.63298  0.77442  1.0000
  H   H1086     1.0  0.69617  0.66226  0.11165  1.0000
  S   S273      1.0  0.57330  0.64728  0.88585  1.0000
  S   S274      1.0  0.59423  0.60077  0.99511  1.0000
  Fe  Fe135     1.0  0.57292  0.47759  0.96012  1.0000
  H   H1087     1.0  0.72024  0.66272  0.16004  1.0000
  H   H1088     1.0  0.44334  0.59415  0.04500  1.0000
  S   S275      1.0  0.49835  0.53742  0.24421  1.0000
  S   S276      1.0  0.51523  0.61136  0.82038  1.0000
  Fe  Fe136     1.0  0.62360  0.48634  0.88085  1.0000
  H   H1089     1.0  0.65893  0.56005  0.83544  1.0000
  H   H1090     1.0  0.64423  0.61602  0.04456  1.0000
  Fe  Fe137     1.0  0.56050  0.63409  0.80849  1.0000
  H   H1091     1.0  0.63779  0.59770  0.23001  1.0000
  C   C682      1.0  0.46810  0.65140  0.06660  1.0000
  S   S277      1.0  0.54501  0.45027  0.92137  1.0000
  H   H1092     1.0  0.51055  0.47914  0.11251  1.0000
  H   H1093     1.0  0.52444  0.68751  0.85722  1.0000
  H   H1094     1.0  0.53457  0.56487  0.09741  1.0000
  H   H1095     1.0  0.72655  0.51092  0.99681  1.0000
  C   C683      1.0  0.44521  0.46407  0.11231  1.0000
  H   H1096     1.0  0.72058  0.55461  0.81297  1.0000
  C   C684      1.0  0.47743  0.63450  0.22889  1.0000
  S   S278      1.0  0.41474  0.68772  0.89962  1.0000
  C   C685      1.0  0.57336  0.54757  0.06987  1.0000
  S   S279      1.0  0.63541  0.66385  0.82451  1.0000
  H   H1097     1.0  0.47154  0.58848  0.76125  1.0000
  H   H1098     1.0  0.43027  0.63881  0.00037  1.0000
  C   C686      1.0  0.52093  0.55699  0.99427  1.0000
  H   H1099     1.0  0.54358  0.59665  0.03433  1.0000
  C   C687      1.0  0.65176  0.57144  0.85218  1.0000
  C   C688      1.0  0.66440  0.61105  0.86995  1.0000
  H   H1100     1.0  0.44818  0.64613  0.09443  1.0000
  Fe  Fe138     1.0  0.57943  0.62555  0.20181  1.0000
  H   H1101     1.0  0.60888  0.45224  0.12811  1.0000
  C   C689      1.0  0.69838  0.65640  0.16202  1.0000
  H   H1102     1.0  0.58151  0.53123  0.92497  1.0000
  H   H1103     1.0  0.44063  0.62920  0.84504  1.0000
  S   S280      1.0  0.55500  0.48175  0.04119  1.0000
  C   C690      1.0  0.52321  0.47198  0.77087  1.0000
  H   H1104     1.0  0.63939  0.55810  0.90303  1.0000
  H   H1105     1.0  0.68132  0.62997  0.86830  1.0000
  H   H1106     1.0  0.51574  0.58094  0.10374  1.0000
  Fe  Fe139     1.0  0.57490  0.48024  0.82561  1.0000
  H   H1107     1.0  0.46847  0.66586  0.21894  1.0000
  H   H1108     1.0  0.55781  0.46536  0.19066  1.0000
  H   H1109     1.0  0.60668  0.58542  0.14380  1.0000
  C   C691      1.0  0.65184  0.61970  0.20223  1.0000
  C   C692      1.0  0.58558  0.56822  0.00753  1.0000
  C   C693      1.0  0.63680  0.54778  0.15567  1.0000
  S   S281      1.0  0.71801  0.57754  0.12799  1.0000
  H   H1110     1.0  0.59033  0.47476  0.21010  1.0000
  H   H1111     1.0  0.43133  0.67403  0.01484  1.0000
  H   H1112     1.0  0.51456  0.59995  0.95956  1.0000
  Fe  Fe140     1.0  0.59777  0.62701  0.89506  1.0000
  C   C694      1.0  0.50417  0.48057  0.76994  1.0000
  C   C695      1.0  0.56434  0.52108  0.08005  1.0000
  H   H1113     1.0  0.48305  0.57106  0.97051  1.0000
  S   S282      1.0  0.58268  0.61129  0.82285  1.0000
  H   H1114     1.0  0.52741  0.54280  0.02282  1.0000
  Fe  Fe141     1.0  0.42291  0.66953  0.83811  1.0000
  C   C696      1.0  0.62079  0.57951  0.13122  1.0000
  C   C697      1.0  0.68842  0.61253  0.17397  1.0000
  H   H1115     1.0  0.64903  0.62531  0.15248  1.0000
  C   C698      1.0  0.64187  0.59673  0.07462  1.0000
  C   C699      1.0  0.47614  0.46168  0.79263  1.0000
  H   H1116     1.0  0.57035  0.55196  0.11032  1.0000
  H   H1117     1.0  0.63788  0.57535  0.82305  1.0000
  H   H1118     1.0  0.55861  0.67235  0.05618  1.0000
  H   H1119     1.0  0.48405  0.49480  0.04494  1.0000
  H   H1120     1.0  0.48950  0.63162  0.96454  1.0000
  H   H1121     1.0  0.67818  0.46257  0.87072  1.0000
  H   H1122     1.0  0.49012  0.52456  0.11587  1.0000
  H   H1123     1.0  0.63253  0.66886  0.21153  1.0000
  H   H1124     1.0  0.48041  0.64801  0.10113  1.0000
  C   C700      1.0  0.49123  0.64121  0.99821  1.0000
  H   H1125     1.0  0.71845  0.44862  0.24127  1.0000
  S   S283      1.0  0.42712  0.47643  0.06455  1.0000
  C   C701      1.0  0.46205  0.63783  0.82432  1.0000
  C   C702      1.0  0.48338  0.53812  0.08510  1.0000
  C   C703      1.0  0.65748  0.56474  0.09818  1.0000
  H   H1126     1.0  0.46037  0.59963  0.86016  1.0000
  C   C704      1.0  0.46038  0.64544  0.22461  1.0000
  H   H1127     1.0  0.41943  0.63814  0.22672  1.0000
  S   S284      1.0  0.46580  0.68722  0.78238  1.0000
  H   H1128     1.0  0.68814  0.61869  0.12242  1.0000
  H   H1129     1.0  0.67433  0.59046  0.19985  1.0000
  H   H1130     1.0  0.40827  0.47196  0.24962  1.0000
  H   H1131     1.0  0.58945  0.67722  0.12744  1.0000
  S   S285      1.0  0.41094  0.55187  0.79378  1.0000
  H   H1132     1.0  0.42208  0.60467  0.77017  1.0000
  C   C705      1.0  0.39703  0.65908  0.09163  1.0000
  C   C706      1.0  0.66562  0.69251  0.05577  1.0000
  H   H1133     1.0  0.45814  0.49403  0.22452  1.0000
  H   H1134     1.0  0.56678  0.69080  0.81123  1.0000
  C   C707      1.0  0.50607  0.67645  0.75997  1.0000
  C   C708      1.0  0.44774  0.50006  0.25072  1.0000
  H   H1135     1.0  0.55100  0.69570  0.06979  1.0000
  H   H1136     1.0  0.61309  0.44824  0.20750  1.0000
  H   H1137     1.0  0.46237  0.54578  0.76162  1.0000
  H   H1138     1.0  0.50895  0.57724  0.75703  1.0000
  C   C709      1.0  0.39843  0.56025  0.48075  1.0000
  H   H1139     1.0  0.46038  0.54428  0.31667  1.0000
  Fe  Fe142     1.0  0.52318  0.57443  0.25959  1.0000
  H   H1140     1.0  0.53874  0.66842  0.74727  1.0000
  H   H1141     1.0  0.50439  0.58796  0.59042  1.0000
  H   H1142     1.0  0.69379  0.51559  0.39700  1.0000
  H   H1143     1.0  0.61726  0.68785  0.53502  1.0000
  S   S286      1.0  0.72283  0.59927  0.58790  1.0000
  H   H1144     1.0  0.45728  0.58782  0.36902  1.0000
  H   H1145     1.0  0.42408  0.47156  0.65616  1.0000
  C   C710      1.0  0.43497  0.66429  0.66149  1.0000
  H   H1146     1.0  0.69923  0.51808  0.28598  1.0000
  H   H1147     1.0  0.45932  0.59716  0.69116  1.0000
  H   H1148     1.0  0.59795  0.54953  0.71348  1.0000
  H   H1149     1.0  0.72325  0.52799  0.42718  1.0000
  H   H1150     1.0  0.67137  0.59598  0.63400  1.0000
  H   H1151     1.0  0.64725  0.68426  0.39262  1.0000
  H   H1152     1.0  0.62706  0.65538  0.46741  1.0000
  H   H1153     1.0  0.52522  0.45275  0.31363  1.0000
  H   H1154     1.0  0.55362  0.48038  0.31891  1.0000
  C   C711      1.0  0.47632  0.67619  0.59188  1.0000
  C   C712      1.0  0.52863  0.50524  0.33694  1.0000
  H   H1155     1.0  0.44673  0.57528  0.51170  1.0000
  C   C713      1.0  0.55816  0.62938  0.44827  1.0000
  C   C714      1.0  0.72842  0.50180  0.35923  1.0000
  C   C715      1.0  0.65039  0.58618  0.66477  1.0000
  H   H1156     1.0  0.52658  0.46236  0.43142  1.0000
  H   H1157     1.0  0.53581  0.51972  0.28513  1.0000
  S   S287      1.0  0.40676  0.49571  0.74701  1.0000
  S   S288      1.0  0.40168  0.54434  0.63918  1.0000
  H   H1158     1.0  0.42321  0.56425  0.37214  1.0000
  H   H1159     1.0  0.41491  0.61269  0.41965  1.0000
  Fe  Fe143     1.0  0.70950  0.68877  0.33892  1.0000
  H   H1160     1.0  0.62887  0.59821  0.41901  1.0000
  C   C716      1.0  0.68317  0.54989  0.67766  1.0000
  C   C717      1.0  0.43266  0.45116  0.60647  1.0000
  H   H1161     1.0  0.57121  0.50664  0.54725  1.0000
  H   H1162     1.0  0.58610  0.56138  0.64486  1.0000
  C   C718      1.0  0.46266  0.52090  0.26815  1.0000
  Fe  Fe144     1.0  0.61037  0.51414  0.31985  1.0000
  H   H1163     1.0  0.52693  0.53356  0.57523  1.0000
  H   H1164     1.0  0.48903  0.48875  0.59879  1.0000
  C   C719      1.0  0.44385  0.45321  0.54771  1.0000
  H   H1165     1.0  0.46596  0.65708  0.58659  1.0000
  C   C720      1.0  0.67064  0.52959  0.74063  1.0000
  S   S289      1.0  0.59995  0.50907  0.42074  1.0000
  H   H1166     1.0  0.47488  0.54470  0.68931  1.0000
  C   C721      1.0  0.41930  0.48742  0.26509  1.0000
  H   H1167     1.0  0.55503  0.66219  0.45394  1.0000
  H   H1168     1.0  0.67028  0.59861  0.29927  1.0000
  N   N71       1.0  0.62973  0.58006  0.62757  1.0000
  H   H1169     1.0  0.42026  0.67064  0.67132  1.0000
  C   C722      1.0  0.69483  0.59545  0.44099  1.0000
  H   H1170     1.0  0.46434  0.47961  0.44741  1.0000
  H   H1171     1.0  0.46480  0.60821  0.44662  1.0000
  C   C723      1.0  0.43298  0.47342  0.61059  1.0000
  C   C724      1.0  0.49008  0.47114  0.32109  1.0000
  C   C725      1.0  0.56769  0.60326  0.54056  1.0000
  H   H1172     1.0  0.70493  0.62561  0.26960  1.0000
  C   C726      1.0  0.42305  0.60443  0.39339  1.0000
  H   H1173     1.0  0.62157  0.60127  0.54128  1.0000
  H   H1174     1.0  0.55379  0.63292  0.40164  1.0000
  H   H1175     1.0  0.44853  0.55297  0.69388  1.0000
  C   C727      1.0  0.44895  0.52830  0.30270  1.0000
  C   C728      1.0  0.53172  0.51231  0.49568  1.0000
  H   H1176     1.0  0.64685  0.56764  0.70568  1.0000
  C   C729      1.0  0.44414  0.59163  0.47757  1.0000
  S   S290      1.0  0.51099  0.58586  0.33343  1.0000
  C   C730      1.0  0.47769  0.59805  0.70758  1.0000
  H   H1177     1.0  0.60078  0.58190  0.68706  1.0000
  H   H1178     1.0  0.65118  0.56993  0.57170  1.0000
  H   H1179     1.0  0.64996  0.59996  0.68484  1.0000
  C   C731      1.0  0.67144  0.57266  0.44526  1.0000
  C   C732      1.0  0.72329  0.67522  0.60712  1.0000
  Fe  Fe145     1.0  0.55346  0.59851  0.34616  1.0000
  N   N72       1.0  0.51511  0.47725  0.34430  1.0000
  C   C733      1.0  0.63371  0.68287  0.54018  1.0000
  N   N73       1.0  0.48838  0.58436  0.68257  1.0000
  Fe  Fe146     1.0  0.64236  0.51673  0.42185  1.0000
  H   H1180     1.0  0.67967  0.68776  0.71241  1.0000
  H   H1181     1.0  0.55013  0.48357  0.62762  1.0000
  H   H1182     1.0  0.71301  0.59450  0.44827  1.0000
  H   H1183     1.0  0.49536  0.46424  0.58794  1.0000
  S   S291      1.0  0.62986  0.47323  0.45925  1.0000
  C   C734      1.0  0.54033  0.52459  0.58402  1.0000
  H   H1184     1.0  0.52265  0.57802  0.68354  1.0000
  H   H1185     1.0  0.40875  0.59778  0.36405  1.0000
  H   H1186     1.0  0.51784  0.52072  0.48593  1.0000
  S   S292      1.0  0.59601  0.47087  0.34762  1.0000
  H   H1187     1.0  0.39933  0.54260  0.51420  1.0000
  S   S293      1.0  0.67055  0.65030  0.39988  1.0000
  H   H1188     1.0  0.49303  0.69147  0.54734  1.0000
  C   C735      1.0  0.56381  0.64103  0.53905  1.0000
  H   H1189     1.0  0.43920  0.55502  0.43468  1.0000
  C   C736      1.0  0.69492  0.61959  0.42607  1.0000
  N   N74       1.0  0.53133  0.50224  0.56475  1.0000
  H   H1190     1.0  0.40972  0.52099  0.34469  1.0000
  H   H1191     1.0  0.47913  0.45003  0.32702  1.0000
  C   C737      1.0  0.49461  0.59654  0.61143  1.0000
  H   H1192     1.0  0.52893  0.60859  0.68824  1.0000
  H   H1193     1.0  0.61574  0.55676  0.57300  1.0000
  C   C738      1.0  0.55892  0.64600  0.47784  1.0000
  N   N75       1.0  0.42563  0.58203  0.43838  1.0000
  S   S294      1.0  0.56181  0.65928  0.58076  1.0000
  C   C739      1.0  0.45705  0.50035  0.49776  1.0000
  Fe  Fe147     1.0  0.58833  0.46631  0.44894  1.0000
  C   C740      1.0  0.63488  0.67730  0.44144  1.0000
  C   C741      1.0  0.64735  0.59748  0.42498  1.0000
  H   H1194     1.0  0.54342  0.47406  0.56252  1.0000
  C   C742      1.0  0.60242  0.56772  0.67000  1.0000
  H   H1195     1.0  0.49334  0.61952  0.69209  1.0000
  Fe  Fe148     1.0  0.41232  0.51355  0.64017  1.0000
  C   C743      1.0  0.50805  0.45870  0.41287  1.0000
  C   C744      1.0  0.72101  0.53330  0.27539  1.0000
  C   C745      1.0  0.56252  0.60796  0.47970  1.0000
  S   S295      1.0  0.65379  0.52514  0.31810  1.0000
  H   H1196     1.0  0.47586  0.47436  0.34734  1.0000
  H   H1197     1.0  0.49498  0.48433  0.26889  1.0000
  H   H1198     1.0  0.53996  0.51773  0.63600  1.0000
  C   C746      1.0  0.50332  0.48087  0.60336  1.0000
  C   C747      1.0  0.42024  0.51504  0.31869  1.0000
  H   H1199     1.0  0.61699  0.68007  0.43490  1.0000
  C   C748      1.0  0.63569  0.60515  0.57293  1.0000
  H   H1200     1.0  0.48594  0.67292  0.63290  1.0000
  C   C749      1.0  0.71584  0.53093  0.38266  1.0000
  S   S296      1.0  0.44759  0.52643  0.56257  1.0000
  H   H1201     1.0  0.67297  0.54839  0.63965  1.0000
  C   C750      1.0  0.67117  0.62058  0.41793  1.0000
  C   C751      1.0  0.69478  0.66049  0.62155  1.0000
  H   H1202     1.0  0.52509  0.49602  0.47946  1.0000
  C   C752      1.0  0.51335  0.58713  0.70357  1.0000
  S   S297      1.0  0.66065  0.46433  0.31916  1.0000
  H   H1203     1.0  0.67816  0.63160  0.28978  1.0000
  C   C753      1.0  0.72260  0.57349  0.71252  1.0000
  C   C754      1.0  0.54988  0.49121  0.57588  1.0000
  H   H1204     1.0  0.51460  0.50915  0.36157  1.0000
  C   C755      1.0  0.40540  0.49489  0.29872  1.0000
  S   S298      1.0  0.67239  0.54319  0.46038  1.0000
  H   H1205     1.0  0.56145  0.54097  0.55588  1.0000
  C   C756      1.0  0.69173  0.68413  0.68320  1.0000
  H   H1206     1.0  0.68518  0.64574  0.60287  1.0000
  H   H1207     1.0  0.57089  0.58667  0.56505  1.0000
  H   H1208     1.0  0.47581  0.59320  0.59444  1.0000
  C   C757      1.0  0.70883  0.57220  0.66404  1.0000
  H   H1209     1.0  0.44310  0.62114  0.35984  1.0000
  H   H1210     1.0  0.66725  0.66600  0.51313  1.0000
  C   C758      1.0  0.63055  0.56130  0.60276  1.0000
  C   C759      1.0  0.64763  0.57366  0.43751  1.0000
  H   H1211     1.0  0.71321  0.63726  0.42187  1.0000
  H   H1212     1.0  0.62937  0.55607  0.44174  1.0000
  H   H1213     1.0  0.54701  0.51028  0.35631  1.0000
  S   S299      1.0  0.55824  0.49527  0.74398  1.0000
  H   H1214     1.0  0.63388  0.61922  0.58995  1.0000
  C   C760      1.0  0.46771  0.55563  0.70794  1.0000
  H   H1215     1.0  0.43301  0.67063  0.54101  1.0000
  H   H1216     1.0  0.50245  0.47188  0.65545  1.0000
  C   C761      1.0  0.44553  0.49813  0.55648  1.0000
  H   H1217     1.0  0.67851  0.61909  0.74819  1.0000
  C   C762      1.0  0.44490  0.68946  0.54685  1.0000
  C   C763      1.0  0.56836  0.61974  0.57012  1.0000
  H   H1218     1.0  0.62554  0.54188  0.64276  1.0000
  S   S300      1.0  0.56103  0.58642  0.44486  1.0000
  H   H1219     1.0  0.42322  0.64501  0.65752  1.0000
  H   H1220     1.0  0.43607  0.59915  0.50631  1.0000
  H   H1221     1.0  0.46667  0.51943  0.45570  1.0000
  H   H1222     1.0  0.44324  0.66016  0.70439  1.0000
  H   H1223     1.0  0.55253  0.52870  0.46512  1.0000
  S   S301      1.0  0.64313  0.64476  0.67955  1.0000
  C   C764      1.0  0.45578  0.47780  0.49312  1.0000
  H   H1224     1.0  0.50870  0.61857  0.59100  1.0000
  H   H1225     1.0  0.70666  0.48592  0.37189  1.0000
  H   H1226     1.0  0.65682  0.61571  0.54225  1.0000
  C   C765      1.0  0.67433  0.68762  0.48569  1.0000
  H   H1227     1.0  0.62376  0.66078  0.56806  1.0000
  C   C766      1.0  0.67888  0.66472  0.66002  1.0000
  H   H1228     1.0  0.57226  0.61592  0.61739  1.0000
  H   H1229     1.0  0.71730  0.55095  0.36422  1.0000
  Fe  Fe149     1.0  0.63837  0.48093  0.35552  1.0000
  C   C767      1.0  0.43681  0.57184  0.40188  1.0000
  S   S302      1.0  0.59520  0.67136  0.72876  1.0000
  S   S303      1.0  0.57168  0.64094  0.27104  1.0000
  C   C768      1.0  0.53386  0.47398  0.30585  1.0000
  H   H1230     1.0  0.65064  0.51253  0.75123  1.0000
  H   H1231     1.0  0.49425  0.46083  0.44358  1.0000
  S   S304      1.0  0.56440  0.58406  0.27782  1.0000
  N   N76       1.0  0.45695  0.68509  0.60245  1.0000
  H   H1232     1.0  0.68804  0.69461  0.43873  1.0000
  C   C769      1.0  0.68360  0.62045  0.26809  1.0000
  H   H1233     1.0  0.72261  0.55330  0.25558  1.0000
  N   N77       1.0  0.65110  0.69215  0.47664  1.0000
  H   H1234     1.0  0.64555  0.69235  0.56995  1.0000
  H   H1235     1.0  0.53838  0.48652  0.25333  1.0000
  Fe  Fe150     1.0  0.61887  0.64954  0.75044  1.0000
  H   H1236     1.0  0.51105  0.50174  0.75217  1.0000
  C   C770      1.0  0.54032  0.89817  0.78240  1.0000
  S   S305      1.0  0.51241  0.88724  0.01396  1.0000
  C   C771      1.0  0.45563  0.89908  0.09272  1.0000
  H   H1237     1.0  0.45444  0.79690  0.02780  1.0000
  H   H1238     1.0  0.58585  0.78457  0.95713  1.0000
  H   H1239     1.0  0.56796  0.78069  0.75980  1.0000
  H   H1240     1.0  0.60412  0.87298  0.11335  1.0000
  H   H1241     1.0  0.58854  0.74081  0.04936  1.0000
  H   H1242     1.0  0.58228  0.70055  0.14191  1.0000
  C   C772      1.0  0.42510  0.91132  0.03951  1.0000
  C   C773      1.0  0.59321  0.72501  0.82750  1.0000
  H   H1243     1.0  0.66477  0.90633  0.14590  1.0000
  C   C774      1.0  0.47032  0.92764  0.97860  1.0000
  H   H1244     1.0  0.55979  0.88076  0.96949  1.0000
  H   H1245     1.0  0.48830  0.72302  0.24680  1.0000
  Fe  Fe151     1.0  0.48251  0.76248  0.01240  1.0000
  H   H1246     1.0  0.62682  0.91250  0.00731  1.0000
  H   H1247     1.0  0.45067  0.87334  0.02100  1.0000
  N   N78       1.0  0.58453  0.88176  0.03757  1.0000
  H   H1248     1.0  0.62391  0.80393  0.86244  1.0000
  C   C775      1.0  0.69370  0.71967  0.10644  1.0000
  C   C776      1.0  0.60207  0.73803  0.01943  1.0000
  C   C777      1.0  0.48058  0.83655  0.02191  1.0000
  C   C778      1.0  0.52293  0.77643  0.19849  1.0000
  H   H1249     1.0  0.45885  0.71538  0.02566  1.0000
  H   H1250     1.0  0.67562  0.70721  0.20576  1.0000
  C   C779      1.0  0.48364  0.87312  0.92925  1.0000
  H   H1251     1.0  0.49045  0.79800  0.18772  1.0000
  H   H1252     1.0  0.57146  0.75723  0.89018  1.0000
  S   S306      1.0  0.68946  0.92106  0.82690  1.0000
  C   C780      1.0  0.48209  0.77855  0.18387  1.0000
  H   H1253     1.0  0.47902  0.94614  0.98676  1.0000
  C   C781      1.0  0.45481  0.82747  0.94396  1.0000
  H   H1254     1.0  0.53261  0.79600  0.20175  1.0000
  H   H1255     1.0  0.52912  0.78050  0.14720  1.0000
  H   H1256     1.0  0.56991  0.85585  0.98935  1.0000
  H   H1257     1.0  0.68254  0.78326  0.22909  1.0000
  H   H1258     1.0  0.69707  0.91210  0.10898  1.0000
  H   H1259     1.0  0.61702  0.70957  0.11302  1.0000
  H   H1260     1.0  0.43551  0.82793  0.78520  1.0000
  H   H1261     1.0  0.51727  0.73338  0.76835  1.0000
  C   C782      1.0  0.63049  0.84011  0.97379  1.0000
  C   C783      1.0  0.45985  0.94494  0.78262  1.0000
  S   S307      1.0  0.48342  0.76061  0.91637  1.0000
  H   H1262     1.0  0.45917  0.86219  0.86540  1.0000
  Fe  Fe152     1.0  0.54373  0.79251  0.98561  1.0000
  H   H1263     1.0  0.48636  0.73933  0.16656  1.0000
  H   H1264     1.0  0.54372  0.85217  0.04575  1.0000
  H   H1265     1.0  0.61425  0.76014  0.84521  1.0000
  C   C784      1.0  0.57044  0.74285  0.87262  1.0000
  H   H1266     1.0  0.51496  0.89714  0.20443  1.0000
  Fe  Fe153     1.0  0.51621  0.75039  0.93514  1.0000
  C   C785      1.0  0.54510  0.72187  0.87751  1.0000
  H   H1267     1.0  0.60122  0.74683  0.96867  1.0000
  H   H1268     1.0  0.41912  0.79378  0.11311  1.0000
  Fe  Fe154     1.0  0.53790  0.92793  0.93077  1.0000
  S   S308      1.0  0.51289  0.74901  0.03379  1.0000
  H   H1269     1.0  0.43230  0.92899  0.05088  1.0000
  H   H1270     1.0  0.62336  0.75009  0.02165  1.0000
  S   S309      1.0  0.62252  0.72363  0.80731  1.0000
  C   C786      1.0  0.68985  0.71448  0.05219  1.0000
  S   S310      1.0  0.52193  0.82867  0.77213  1.0000
  S   S311      1.0  0.72464  0.92804  0.97003  1.0000
  H   H1271     1.0  0.53183  0.76461  0.22697  1.0000
  C   C787      1.0  0.59459  0.74446  0.84735  1.0000
  H   H1272     1.0  0.67117  0.86839  0.91359  1.0000
  S   S312      1.0  0.54989  0.79298  0.88763  1.0000
  H   H1273     1.0  0.40464  0.74541  0.15853  1.0000
  H   H1274     1.0  0.40583  0.79801  0.79288  1.0000
  C   C788      1.0  0.56362  0.86699  0.00927  1.0000
  C   C789      1.0  0.40397  0.82500  0.21337  1.0000
  H   H1275     1.0  0.63365  0.71757  0.00187  1.0000
  H   H1276     1.0  0.61143  0.71478  0.94875  1.0000
  S   S313      1.0  0.51349  0.80648  0.96952  1.0000
  C   C790      1.0  0.44726  0.78881  0.79789  1.0000
  C   C791      1.0  0.46270  0.81822  0.00023  1.0000
  H   H1277     1.0  0.42744  0.77122  0.83065  1.0000
  C   C792      1.0  0.48093  0.73620  0.21729  1.0000
  C   C793      1.0  0.43617  0.88088  0.01858  1.0000
  S   S314      1.0  0.51441  0.71679  0.91584  1.0000
  C   C794      1.0  0.61061  0.90104  0.98758  1.0000
  H   H1278     1.0  0.41801  0.91585  0.99476  1.0000
  H   H1279     1.0  0.63215  0.85063  0.00362  1.0000
  H   H1280     1.0  0.52211  0.85665  0.84985  1.0000
  H   H1281     1.0  0.59033  0.90725  0.08590  1.0000
  C   C795      1.0  0.56791  0.70512  0.82908  1.0000
  H   H1282     1.0  0.61802  0.89062  0.96742  1.0000
  H   H1283     1.0  0.46005  0.78106  0.78481  1.0000
  H   H1284     1.0  0.51757  0.75797  0.79279  1.0000
  S   S315      1.0  0.41318  0.91058  0.88024  1.0000
  H   H1285     1.0  0.43030  0.83542  0.12504  1.0000
  C   C796      1.0  0.43201  0.93569  0.80254  1.0000
  H   H1286     1.0  0.59533  0.85107  0.07383  1.0000
  H   H1287     1.0  0.48716  0.78287  0.13202  1.0000
  H   H1288     1.0  0.49094  0.89403  0.90218  1.0000
  C   C797      1.0  0.62595  0.81380  0.89405  1.0000
  H   H1289     1.0  0.45982  0.81973  0.17909  1.0000
  H   H1290     1.0  0.45824  0.72510  0.23340  1.0000
  H   H1291     1.0  0.48618  0.82939  0.06615  1.0000
  C   C798      1.0  0.49117  0.86411  0.98606  1.0000
  C   C799      1.0  0.68319  0.92053  0.10461  1.0000
  H   H1292     1.0  0.48690  0.92307  0.97251  1.0000
  H   H1293     1.0  0.53838  0.90466  0.81924  1.0000
  H   H1294     1.0  0.45946  0.76817  0.20058  1.0000
  C   C800      1.0  0.42788  0.70779  0.10010  1.0000
  Fe  Fe155     1.0  0.70192  0.89624  0.79668  1.0000
  H   H1295     1.0  0.48413  0.89885  0.20584  1.0000
  H   H1296     1.0  0.62044  0.86922  0.81667  1.0000
  S   S316      1.0  0.67331  0.85514  0.80592  1.0000
  C   C801      1.0  0.60600  0.81721  0.98385  1.0000
  S   S317      1.0  0.58037  0.86737  0.23787  1.0000
  C   C802      1.0  0.60431  0.80313  0.94672  1.0000
  C   C803      1.0  0.53091  0.87093  0.79973  1.0000
  C   C804      1.0  0.39940  0.78879  0.09974  1.0000
  H   H1297     1.0  0.72297  0.85466  0.82633  1.0000
  N   N79       1.0  0.44680  0.90476  0.03228  1.0000
  C   C805      1.0  0.60987  0.86197  0.78232  1.0000
  C   C806      1.0  0.43869  0.70157  0.05664  1.0000
  H   H1298     1.0  0.41638  0.86420  0.05307  1.0000
  Fe  Fe156     1.0  0.40391  0.82377  0.88899  1.0000
  H   H1299     1.0  0.47157  0.89341  0.08952  1.0000
  C   C807      1.0  0.65239  0.85044  0.92205  1.0000
  H   H1300     1.0  0.70588  0.72697  0.00787  1.0000
  N   N80       1.0  0.49292  0.76201  0.22258  1.0000
  S   S318      1.0  0.42947  0.80508  0.92120  1.0000
  H   H1301     1.0  0.39852  0.94159  0.77884  1.0000
  C   C808      1.0  0.64946  0.83818  0.88001  1.0000
  C   C809      1.0  0.71528  0.82121  0.77319  1.0000
  H   H1302     1.0  0.46441  0.93229  0.93203  1.0000
  S   S319      1.0  0.41341  0.86253  0.80738  1.0000
  H   H1303     1.0  0.46427  0.91686  0.10381  1.0000
  S   S320      1.0  0.44545  0.74041  0.09511  1.0000
  H   H1304     1.0  0.58755  0.85299  0.80140  1.0000
  H   H1305     1.0  0.46921  0.93505  0.81302  1.0000
  H   H1306     1.0  0.45789  0.80011  0.82577  1.0000
  C   C810      1.0  0.44323  0.81876  0.20734  1.0000
  S   S321      1.0  0.57626  0.80905  0.03364  1.0000
  H   H1307     1.0  0.43819  0.88216  0.13422  1.0000
  H   H1308     1.0  0.55550  0.88240  0.09989  1.0000
  C   C811      1.0  0.49343  0.88714  0.23227  1.0000
  Fe  Fe157     1.0  0.51697  0.80331  0.87501  1.0000
  H   H1309     1.0  0.40696  0.89410  0.07894  1.0000
  H   H1310     1.0  0.43271  0.88531  0.96963  1.0000
  N   N81       1.0  0.59382  0.70941  0.04180  1.0000
  C   C812      1.0  0.57537  0.89637  0.06281  1.0000
  H   H1311     1.0  0.69615  0.82079  0.78923  1.0000
  H   H1312     1.0  0.56319  0.70128  0.98895  1.0000
  H   H1313     1.0  0.57250  0.91132  0.02381  1.0000
  C   C813      1.0  0.46526  0.85491  0.90871  1.0000
  H   H1314     1.0  0.60849  0.91600  0.94679  1.0000
  C   C814      1.0  0.67289  0.70327  0.16377  1.0000
  C   C815      1.0  0.54396  0.70343  0.85450  1.0000
  H   H1315     1.0  0.56930  0.84783  0.12968  1.0000
  C   C816      1.0  0.58850  0.86257  0.09081  1.0000
  C   C817      1.0  0.42569  0.81530  0.75952  1.0000
  S   S322      1.0  0.72519  0.74551  0.10345  1.0000
  C   C818      1.0  0.42646  0.82768  0.17673  1.0000
  S   S323      1.0  0.57567  0.93586  0.87095  1.0000
  H   H1316     1.0  0.61350  0.84562  0.78286  1.0000
  C   C819      1.0  0.70581  0.94623  0.16306  1.0000
  H   H1317     1.0  0.58465  0.82220  0.24238  1.0000
  H   H1318     1.0  0.48239  0.86687  0.23257  1.0000
  Fe  Fe158     1.0  0.72540  0.93061  0.86984  1.0000
  H   H1319     1.0  0.40280  0.79093  0.04941  1.0000
  H   H1320     1.0  0.67676  0.92095  0.05940  1.0000
  H   H1321     1.0  0.72497  0.78280  0.24697  1.0000
  H   H1322     1.0  0.71993  0.93808  0.16954  1.0000
  H   H1323     1.0  0.68808  0.93322  0.20614  1.0000
  C   C820      1.0  0.61206  0.70670  0.00004  1.0000
  H   H1324     1.0  0.71700  0.80596  0.81398  1.0000
  S   S324      1.0  0.52479  0.94649  0.84512  1.0000
  H   H1325     1.0  0.65964  0.94512  0.13919  1.0000
  C   C821      1.0  0.59574  0.69879  0.10900  1.0000
  C   C822      1.0  0.54283  0.88060  0.68702  1.0000
  H   H1326     1.0  0.46329  0.74665  0.31030  1.0000
  C   C823      1.0  0.69434  0.90250  0.55901  1.0000
  S   S325      1.0  0.44469  0.80878  0.45457  1.0000
  H   H1327     1.0  0.55917  0.81609  0.63484  1.0000
  S   S326      1.0  0.55112  0.71864  0.56403  1.0000
  H   H1328     1.0  0.62617  0.81549  0.46716  1.0000
  C   C824      1.0  0.71280  0.78392  0.28240  1.0000
  H   H1329     1.0  0.46083  0.70468  0.50110  1.0000
  C   C825      1.0  0.72020  0.78364  0.33967  1.0000
  C   C826      1.0  0.50432  0.86910  0.33183  1.0000
  H   H1330     1.0  0.64881  0.85062  0.32240  1.0000
  H   H1331     1.0  0.68424  0.83800  0.48188  1.0000
  S   S327      1.0  0.58978  0.77534  0.43870  1.0000
  C   C827      1.0  0.60581  0.87309  0.67275  1.0000
  S   S328      1.0  0.57251  0.87736  0.39846  1.0000
  H   H1332     1.0  0.48689  0.72713  0.56419  1.0000
  H   H1333     1.0  0.40892  0.77465  0.72914  1.0000
  C   C828      1.0  0.56673  0.77672  0.71617  1.0000
  C   C829      1.0  0.52737  0.89185  0.47670  1.0000
  H   H1334     1.0  0.66699  0.81167  0.45834  1.0000
  H   H1335     1.0  0.58527  0.79347  0.67726  1.0000
  C   C830      1.0  0.67977  0.83381  0.43945  1.0000
  S   S329      1.0  0.62078  0.93507  0.39047  1.0000
  H   H1336     1.0  0.64271  0.84129  0.49271  1.0000
  C   C831      1.0  0.69511  0.80896  0.60845  1.0000
  C   C832      1.0  0.47752  0.92504  0.58634  1.0000
  H   H1337     1.0  0.45720  0.71666  0.62269  1.0000
  S   S330      1.0  0.63419  0.90349  0.31730  1.0000
  H   H1338     1.0  0.52150  0.92276  0.54779  1.0000
  H   H1339     1.0  0.65431  0.86728  0.60053  1.0000
  H   H1340     1.0  0.53439  0.83768  0.34904  1.0000
  H   H1341     1.0  0.64792  0.81941  0.36318  1.0000
  C   C833      1.0  0.72039  0.69901  0.66849  1.0000
  C   C834      1.0  0.65384  0.81180  0.61365  1.0000
  C   C835      1.0  0.41494  0.84354  0.50496  1.0000
  C   C836      1.0  0.51758  0.75283  0.75103  1.0000
  S   S331      1.0  0.56770  0.71917  0.42333  1.0000
  H   H1342     1.0  0.43084  0.69692  0.55281  1.0000
  S   S332      1.0  0.63956  0.77848  0.31235  1.0000
  H   H1343     1.0  0.70279  0.88472  0.35296  1.0000
  H   H1344     1.0  0.66634  0.92566  0.41272  1.0000
  C   C837      1.0  0.47154  0.71043  0.60958  1.0000
  C   C838      1.0  0.49915  0.87692  0.48667  1.0000
  H   H1345     1.0  0.67967  0.84895  0.31425  1.0000
  C   C839      1.0  0.56785  0.81509  0.28174  1.0000
  S   S333      1.0  0.60644  0.77734  0.59698  1.0000
  C   C840      1.0  0.52493  0.79659  0.38508  1.0000
  S   S334      1.0  0.51573  0.74513  0.43464  1.0000
  H   H1346     1.0  0.53965  0.74786  0.65338  1.0000
  H   H1347     1.0  0.56782  0.75812  0.72733  1.0000
  S   S335      1.0  0.59780  0.93189  0.26309  1.0000
  H   H1348     1.0  0.62782  0.84704  0.42553  1.0000
  Fe  Fe159     1.0  0.63787  0.94366  0.28948  1.0000
  H   H1349     1.0  0.62087  0.92139  0.66918  1.0000
  N   N82       1.0  0.44332  0.80605  0.73998  1.0000
  H   H1350     1.0  0.56271  0.89153  0.50581  1.0000
  Fe  Fe160     1.0  0.57209  0.70186  0.52342  1.0000
  C   C841      1.0  0.55368  0.78799  0.32589  1.0000
  Fe  Fe161     1.0  0.58024  0.91935  0.36737  1.0000
  H   H1351     1.0  0.69184  0.84054  0.62123  1.0000
  C   C842      1.0  0.55284  0.90791  0.66985  1.0000
  C   C843      1.0  0.53247  0.86225  0.75201  1.0000
  H   H1352     1.0  0.47771  0.90692  0.61963  1.0000
  C   C844      1.0  0.68882  0.78421  0.27225  1.0000
  C   C845      1.0  0.53982  0.76709  0.64109  1.0000
  Fe  Fe162     1.0  0.54984  0.73845  0.46234  1.0000
  C   C846      1.0  0.64966  0.89544  0.69387  1.0000
  H   H1353     1.0  0.46365  0.83737  0.53013  1.0000
  H   H1354     1.0  0.52273  0.79821  0.66588  1.0000
  C   C847      1.0  0.67194  0.78359  0.32002  1.0000
  H   H1355     1.0  0.42997  0.80367  0.65525  1.0000
  C   C848      1.0  0.68024  0.78509  0.37543  1.0000
  H   H1356     1.0  0.41126  0.89973  0.36611  1.0000
  H   H1357     1.0  0.66100  0.90410  0.72540  1.0000
  H   H1358     1.0  0.41366  0.80087  0.36148  1.0000
  C   C849      1.0  0.43794  0.80790  0.27454  1.0000
  H   H1359     1.0  0.65794  0.91162  0.64393  1.0000
  Fe  Fe163     1.0  0.40010  0.78307  0.50189  1.0000
  C   C850      1.0  0.54205  0.79983  0.67782  1.0000
  C   C851      1.0  0.65691  0.89487  0.50749  1.0000
  H   H1360     1.0  0.45082  0.85195  0.33407  1.0000
  S   S336      1.0  0.44843  0.75425  0.50636  1.0000
  H   H1361     1.0  0.51025  0.93567  0.47855  1.0000
  H   H1362     1.0  0.46604  0.91963  0.55108  1.0000
  C   C852      1.0  0.53967  0.82386  0.34204  1.0000
  C   C853      1.0  0.41705  0.80764  0.31021  1.0000
  C   C854      1.0  0.70477  0.78579  0.38460  1.0000
  N   N83       1.0  0.66546  0.84730  0.40518  1.0000
  Fe  Fe164     1.0  0.61402  0.89387  0.41651  1.0000
  C   C855      1.0  0.56117  0.83314  0.29045  1.0000
  H   H1363     1.0  0.62547  0.91411  0.74940  1.0000
  H   H1364     1.0  0.49327  0.74418  0.32174  1.0000
  C   C856      1.0  0.52701  0.85218  0.55075  1.0000
  C   C857      1.0  0.66718  0.88644  0.55983  1.0000
  H   H1365     1.0  0.67268  0.88736  0.35581  1.0000
  C   C858      1.0  0.66152  0.72104  0.43924  1.0000
  C   C859      1.0  0.39999  0.81594  0.27987  1.0000
  H   H1366     1.0  0.68553  0.88167  0.42563  1.0000
  Fe  Fe165     1.0  0.59318  0.89106  0.29658  1.0000
  H   H1367     1.0  0.55765  0.78278  0.59914  1.0000
  S   S337      1.0  0.70414  0.72435  0.29318  1.0000
  H   H1368     1.0  0.60989  0.85745  0.66964  1.0000
  H   H1369     1.0  0.52944  0.92223  0.27496  1.0000
  Fe  Fe166     1.0  0.43888  0.77758  0.42043  1.0000
  N   N84       1.0  0.61995  0.88388  0.71672  1.0000
  C   C860      1.0  0.64021  0.78855  0.60371  1.0000
  H   H1370     1.0  0.53813  0.84274  0.57388  1.0000
  S   S338      1.0  0.61419  0.73625  0.50392  1.0000
  H   H1371     1.0  0.55960  0.77429  0.32035  1.0000
  H   H1372     1.0  0.42131  0.82737  0.71716  1.0000
  H   H1373     1.0  0.46584  0.92983  0.61526  1.0000
  Fe  Fe167     1.0  0.40345  0.73214  0.55247  1.0000
  C   C861      1.0  0.43197  0.87050  0.49227  1.0000
  H   H1374     1.0  0.50853  0.78958  0.42528  1.0000
  S   S339      1.0  0.45666  0.79392  0.31430  1.0000
  C   C862      1.0  0.68127  0.78524  0.60046  1.0000
  C   C863      1.0  0.52033  0.94052  0.51614  1.0000
  C   C864      1.0  0.68136  0.82225  0.61496  1.0000
  C   C865      1.0  0.54094  0.87986  0.51219  1.0000
  H   H1375     1.0  0.49960  0.92555  0.26805  1.0000
  S   S340      1.0  0.62309  0.87444  0.50858  1.0000
  C   C866      1.0  0.68241  0.87656  0.38383  1.0000
  C   C867      1.0  0.55195  0.91675  0.71767  1.0000
  H   H1376     1.0  0.52060  0.93716  0.63663  1.0000
  C   C868      1.0  0.71125  0.92703  0.50577  1.0000
  H   H1377     1.0  0.64323  0.82205  0.61889  1.0000
  C   C869      1.0  0.66024  0.84139  0.34867  1.0000
  H   H1378     1.0  0.71051  0.78576  0.42879  1.0000
  H   H1379     1.0  0.67624  0.72921  0.39286  1.0000
  C   C870      1.0  0.46323  0.87202  0.33364  1.0000
  C   C871      1.0  0.53224  0.77872  0.37764  1.0000
  N   N85       1.0  0.49205  0.88515  0.29854  1.0000
  H   H1380     1.0  0.64483  0.72515  0.42680  1.0000
  C   C872      1.0  0.70106  0.93538  0.45317  1.0000
  S   S341      1.0  0.45400  0.92444  0.42465  1.0000
  Fe  Fe168     1.0  0.45054  0.78382  0.54398  1.0000
  H   H1381     1.0  0.49336  0.84845  0.33438  1.0000
  H   H1382     1.0  0.67210  0.73262  0.46654  1.0000
  H   H1383     1.0  0.69169  0.77471  0.59620  1.0000
  H   H1384     1.0  0.70241  0.89564  0.59896  1.0000
  C   C873      1.0  0.65394  0.77523  0.59724  1.0000
  C   C874      1.0  0.63939  0.83742  0.44923  1.0000
  Fe  Fe169     1.0  0.60815  0.75501  0.40683  1.0000
  H   H1385     1.0  0.49809  0.74940  0.73737  1.0000
  H   H1386     1.0  0.41589  0.82793  0.54394  1.0000
  H   H1387     1.0  0.61260  0.88906  0.62280  1.0000
  C   C875      1.0  0.49952  0.83659  0.55382  1.0000
  H   H1388     1.0  0.48425  0.82319  0.68613  1.0000
  H   H1389     1.0  0.66715  0.78448  0.41239  1.0000
  H   H1390     1.0  0.54455  0.80627  0.71757  1.0000
  Fe  Fe170     1.0  0.59291  0.75420  0.53723  1.0000
  H   H1391     1.0  0.69942  0.84038  0.40753  1.0000
  H   H1392     1.0  0.64333  0.75690  0.59131  1.0000
  H   H1393     1.0  0.44603  0.87558  0.52159  1.0000
  H   H1394     1.0  0.71751  0.86849  0.71273  1.0000
  H   H1395     1.0  0.52612  0.87852  0.30678  1.0000
  S   S342      1.0  0.54639  0.92285  0.40973  1.0000
  H   H1396     1.0  0.48856  0.88634  0.46035  1.0000
  H   H1397     1.0  0.49488  0.77594  0.29664  1.0000
  C   C876      1.0  0.61445  0.90496  0.71819  1.0000
  H   H1398     1.0  0.44117  0.78047  0.69448  1.0000
  C   C877      1.0  0.41221  0.88410  0.40500  1.0000
  H   H1399     1.0  0.68686  0.69854  0.51229  1.0000
  C   C878      1.0  0.67389  0.91932  0.45405  1.0000
  H   H1400     1.0  0.46139  0.86912  0.38472  1.0000
  H   H1401     1.0  0.48260  0.70842  0.64793  1.0000
  S   S343      1.0  0.48383  0.80152  0.58986  1.0000
  C   C879      1.0  0.48521  0.84916  0.52494  1.0000
  N   N86       1.0  0.54154  0.77410  0.69652  1.0000
  H   H1402     1.0  0.52106  0.76510  0.62499  1.0000
  H   H1403     1.0  0.50471  0.91161  0.34543  1.0000
  C   C880      1.0  0.43099  0.89085  0.44166  1.0000
  H   H1404     1.0  0.50375  0.86709  0.38199  1.0000
  C   C881      1.0  0.43030  0.79062  0.70297  1.0000
  H   H1405     1.0  0.54369  0.87379  0.64998  1.0000
  H   H1406     1.0  0.56156  0.92218  0.61969  1.0000
  S   S344      1.0  0.40618  0.76056  0.59493  1.0000
  H   H1407     1.0  0.51896  0.69789  0.73212  1.0000
  C   C882      1.0  0.47010  0.82953  0.69959  1.0000
  H   H1408     1.0  0.46822  0.84265  0.65439  1.0000
  C   C883      1.0  0.48575  0.75689  0.29077  1.0000
  S   S345      1.0  0.72985  0.82246  0.60791  1.0000
  H   H1409     1.0  0.65459  0.87988  0.69401  1.0000
  H   H1410     1.0  0.59231  0.89671  0.73728  1.0000
  H   H1411     1.0  0.45367  0.88419  0.31167  1.0000
  C   C884      1.0  0.50715  0.91232  0.29631  1.0000
  H   H1412     1.0  0.48005  0.84192  0.72573  1.0000
  H   H1413     1.0  0.58330  0.86381  0.68920  1.0000
  H   H1414     1.0  0.71263  0.81461  0.73366  1.0000
  S   S346      1.0  0.72923  0.92968  0.70154  1.0000
  C   C885      1.0  0.97432  0.03966  0.16809  1.0000
  C   C886      1.0  0.97431  0.01611  0.17586  1.0000
  C   C887      1.0  0.79945  0.17047  0.17730  1.0000
  C   C888      1.0  0.94256  0.00796  0.10880  1.0000
  H   H1415     1.0  0.86060  0.10452  0.00904  1.0000
  C   C889      1.0  0.84387  0.17979  0.02655  1.0000
  S   S347      1.0  0.86226  0.01054  0.89573  1.0000
  H   H1416     1.0  0.95869  0.13298  0.82522  1.0000
  H   H1417     1.0  0.03075  0.08264  0.06411  1.0000
  H   H1418     1.0  0.03758  0.03207  0.02504  1.0000
  C   C890      1.0  0.88254  0.11445  0.00916  1.0000
  C   C891      1.0  0.00212  0.09663  0.82342  1.0000
  N   N87       1.0  0.76413  0.18878  0.93014  1.0000
  C   C892      1.0  0.78508  0.19591  0.96619  1.0000
  H   H1419     1.0  0.95215  0.95486  0.79980  1.0000
  C   C893      1.0  0.03958  0.07064  0.05685  1.0000
  H   H1420     1.0  0.93463  0.15512  0.96135  1.0000
  H   H1421     1.0  0.93034  0.17589  0.99404  1.0000
  H   H1422     1.0  0.89414  0.11350  0.97043  1.0000
  Fe  Fe171     1.0  0.78528  0.13638  0.77158  1.0000
  H   H1423     1.0  0.81197  0.96114  0.20866  1.0000
  C   C894      1.0  0.00309  0.96244  0.08962  1.0000
  S   S348      1.0  0.92164  0.98764  0.07406  1.0000
  H   H1424     1.0  0.01292  0.09437  0.78779  1.0000
  H   H1425     1.0  0.73894  0.15649  0.13586  1.0000
  H   H1426     1.0  0.87188  0.99543  0.20863  1.0000
  H   H1427     1.0  0.80255  0.19406  0.94954  1.0000
  C   C895      1.0  0.84684  0.06717  0.76550  1.0000
  C   C896      1.0  0.96595  0.19200  0.24433  1.0000
  H   H1428     1.0  0.75846  0.06654  0.78948  1.0000
  H   H1429     1.0  0.77604  0.04795  0.79765  1.0000
  H   H1430     1.0  0.01273  0.13580  0.90324  1.0000
  S   S349      1.0  0.79506  0.16979  0.80010  1.0000
  H   H1431     1.0  0.74277  0.14654  0.99207  1.0000
  C   C897      1.0  0.91777  0.14026  0.18783  1.0000
  H   H1432     1.0  0.81432  0.98325  0.12976  1.0000
  S   S350      1.0  0.81067  0.12254  0.82875  1.0000
  H   H1433     1.0  0.95861  0.98215  0.15264  1.0000
  C   C898      1.0  0.84421  0.96057  0.12047  1.0000
  H   H1434     1.0  0.00154  0.07096  0.99288  1.0000
  C   C899      1.0  0.74157  0.19205  0.95264  1.0000
  H   H1435     1.0  0.88451  0.16364  0.04683  1.0000
  S   S351      1.0  0.91622  0.04437  0.77487  1.0000
  H   H1436     1.0  0.89580  0.17844  0.93030  1.0000
  S   S352      1.0  0.94364  0.08836  0.20107  1.0000
  H   H1437     1.0  0.92485  0.14357  0.04679  1.0000
  H   H1438     1.0  0.97386  0.18343  0.21868  1.0000
  H   H1439     1.0  0.00945  0.05888  0.93871  1.0000
  C   C900      1.0  0.84441  0.18093  0.96450  1.0000
  H   H1440     1.0  0.80601  0.19117  0.14150  1.0000
  C   C901      1.0  0.00204  0.12027  0.88767  1.0000
  H   H1441     1.0  0.74842  0.06176  0.21880  1.0000
  C   C902      1.0  0.87689  0.14281  0.05186  1.0000
  H   H1442     1.0  0.88450  0.10242  0.05607  1.0000
  C   C903      1.0  0.82583  0.98083  0.16709  1.0000
  N   N88       1.0  0.85116  0.98222  0.14156  1.0000
  C   C904      1.0  0.92186  0.11398  0.76117  1.0000
  S   S353      1.0  0.92429  0.06306  0.92312  1.0000
  C   C905      1.0  0.89045  0.16125  0.18470  1.0000
  H   H1443     1.0  0.06327  0.99449  0.08172  1.0000
  C   C906      1.0  0.97407  0.10255  0.91509  1.0000
  H   H1444     1.0  0.77015  0.15710  0.92795  1.0000
  C   C907      1.0  0.97394  0.07900  0.85036  1.0000
  C   C908      1.0  0.96826  0.96576  0.89887  1.0000
  H   H1445     1.0  0.77326  0.19145  0.21694  1.0000
  C   C909      1.0  0.95984  0.08238  0.89519  1.0000
  H   H1446     1.0  0.90491  0.11522  0.78343  1.0000
  H   H1447     1.0  0.04846  0.11101  0.94484  1.0000
  H   H1448     1.0  0.87816  0.13112  0.10010  1.0000
  Fe  Fe172     1.0  0.97874  0.08333  0.22966  1.0000
  S   S354      1.0  0.96964  0.16582  0.11396  1.0000
  H   H1449     1.0  0.91974  0.12268  0.20785  1.0000
  S   S355      1.0  0.75479  0.96691  0.77965  1.0000
  S   S356      1.0  0.99442  0.05914  0.20548  1.0000
  S   S357      1.0  0.91252  0.99746  0.90706  1.0000
  C   C910      1.0  0.94344  0.03210  0.09891  1.0000
  N   N89       1.0  0.03903  0.07003  0.99314  1.0000
  H   H1450     1.0  0.73594  0.95856  0.04994  1.0000
  Fe  Fe173     1.0  0.91773  0.00638  0.80192  1.0000
  C   C911      1.0  0.02622  0.96020  0.00228  1.0000
  H   H1451     1.0  0.93212  0.03877  0.06777  1.0000
  C   C912      1.0  0.77629  0.06664  0.76637  1.0000
  H   H1452     1.0  0.05569  0.95258  0.17206  1.0000
  C   C913      1.0  0.01062  0.05898  0.98685  1.0000
  C   C914      1.0  0.01474  0.97266  0.02385  1.0000
  C   C915      1.0  0.04989  0.05300  0.98690  1.0000
  N   N90       1.0  0.79159  0.16685  0.24392  1.0000
  H   H1453     1.0  0.02849  0.01568  0.78500  1.0000
  N   N91       1.0  0.89283  0.14246  0.99958  1.0000
  C   C916      1.0  0.95902  0.04775  0.12919  1.0000
  Fe  Fe174     1.0  0.96889  0.13043  0.19115  1.0000
  H   H1454     1.0  0.73182  0.02234  0.19340  1.0000
  H   H1455     1.0  0.92391  0.09801  0.79883  1.0000
  H   H1456     1.0  0.83295  0.96236  0.08242  1.0000
  C   C917      1.0  0.88995  0.15777  0.93689  1.0000
  H   H1457     1.0  0.99727  0.03799  0.02383  1.0000
  H   H1458     1.0  0.77661  0.18262  0.01865  1.0000
  C   C918      1.0  0.93506  0.18597  0.10972  1.0000
  S   S358      1.0  0.98010  0.19516  0.85060  1.0000
  H   H1459     1.0  0.98664  0.01008  0.20467  1.0000
  H   H1460     1.0  0.90303  0.15946  0.89584  1.0000
  C   C919      1.0  0.91076  0.18455  0.13268  1.0000
  H   H1461     1.0  0.83507  0.04975  0.81096  1.0000
  H   H1462     1.0  0.88469  0.97941  0.17561  1.0000
  H   H1463     1.0  0.93914  0.14959  0.81219  1.0000
  H   H1464     1.0  0.06077  0.07954  0.06265  1.0000
  S   S359      1.0  0.87299  0.98099  0.81220  1.0000
  Fe  Fe175     1.0  0.87117  0.01841  0.79201  1.0000
  H   H1465     1.0  0.96308  0.06310  0.83570  1.0000
  H   H1466     1.0  0.85304  0.95967  0.23585  1.0000
  H   H1467     1.0  0.85493  0.13428  0.05167  1.0000
  H   H1468     1.0  0.96430  0.96487  0.94782  1.0000
  S   S360      1.0  0.82055  0.15296  0.95433  1.0000
  S   S361      1.0  0.86101  0.15970  0.21754  1.0000
  H   H1469     1.0  0.86847  0.14816  0.93327  1.0000
  H   H1470     1.0  0.85800  0.01178  0.04700  1.0000
  H   H1471     1.0  0.97972  0.94834  0.81480  1.0000
  H   H1472     1.0  0.87550  0.02538  0.09972  1.0000
  S   S362      1.0  0.85901  0.18568  0.76728  1.0000
  Fe  Fe176     1.0  0.05637  0.18148  0.79224  1.0000
  H   H1473     1.0  0.81834  0.95232  0.89302  1.0000
  H   H1474     1.0  0.82853  0.16194  0.06761  1.0000
  C   C920      1.0  0.93872  0.16390  0.13821  1.0000
  H   H1475     1.0  0.84429  0.09478  0.79906  1.0000
  H   H1476     1.0  0.96333  0.10494  0.95052  1.0000
  C   C921      1.0  0.01601  0.11773  0.84092  1.0000
  H   H1477     1.0  0.01412  0.98967  0.98963  1.0000
  S   S363      1.0  0.03832  0.97152  0.91967  1.0000
  S   S364      1.0  0.04443  0.18920  0.87417  1.0000
  H   H1478     1.0  0.73069  0.17790  0.00377  1.0000
  Fe  Fe177     1.0  0.82256  0.15787  0.85202  1.0000
  Fe  Fe178     1.0  0.90744  0.03342  0.88064  1.0000
  C   C922      1.0  0.92190  0.15481  0.00045  1.0000
  H   H1479     1.0  0.88734  0.00964  0.06327  1.0000
  H   H1480     1.0  0.02752  0.05013  0.09672  1.0000
  C   C923      1.0  0.89399  0.13915  0.21215  1.0000
  S   S365      1.0  0.05043  0.14171  0.80236  1.0000
  C   C924      1.0  0.86868  0.00843  0.08571  1.0000
  H   H1481     1.0  0.79506  0.08389  0.76592  1.0000
  H   H1482     1.0  0.78220  0.15626  0.16503  1.0000
  S   S366      1.0  0.74174  0.10703  0.78297  1.0000
  C   C925      1.0  0.05610  0.09757  0.94190  1.0000
  C   C926      1.0  0.95829  0.00017  0.14675  1.0000
  Fe  Fe179     1.0  0.86761  0.97496  0.91558  1.0000
  H   H1483     1.0  0.96281  0.98019  0.86651  1.0000
  S   S367      1.0  0.00537  0.12642  0.21181  1.0000
  H   H1484     1.0  0.83030  0.99674  0.18407  1.0000
  H   H1485     1.0  0.95965  0.06637  0.12116  1.0000
  C   C927      1.0  0.86580  0.97905  0.19264  1.0000
  H   H1486     1.0  0.99327  0.97145  0.10609  1.0000
  H   H1487     1.0  0.99056  0.97409  0.88248  1.0000
  H   H1488     1.0  0.81677  0.16693  0.17068  1.0000
  H   H1489     1.0  0.75015  0.15639  0.24253  1.0000
  H   H1490     1.0  0.04707  0.98654  0.78808  1.0000
  C   C928      1.0  0.85186  0.09253  0.75866  1.0000
  H   H1491     1.0  0.86282  0.96122  0.09974  1.0000
  C   C929      1.0  0.75340  0.16061  0.94059  1.0000
  C   C930      1.0  0.73821  0.19342  0.10609  1.0000
  H   H1492     1.0  0.90045  0.96295  0.75759  1.0000
  H   H1493     1.0  0.04972  0.05208  0.93936  1.0000
  H   H1494     1.0  0.73872  0.15495  0.91105  1.0000
  H   H1495     1.0  0.77460  0.94894  0.88022  1.0000
  H   H1496     1.0  0.05619  0.09788  0.89309  1.0000
  C   C931      1.0  0.95525  0.14785  0.78789  1.0000
  H   H1497     1.0  0.97425  0.16763  0.76970  1.0000
  H   H1498     1.0  0.73187  0.98648  0.04421  1.0000
  C   C932      1.0  0.76823  0.17110  0.25150  1.0000
  H   H1499     1.0  0.83295  0.18387  0.25242  1.0000
  H   H1500     1.0  0.87821  0.12098  0.25186  1.0000
  C   C933      1.0  0.97861  0.01142  0.38256  1.0000
  C   C934      1.0  0.75054  0.04534  0.70316  1.0000
  C   C935      1.0  0.95040  0.17624  0.49815  1.0000
  S   S368      1.0  0.85018  0.03283  0.72036  1.0000
  S   S369      1.0  0.05230  0.04211  0.35255  1.0000
  C   C936      1.0  0.02191  0.95243  0.33424  1.0000
  C   C937      1.0  0.97331  0.15049  0.52624  1.0000
  H   H1501     1.0  0.77983  0.12437  0.47052  1.0000
  S   S370      1.0  0.77684  0.07258  0.51576  1.0000
  H   H1502     1.0  0.77351  0.98957  0.60797  1.0000
  Fe  Fe180     1.0  0.83060  0.19509  0.71348  1.0000
  H   H1503     1.0  0.91560  0.10721  0.72283  1.0000
  H   H1504     1.0  0.00634  0.95379  0.61553  1.0000
  N   N92       1.0  0.05758  0.16723  0.58986  1.0000
  H   H1505     1.0  0.89429  0.98434  0.30921  1.0000
  H   H1506     1.0  0.88715  0.19665  0.56213  1.0000
  H   H1507     1.0  0.73223  0.99129  0.46521  1.0000
  C   C938      1.0  0.80838  0.02469  0.49095  1.0000
  S   S371      1.0  0.01060  0.97285  0.34660  1.0000
  H   H1508     1.0  0.05956  0.16022  0.50494  1.0000
  C   C939      1.0  0.95341  0.13071  0.51184  1.0000
  H   H1509     1.0  0.98566  0.01447  0.42470  1.0000
  Fe  Fe181     1.0  0.87809  0.12285  0.43716  1.0000
  C   C940      1.0  0.85685  0.06433  0.71325  1.0000
  H   H1510     1.0  0.91294  0.15797  0.47209  1.0000
  H   H1511     1.0  0.99346  0.00891  0.35613  1.0000
  Fe  Fe182     1.0  0.98617  0.11293  0.31552  1.0000
  N   N93       1.0  0.95080  0.98809  0.40258  1.0000
  C   C941      1.0  0.94544  0.04876  0.56754  1.0000
  S   S372      1.0  0.95187  0.12011  0.29367  1.0000
  S   S373      1.0  0.90696  0.10894  0.47272  1.0000
  Fe  Fe183     1.0  0.86288  0.16474  0.42790  1.0000
  H   H1512     1.0  0.92900  0.16451  0.70815  1.0000
  C   C942      1.0  0.05479  0.11126  0.31624  1.0000
  H   H1513     1.0  0.79144  0.00861  0.65068  1.0000
  H   H1514     1.0  0.74998  0.02622  0.73190  1.0000
  C   C943      1.0  0.01818  0.06922  0.57609  1.0000
  H   H1515     1.0  0.83725  0.04888  0.59637  1.0000
  H   H1516     1.0  0.85209  0.05983  0.51308  1.0000
  Fe  Fe184     1.0  0.84472  0.15150  0.73918  1.0000
  H   H1517     1.0  0.98140  0.01017  0.63310  1.0000
  H   H1518     1.0  0.83055  0.00361  0.62339  1.0000
  Fe  Fe185     1.0  0.03677  0.99807  0.39208  1.0000
  H   H1519     1.0  0.91058  0.00314  0.56338  1.0000
  H   H1520     1.0  0.83203  0.95342  0.47825  1.0000
  Fe  Fe186     1.0  0.81864  0.10745  0.45839  1.0000
  N   N94       1.0  0.77556  0.06872  0.70045  1.0000
  S   S374      1.0  0.82834  0.14774  0.38528  1.0000
  C   C944      1.0  0.91502  0.96762  0.71676  1.0000
  C   C945      1.0  0.90717  0.95155  0.68321  1.0000
  N   N95       1.0  0.81379  0.02264  0.55446  1.0000
  H   H1521     1.0  0.92148  0.96783  0.35799  1.0000
  H   H1522     1.0  0.89028  0.12959  0.60355  1.0000
  C   C946      1.0  0.84849  0.97019  0.43761  1.0000
  S   S375      1.0  0.01259  0.04966  0.48473  1.0000
  H   H1523     1.0  0.02178  0.13977  0.66860  1.0000
  H   H1524     1.0  0.73137  0.03289  0.39481  1.0000
  S   S376      1.0  0.00471  0.12484  0.39090  1.0000
  C   C947      1.0  0.95053  0.96354  0.44547  1.0000
  C   C948      1.0  0.78785  0.01020  0.60249  1.0000
  H   H1525     1.0  0.90385  0.04062  0.65109  1.0000
  S   S377      1.0  0.85080  0.12471  0.50691  1.0000
  C   C949      1.0  0.03061  0.15848  0.35833  1.0000
  C   C950      1.0  0.90099  0.01103  0.58742  1.0000
  H   H1526     1.0  0.94287  0.00355  0.31079  1.0000
  H   H1527     1.0  0.91053  0.97473  0.45403  1.0000
  C   C951      1.0  0.91761  0.05288  0.49317  1.0000
  H   H1528     1.0  0.74923  0.04624  0.65428  1.0000
  H   H1529     1.0  0.02337  0.08056  0.65507  1.0000
  H   H1530     1.0  0.94405  0.17688  0.26894  1.0000
  C   C952      1.0  0.79604  0.18905  0.44520  1.0000
  C   C953      1.0  0.97200  0.17341  0.51852  1.0000
  C   C954      1.0  0.04971  0.96061  0.32015  1.0000
  H   H1531     1.0  0.95531  0.04178  0.54094  1.0000
  C   C955      1.0  0.75889  0.10876  0.49220  1.0000
  H   H1532     1.0  0.77589  0.17411  0.47651  1.0000
  H   H1533     1.0  0.95534  0.11377  0.51458  1.0000
  H   H1534     1.0  0.02448  0.03492  0.71065  1.0000
  H   H1535     1.0  0.76213  0.16900  0.30099  1.0000
  C   C956      1.0  0.93170  0.99216  0.43755  1.0000
  C   C957      1.0  0.87794  0.11217  0.64858  1.0000
  H   H1536     1.0  0.95848  0.07099  0.54727  1.0000
  H   H1537     1.0  0.90797  0.03075  0.29304  1.0000
  H   H1538     1.0  0.79937  0.06989  0.62245  1.0000
  H   H1539     1.0  0.74377  0.13640  0.46866  1.0000
  H   H1540     1.0  0.77738  0.02209  0.58848  1.0000
  Fe  Fe187     1.0  0.03791  0.03451  0.45396  1.0000
  C   C958      1.0  0.87214  0.08679  0.65466  1.0000
  H   H1541     1.0  0.82763  0.03412  0.45349  1.0000
  H   H1542     1.0  0.92509  0.04508  0.46434  1.0000
  H   H1543     1.0  0.05831  0.98524  0.71563  1.0000
  C   C959      1.0  0.73854  0.11567  0.49256  1.0000
  C   C960      1.0  0.95287  0.97740  0.61424  1.0000
  C   C961      1.0  0.94243  0.98514  0.34481  1.0000
  H   H1544     1.0  0.88361  0.04419  0.59506  1.0000
  Fe  Fe188     1.0  0.92921  0.07796  0.30503  1.0000
  H   H1545     1.0  0.82322  0.06274  0.53518  1.0000
  Fe  Fe189     1.0  0.85685  0.14417  0.32388  1.0000
  C   C962      1.0  0.04887  0.18718  0.56365  1.0000
  H   H1546     1.0  0.84369  0.99945  0.45833  1.0000
  C   C963      1.0  0.89145  0.01388  0.33353  1.0000
  C   C964      1.0  0.86305  0.96586  0.39635  1.0000
  H   H1547     1.0  0.03965  0.12503  0.64780  1.0000
  H   H1548     1.0  0.99621  0.05814  0.59213  1.0000
  H   H1549     1.0  0.79404  0.11165  0.65934  1.0000
  H   H1550     1.0  0.95648  0.98186  0.31796  1.0000
  H   H1551     1.0  0.81579  0.16983  0.50257  1.0000
  C   C965      1.0  0.87694  0.01811  0.37535  1.0000
  C   C966      1.0  0.93155  0.13332  0.49222  1.0000
  H   H1552     1.0  0.81322  0.98535  0.57874  1.0000
  N   N96       1.0  0.94756  0.14005  0.73503  1.0000
  S   S378      1.0  0.89231  0.16412  0.36103  1.0000
  C   C967      1.0  0.82660  0.00593  0.57503  1.0000
  H   H1553     1.0  0.04847  0.09935  0.28744  1.0000
  C   C968      1.0  0.83241  0.04971  0.54958  1.0000
  C   C969      1.0  0.94390  0.16082  0.68620  1.0000
  C   C970      1.0  0.79973  0.06922  0.67132  1.0000
  H   H1554     1.0  0.75739  0.09371  0.68057  1.0000
  H   H1555     1.0  0.79453  0.00453  0.49284  1.0000
  H   H1556     1.0  0.84632  0.01490  0.54026  1.0000
  C   C971      1.0  0.75193  0.08181  0.51964  1.0000
  C   C972      1.0  0.81863  0.18684  0.46045  1.0000
  C   C973      1.0  0.97976  0.17401  0.33901  1.0000
  C   C974      1.0  0.92997  0.15599  0.48598  1.0000
  H   H1557     1.0  0.03647  0.18305  0.52900  1.0000
  H   H1558     1.0  0.01556  0.99539  0.65085  1.0000
  C   C975      1.0  0.03128  0.06964  0.52209  1.0000
  H   H1559     1.0  0.93636  0.15490  0.64740  1.0000
  H   H1560     1.0  0.93778  0.99455  0.48120  1.0000
  H   H1561     1.0  0.87997  0.00412  0.58085  1.0000
  H   H1562     1.0  0.97959  0.03022  0.34953  1.0000
  H   H1563     1.0  0.96294  0.95849  0.41993  1.0000
  H   H1564     1.0  0.02640  0.16196  0.44757  1.0000
  C   C976      1.0  0.90480  0.04972  0.59898  1.0000
  C   C977      1.0  0.85522  0.99628  0.42670  1.0000
  S   S379      1.0  0.88623  0.05052  0.36503  1.0000
  H   H1565     1.0  0.81890  0.08726  0.66588  1.0000
  H   H1566     1.0  0.95893  0.96593  0.48683  1.0000
  H   H1567     1.0  0.96389  0.13148  0.66528  1.0000
  H   H1568     1.0  0.94905  0.19370  0.49312  1.0000
  H   H1569     1.0  0.96781  0.98085  0.57588  1.0000
  H   H1570     1.0  0.91651  0.07186  0.58153  1.0000
  C   C978      1.0  0.05973  0.08328  0.50299  1.0000
  C   C979      1.0  0.77574  0.09369  0.66103  1.0000
  H   H1571     1.0  0.01962  0.13401  0.59666  1.0000
  C   C980      1.0  0.92616  0.95582  0.63327  1.0000
  C   C981      1.0  0.96066  0.99379  0.64728  1.0000
  S   S380      1.0  0.81841  0.16264  0.67979  1.0000
  H   H1572     1.0  0.04275  0.12154  0.31154  1.0000
  H   H1573     1.0  0.94598  0.04033  0.61879  1.0000
  H   H1574     1.0  0.93102  0.01030  0.40659  1.0000
  H   H1575     1.0  0.89697  0.04890  0.48703  1.0000
  C   C982      1.0  0.04283  0.98742  0.74093  1.0000
  C   C983      1.0  0.94179  0.98873  0.69908  1.0000
  S   S381      1.0  0.01899  0.99009  0.49147  1.0000
  H   H1576     1.0  0.77727  0.13559  0.34020  1.0000
  S   S382      1.0  0.84508  0.10257  0.39396  1.0000
  C   C984      1.0  0.03753  0.17213  0.39756  1.0000
  S   S383      1.0  0.87672  0.14728  0.69172  1.0000
  S   S384      1.0  0.96223  0.06972  0.33482  1.0000
  H   H1577     1.0  0.79865  0.03717  0.47417  1.0000
  H   H1578     1.0  0.98888  0.15706  0.68391  1.0000
  C   C985      1.0  0.86767  0.11505  0.70022  1.0000
  H   H1579     1.0  0.96338  0.18035  0.66291  1.0000
  C   C986      1.0  0.88411  0.98767  0.34334  1.0000
  C   C987      1.0  0.96932  0.13759  0.70500  1.0000
  H   H1580     1.0  0.99027  0.17789  0.37679  1.0000
  N   N97       1.0  0.91720  0.04059  0.56173  1.0000
  H   H1581     1.0  0.99006  0.14831  0.54160  1.0000
  Fe  Fe190     1.0  0.05924  0.99636  0.51024  1.0000
  C   C988      1.0  0.03345  0.14033  0.62721  1.0000
  H   H1582     1.0  0.97289  0.12236  0.74085  1.0000
  C   C989      1.0  0.04423  0.17187  0.29308  1.0000
  H   H1583     1.0  0.87999  0.08475  0.61421  1.0000
  H   H1584     1.0  0.93111  0.07512  0.47117  1.0000
  H   H1585     1.0  0.03670  0.18763  0.60223  1.0000
  N   N98       1.0  0.04367  0.01273  0.70210  1.0000
  H   H1586     1.0  0.05076  0.00953  0.61382  1.0000
  S   S385      1.0  0.95222  0.00814  0.74300  1.0000
  H   H1587     1.0  0.89898  0.00133  0.64000  1.0000
  H   H1588     1.0  0.04845  0.09691  0.36779  1.0000
  C   C990      1.0  0.03359  0.08176  0.61201  1.0000
  H   H1589     1.0  0.95812  0.15807  0.36353  1.0000
  H   H1590     1.0  0.77609  0.09636  0.61050  1.0000
  H   H1591     1.0  0.03732  0.03110  0.61043  1.0000
  H   H1592     1.0  0.80087  0.05116  0.70102  1.0000
  H   H1593     1.0  0.98910  0.16563  0.31635  1.0000
  C   C991      1.0  0.03650  0.01220  0.64158  1.0000
  H   H1594     1.0  0.80969  0.18455  0.30716  1.0000
  C   C992      1.0  0.02395  0.01574  0.73838  1.0000
  H   H1595     1.0  0.74334  0.15767  0.71901  1.0000
  H   H1596     1.0  0.03888  0.16161  0.26233  1.0000
  C   C993      1.0  0.06209  0.09506  0.59315  1.0000
  H   H1597     1.0  0.80083  0.13531  0.28500  1.0000
  H   H1598     1.0  0.73182  0.04418  0.72516  1.0000
  H   H1599     1.0  0.94953  0.19514  0.35287  1.0000
  C   C994      1.0  0.78370  0.13929  0.28937  1.0000
  H   H1600     1.0  0.76630  0.12413  0.27980  1.0000
  C   C995      1.0  0.81492  0.18650  0.25747  1.0000
  S   S386      1.0  0.03267  0.19635  0.73112  1.0000
  H   H1601     1.0  0.00265  0.99939  0.74861  1.0000
  H   H1602     1.0  0.02270  0.96966  0.75035  1.0000
  H   H1603     1.0  0.81696  0.37929  0.05800  1.0000
  H   H1604     1.0  0.01811  0.22609  0.91099  1.0000
  H   H1605     1.0  0.03243  0.27324  0.89014  1.0000
  Fe  Fe191     1.0  0.74761  0.26140  0.18299  1.0000
  C   C996      1.0  0.75591  0.39951  0.18528  1.0000
  N   N99       1.0  0.86826  0.29672  0.98871  1.0000
  H   H1606     1.0  0.76679  0.38125  0.01680  1.0000
  Fe  Fe192     1.0  0.93998  0.28426  0.90367  1.0000
  H   H1607     1.0  0.05821  0.39161  0.18891  1.0000
  S   S387      1.0  0.85002  0.44337  0.84881  1.0000
  C   C997      1.0  0.04729  0.37759  0.86492  1.0000
  H   H1608     1.0  0.86343  0.20032  0.08407  1.0000
  H   H1609     1.0  0.90179  0.29808  0.93697  1.0000
  S   S388      1.0  0.00106  0.28353  0.23414  1.0000
  C   C998      1.0  0.02280  0.30362  0.10459  1.0000
  C   C999      1.0  0.85051  0.26741  0.01156  1.0000
  C   C1000     1.0  0.73272  0.41618  0.11079  1.0000
  H   H1610     1.0  0.98676  0.38192  0.85136  1.0000
  H   H1611     1.0  0.80367  0.34414  0.07991  1.0000
  H   H1612     1.0  0.80728  0.34966  0.88251  1.0000
  H   H1613     1.0  0.83538  0.36299  0.14892  1.0000
  C   C1001     1.0  0.02728  0.26665  0.94313  1.0000
  H   H1614     1.0  0.00200  0.22903  0.06557  1.0000
  Fe  Fe193     1.0  0.02264  0.20605  0.81045  1.0000
  C   C1002     1.0  0.04246  0.31094  0.05090  1.0000
  S   S389      1.0  0.81135  0.42066  0.15671  1.0000
  H   H1615     1.0  0.87889  0.30337  0.89029  1.0000
  H   H1616     1.0  0.86746  0.29451  0.08443  1.0000
  C   C1003     1.0  0.84075  0.35145  0.18774  1.0000
  H   H1617     1.0  0.96676  0.21005  0.20736  1.0000
  C   C1004     1.0  0.00541  0.42393  0.82960  1.0000
  H   H1618     1.0  0.89571  0.32423  0.02295  1.0000
  H   H1619     1.0  0.89955  0.24322  0.88038  1.0000
  H   H1620     1.0  0.03963  0.31818  0.00287  1.0000
  C   C1005     1.0  0.85616  0.31959  0.22997  1.0000
  C   C1006     1.0  0.79549  0.40713  0.88053  1.0000
  S   S390      1.0  0.75650  0.26741  0.93338  1.0000
  H   H1621     1.0  0.86241  0.25689  0.02256  1.0000
  H   H1622     1.0  0.75016  0.37439  0.09481  1.0000
  C   C1007     1.0  0.06163  0.36811  0.83992  1.0000
  S   S391      1.0  0.05834  0.24781  0.76653  1.0000
  H   H1623     1.0  0.86478  0.20518  0.86374  1.0000
  H   H1624     1.0  0.74861  0.43891  0.89140  1.0000
  H   H1625     1.0  0.93030  0.24307  0.81154  1.0000
  H   H1626     1.0  0.73101  0.22661  0.08332  1.0000
  H   H1627     1.0  0.04065  0.28427  0.95243  1.0000
  Fe  Fe194     1.0  0.77874  0.23950  0.13375  1.0000
  C   C1008     1.0  0.77444  0.34978  0.16344  1.0000
  Fe  Fe195     1.0  0.00038  0.32438  0.83551  1.0000
  H   H1628     1.0  0.05248  0.28487  0.22307  1.0000
  C   C1009     1.0  0.86361  0.20146  0.03589  1.0000
  C   C1010     1.0  0.73666  0.42971  0.86328  1.0000
  C   C1011     1.0  0.78111  0.41985  0.14191  1.0000
  C   C1012     1.0  0.94430  0.23923  0.78927  1.0000
  H   H1629     1.0  0.83605  0.30232  0.02042  1.0000
  C   C1013     1.0  0.05975  0.25119  0.95663  1.0000
  C   C1014     1.0  0.91260  0.40991  0.24807  1.0000
  H   H1630     1.0  0.04312  0.41041  0.19853  1.0000
  S   S392      1.0  0.75936  0.25919  0.80043  1.0000
  H   H1631     1.0  0.83435  0.25869  0.05581  1.0000
  C   C1015     1.0  0.83697  0.35175  0.24793  1.0000
  H   H1632     1.0  0.75363  0.31300  0.11574  1.0000
  H   H1633     1.0  0.77774  0.33255  0.18712  1.0000
  H   H1634     1.0  0.76969  0.35373  0.75948  1.0000
  H   H1635     1.0  0.73078  0.32519  0.12280  1.0000
  Fe  Fe196     1.0  0.96082  0.30039  0.76142  1.0000
  H   H1636     1.0  0.92781  0.41463  0.20628  1.0000
  C   C1016     1.0  0.88231  0.30227  0.03845  1.0000
  H   H1637     1.0  0.95103  0.20425  0.07080  1.0000
  C   C1017     1.0  0.85008  0.33520  0.17882  1.0000
  H   H1638     1.0  0.90247  0.32956  0.90969  1.0000
  S   S393      1.0  0.77367  0.21378  0.08250  1.0000
  C   C1018     1.0  0.97009  0.21640  0.79963  1.0000
  H   H1639     1.0  0.74922  0.33368  0.04453  1.0000
  H   H1640     1.0  0.86251  0.30627  0.22375  1.0000
  Fe  Fe197     1.0  0.95761  0.34034  0.80569  1.0000
  C   C1019     1.0  0.88395  0.22431  0.98322  1.0000
  H   H1641     1.0  0.01537  0.20299  0.98907  1.0000
  Fe  Fe198     1.0  0.78915  0.28028  0.84882  1.0000
  C   C1020     1.0  0.82206  0.41189  0.86598  1.0000
  C   C1021     1.0  0.02628  0.29407  0.16691  1.0000
  S   S394      1.0  0.74923  0.32918  0.91966  1.0000
  H   H1642     1.0  0.75506  0.38481  0.22999  1.0000
  C   C1022     1.0  0.82631  0.39120  0.86620  1.0000
  S   S395      1.0  0.84792  0.32980  0.10928  1.0000
  C   C1023     1.0  0.01316  0.22081  0.96338  1.0000
  C   C1024     1.0  0.75796  0.43685  0.06841  1.0000
  C   C1025     1.0  0.83559  0.27088  0.79209  1.0000
  H   H1643     1.0  0.75268  0.37775  0.90974  1.0000
  H   H1644     1.0  0.79202  0.42302  0.87978  1.0000
  H   H1645     1.0  0.84052  0.30584  0.93899  1.0000
  H   H1646     1.0  0.00477  0.30515  0.09790  1.0000
  Fe  Fe199     1.0  0.80946  0.29058  0.14737  1.0000
  S   S396      1.0  0.00967  0.44261  0.24849  1.0000
  H   H1647     1.0  0.84689  0.39487  0.85494  1.0000
  C   C1026     1.0  0.80396  0.36569  0.88163  1.0000
  H   H1648     1.0  0.74918  0.21264  0.94930  1.0000
  H   H1649     1.0  0.05025  0.41003  0.88561  1.0000
  S   S397      1.0  0.92656  0.29971  0.81579  1.0000
  H   H1650     1.0  0.02540  0.36548  0.88373  1.0000
  H   H1651     1.0  0.78647  0.39654  0.06347  1.0000
  H   H1652     1.0  0.03651  0.25239  0.06009  1.0000
  C   C1027     1.0  0.77745  0.36085  0.89813  1.0000
  H   H1653     1.0  0.76208  0.20135  0.83106  1.0000
  H   H1654     1.0  0.85608  0.25110  0.84347  1.0000
  H   H1655     1.0  0.00585  0.26167  0.95833  1.0000
  C   C1028     1.0  0.88413  0.22560  0.92118  1.0000
  S   S398      1.0  0.74558  0.22188  0.22117  1.0000
  N   N100      1.0  0.03098  0.24354  0.97773  1.0000
  H   H1656     1.0  0.86128  0.23455  0.76275  1.0000
  H   H1657     1.0  0.89522  0.29278  0.04892  1.0000
  H   H1658     1.0  0.01301  0.23731  0.21981  1.0000
  C   C1029     1.0  0.95053  0.22012  0.82703  1.0000
  H   H1659     1.0  0.99124  0.21435  0.97869  1.0000
  C   C1030     1.0  0.76896  0.37769  0.06660  1.0000
  H   H1660     1.0  0.86432  0.33191  0.95871  1.0000
  C   C1031     1.0  0.78210  0.43848  0.08356  1.0000
  S   S399      1.0  0.04433  0.33734  0.83474  1.0000
  C   C1032     1.0  0.85156  0.30977  0.97603  1.0000
  C   C1033     1.0  0.84902  0.25622  0.80041  1.0000
  C   C1034     1.0  0.96848  0.40086  0.78704  1.0000
  H   H1661     1.0  0.82149  0.20742  0.22346  1.0000
  H   H1662     1.0  0.02666  0.21831  0.07531  1.0000
  H   H1663     1.0  0.01942  0.42356  0.85943  1.0000
  S   S400      1.0  0.82725  0.27792  0.85487  1.0000
  H   H1664     1.0  0.03169  0.30221  0.77263  1.0000
  C   C1035     1.0  0.02375  0.23550  0.04782  1.0000
  C   C1036     1.0  0.06133  0.40284  0.86582  1.0000
  S   S401      1.0  0.90909  0.25099  0.99550  1.0000
  S   S402      1.0  0.96891  0.32497  0.89744  1.0000
  S   S403      1.0  0.77848  0.27773  0.23540  1.0000
  H   H1665     1.0  0.75515  0.34523  0.19266  1.0000
  H   H1666     1.0  0.01964  0.21048  0.23000  1.0000
  S   S404      1.0  0.77871  0.27812  0.09147  1.0000
  H   H1667     1.0  0.79356  0.21705  0.95961  1.0000
  Fe  Fe200     1.0  0.75731  0.30560  0.87524  1.0000
  H   H1668     1.0  0.78362  0.22786  0.85206  1.0000
  S   S405      1.0  0.81155  0.25287  0.18398  1.0000
  H   H1669     1.0  0.84000  0.26241  0.97479  1.0000
  C   C1037     1.0  0.98684  0.40037  0.82521  1.0000
  H   H1670     1.0  0.94165  0.20969  0.87839  1.0000
  C   C1038     1.0  0.88878  0.30744  0.92872  1.0000
  S   S406      1.0  0.97245  0.28220  0.85036  1.0000
  N   N101      1.0  0.77339  0.35473  0.09596  1.0000
  C   C1039     1.0  0.04952  0.29212  0.17531  1.0000
  C   C1040     1.0  0.77322  0.38153  0.89739  1.0000
  S   S407      1.0  0.79238  0.31999  0.79482  1.0000
  H   H1671     1.0  0.79139  0.36759  0.16607  1.0000
  H   H1672     1.0  0.01518  0.43850  0.12818  1.0000
  H   H1673     1.0  0.79922  0.36453  0.00807  1.0000
  C   C1041     1.0  0.75073  0.33060  0.09470  1.0000
  C   C1042     1.0  0.73693  0.44555  0.80178  1.0000
  C   C1043     1.0  0.79944  0.36089  0.05898  1.0000
  C   C1044     1.0  0.05903  0.40515  0.21122  1.0000
  H   H1674     1.0  0.78212  0.38454  0.76780  1.0000
  C   C1045     1.0  0.73167  0.39742  0.16921  1.0000
  C   C1046     1.0  0.85168  0.24662  0.75509  1.0000
  H   H1675     1.0  0.90441  0.42371  0.23049  1.0000
  H   H1676     1.0  0.73289  0.36539  0.82118  1.0000
  C   C1047     1.0  0.77664  0.20679  0.86094  1.0000
  C   C1048     1.0  0.86434  0.20401  0.91175  1.0000
  H   H1677     1.0  0.90806  0.20175  0.11146  1.0000
  S   S408      1.0  0.94604  0.37211  0.77788  1.0000
  H   H1678     1.0  0.73410  0.43078  0.22688  1.0000
  H   H1679     1.0  0.79502  0.20653  0.84320  1.0000
  C   C1049     1.0  0.96856  0.42483  0.75400  1.0000
  S   S409      1.0  0.76557  0.31869  0.64504  1.0000
  H   H1680     1.0  0.91245  0.40676  0.39901  1.0000
  S   S410      1.0  0.82053  0.38229  0.43428  1.0000
  C   C1050     1.0  0.95784  0.25499  0.72415  1.0000
  N   N102      1.0  0.91260  0.34724  0.64396  1.0000
  C   C1051     1.0  0.89639  0.34164  0.70538  1.0000
  H   H1681     1.0  0.90801  0.24337  0.64067  1.0000
  C   C1052     1.0  0.97080  0.21001  0.32344  1.0000
  H   H1682     1.0  0.92186  0.37417  0.33668  1.0000
  C   C1053     1.0  0.74056  0.43448  0.33849  1.0000
  Fe  Fe201     1.0  0.01174  0.23963  0.46166  1.0000
  N   N103      1.0  0.80237  0.25683  0.50588  1.0000
  C   C1054     1.0  0.85339  0.32072  0.28975  1.0000
  C   C1055     1.0  0.78345  0.24693  0.56785  1.0000
  C   C1056     1.0  0.73104  0.26008  0.55330  1.0000
  H   H1683     1.0  0.80418  0.27245  0.40456  1.0000
  H   H1684     1.0  0.79534  0.40679  0.47305  1.0000
  H   H1685     1.0  0.87411  0.32917  0.71156  1.0000
  C   C1057     1.0  0.73708  0.26844  0.64858  1.0000
  C   C1058     1.0  0.00928  0.36790  0.52963  1.0000
  C   C1059     1.0  0.75835  0.30556  0.54276  1.0000
  H   H1686     1.0  0.88616  0.30827  0.64796  1.0000
  H   H1687     1.0  0.73609  0.34346  0.69168  1.0000
  C   C1060     1.0  0.93493  0.22798  0.57966  1.0000
  H   H1688     1.0  0.06325  0.41358  0.64707  1.0000
  C   C1061     1.0  0.03774  0.38162  0.51253  1.0000
  H   H1689     1.0  0.78745  0.21770  0.50864  1.0000
  S   S411      1.0  0.03913  0.25736  0.36347  1.0000
  S   S412      1.0  0.80501  0.42204  0.32451  1.0000
  H   H1690     1.0  0.04685  0.29102  0.63095  1.0000
  S   S413      1.0  0.84142  0.23706  0.64927  1.0000
  Fe  Fe202     1.0  0.82344  0.36606  0.36286  1.0000
  C   C1062     1.0  0.92129  0.24909  0.48804  1.0000
  C   C1063     1.0  0.82659  0.27761  0.73621  1.0000
  H   H1691     1.0  0.00804  0.29349  0.72533  1.0000
  H   H1692     1.0  0.94759  0.39793  0.35952  1.0000
  H   H1693     1.0  0.92264  0.23625  0.46563  1.0000
  C   C1064     1.0  0.04599  0.30978  0.61885  1.0000
  H   H1694     1.0  0.89612  0.41266  0.53435  1.0000
  C   C1065     1.0  0.98229  0.23070  0.73321  1.0000
  H   H1695     1.0  0.02067  0.42280  0.70337  1.0000
  S   S414      1.0  0.87252  0.20236  0.43789  1.0000
  C   C1066     1.0  0.90414  0.36112  0.58985  1.0000
  H   H1696     1.0  0.95563  0.24609  0.56300  1.0000
  H   H1697     1.0  0.02346  0.35409  0.28869  1.0000
  C   C1067     1.0  0.03698  0.34755  0.48186  1.0000
  C   C1068     1.0  0.93743  0.39572  0.32015  1.0000
  S   S415      1.0  0.99098  0.34261  0.74288  1.0000
  C   C1069     1.0  0.74033  0.36448  0.67457  1.0000
  H   H1698     1.0  0.77236  0.41674  0.65634  1.0000
  S   S416      1.0  0.99890  0.42049  0.43359  1.0000
  H   H1699     1.0  0.78091  0.26324  0.57181  1.0000
  C   C1070     1.0  0.90800  0.32174  0.64347  1.0000
  H   H1700     1.0  0.88205  0.34879  0.59368  1.0000
  C   C1071     1.0  0.02858  0.29698  0.73102  1.0000
  C   C1072     1.0  0.94190  0.36464  0.63692  1.0000
  H   H1701     1.0  0.89544  0.38906  0.26294  1.0000
  H   H1702     1.0  0.86871  0.24362  0.33591  1.0000
  H   H1703     1.0  0.76286  0.23047  0.57308  1.0000
  H   H1704     1.0  0.95426  0.42528  0.72480  1.0000
  C   C1073     1.0  0.93362  0.44625  0.46593  1.0000
  C   C1074     1.0  0.94612  0.44122  0.28146  1.0000
  C   C1075     1.0  0.77972  0.40963  0.49189  1.0000
  H   H1705     1.0  0.98621  0.26190  0.64447  1.0000
  C   C1076     1.0  0.90373  0.40455  0.35781  1.0000
  C   C1077     1.0  0.75235  0.39271  0.49720  1.0000
  Fe  Fe203     1.0  0.01164  0.29095  0.44011  1.0000
  C   C1078     1.0  0.74731  0.28763  0.51443  1.0000
  C   C1079     1.0  0.88723  0.21078  0.58179  1.0000
  C   C1080     1.0  0.99463  0.34406  0.52278  1.0000
  C   C1081     1.0  0.79055  0.26519  0.45202  1.0000
  H   H1706     1.0  0.90775  0.38052  0.58911  1.0000
  N   N104      1.0  0.05439  0.39227  0.28180  1.0000
  H   H1707     1.0  0.86665  0.42103  0.46415  1.0000
  H   H1708     1.0  0.99732  0.22771  0.71163  1.0000
  H   H1709     1.0  0.93593  0.21428  0.55990  1.0000
  H   H1710     1.0  0.89824  0.25932  0.57236  1.0000
  C   C1082     1.0  0.03484  0.43791  0.65528  1.0000
  H   H1711     1.0  0.80827  0.44277  0.50811  1.0000
  N   N105      1.0  0.91427  0.23531  0.55911  1.0000
  H   H1712     1.0  0.99857  0.37569  0.54822  1.0000
  H   H1713     1.0  0.02347  0.22339  0.28947  1.0000
  H   H1714     1.0  0.04766  0.33979  0.46288  1.0000
  S   S417      1.0  0.95454  0.43825  0.51223  1.0000
  H   H1715     1.0  0.97255  0.33344  0.53610  1.0000
  H   H1716     1.0  0.75096  0.29521  0.46253  1.0000
  C   C1083     1.0  0.79948  0.21051  0.38970  1.0000
  H   H1717     1.0  0.75653  0.37647  0.62864  1.0000
  S   S418      1.0  0.84861  0.40676  0.28225  1.0000
  C   C1084     1.0  0.02663  0.36852  0.30992  1.0000
  N   N106      1.0  0.04991  0.31849  0.67154  1.0000
  H   H1718     1.0  0.87112  0.21547  0.56677  1.0000
  H   H1719     1.0  0.98312  0.21642  0.35638  1.0000
  C   C1085     1.0  0.05161  0.37134  0.48940  1.0000
  H   H1720     1.0  0.04184  0.41800  0.29889  1.0000
  H   H1721     1.0  0.90555  0.25399  0.47096  1.0000
  H   H1722     1.0  0.02817  0.27764  0.74390  1.0000
  H   H1723     1.0  0.93015  0.21758  0.63312  1.0000
  C   C1086     1.0  0.82972  0.26844  0.69026  1.0000
  H   H1724     1.0  0.83846  0.27428  0.53764  1.0000
  H   H1725     1.0  0.90173  0.33069  0.74754  1.0000
  H   H1726     1.0  0.81530  0.22797  0.54541  1.0000
  H   H1727     1.0  0.79016  0.38515  0.69035  1.0000
  C   C1087     1.0  0.77387  0.37466  0.73565  1.0000
  H   H1728     1.0  0.88122  0.19988  0.63500  1.0000
  H   H1729     1.0  0.05392  0.40831  0.72891  1.0000
  S   S419      1.0  0.98943  0.30552  0.48506  1.0000
  S   S420      1.0  0.98438  0.25521  0.42319  1.0000
  H   H1730     1.0  0.75872  0.41088  0.73595  1.0000
  H   H1731     1.0  0.82574  0.29639  0.50104  1.0000
  H   H1732     1.0  0.95330  0.40121  0.27866  1.0000
  Fe  Fe204     1.0  0.01414  0.27646  0.32677  1.0000
  Fe  Fe205     1.0  0.03932  0.43728  0.45709  1.0000
  H   H1733     1.0  0.91597  0.36582  0.54260  1.0000
  H   H1734     1.0  0.94121  0.26811  0.46884  1.0000
  H   H1735     1.0  0.02580  0.30575  0.60866  1.0000
  C   C1088     1.0  0.91351  0.25326  0.58702  1.0000
  N   N107      1.0  0.98182  0.19861  0.29063  1.0000
  C   C1089     1.0  0.97585  0.24985  0.69513  1.0000
  C   C1090     1.0  0.75438  0.40306  0.69853  1.0000
  C   C1091     1.0  0.84843  0.22850  0.36660  1.0000
  Fe  Fe206     1.0  0.78276  0.38014  0.40328  1.0000
  H   H1736     1.0  0.95463  0.36987  0.59033  1.0000
  H   H1737     1.0  0.85823  0.30876  0.32907  1.0000
  H   H1738     1.0  0.77040  0.32690  0.51266  1.0000
  S   S421      1.0  0.03955  0.31318  0.34134  1.0000
  Fe  Fe207     1.0  0.84269  0.42293  0.35057  1.0000
  H   H1739     1.0  0.79107  0.23906  0.60952  1.0000
  C   C1092     1.0  0.00844  0.33405  0.49817  1.0000
  S   S422      1.0  0.77082  0.21247  0.37140  1.0000
  H   H1740     1.0  0.84314  0.28845  0.45178  1.0000
  H   H1741     1.0  0.94602  0.38386  0.63855  1.0000
  Fe  Fe208     1.0  0.77823  0.23892  0.26796  1.0000
  C   C1093     1.0  0.82569  0.23034  0.35040  1.0000
  H   H1742     1.0  0.82189  0.27294  0.64829  1.0000
  H   H1743     1.0  0.82849  0.24726  0.30813  1.0000
  S   S423      1.0  0.03733  0.27422  0.48453  1.0000
  H   H1744     1.0  0.90011  0.36052  0.70823  1.0000
  H   H1745     1.0  0.86761  0.44223  0.65000  1.0000
  C   C1094     1.0  0.05822  0.19916  0.37150  1.0000
  C   C1095     1.0  0.78712  0.43039  0.51092  1.0000
  S   S424      1.0  0.78410  0.36087  0.33749  1.0000
  H   H1746     1.0  0.81665  0.28940  0.72902  1.0000
  H   H1747     1.0  0.78728  0.28181  0.45070  1.0000
  S   S425      1.0  0.83935  0.33792  0.37346  1.0000
  H   H1748     1.0  0.94916  0.35468  0.67630  1.0000
  C   C1096     1.0  0.90523  0.42958  0.48765  1.0000
  H   H1749     1.0  0.77050  0.24831  0.45607  1.0000
  C   C1097     1.0  0.80688  0.23521  0.50481  1.0000
  Fe  Fe209     1.0  0.80945  0.40307  0.26147  1.0000
  N   N108      1.0  0.92498  0.41286  0.30185  1.0000
  C   C1098     1.0  0.84353  0.33667  0.29885  1.0000
  H   H1750     1.0  0.93377  0.27185  0.57150  1.0000
  C   C1099     1.0  0.73971  0.41757  0.54106  1.0000
  C   C1100     1.0  0.82864  0.27999  0.49885  1.0000
  C   C1101     1.0  0.88851  0.43433  0.44804  1.0000
  H   H1751     1.0  0.01072  0.37430  0.30155  1.0000
  C   C1102     1.0  0.76734  0.43507  0.53325  1.0000
  C   C1103     1.0  0.84482  0.20659  0.42130  1.0000
  C   C1104     1.0  0.73217  0.39624  0.52320  1.0000
  H   H1752     1.0  0.02271  0.35758  0.36284  1.0000
  H   H1753     1.0  0.95658  0.44401  0.32008  1.0000
  C   C1105     1.0  0.75297  0.29602  0.60993  1.0000
  H   H1754     1.0  0.73671  0.40471  0.68343  1.0000
  H   H1755     1.0  0.02782  0.33948  0.64328  1.0000
  S   S426      1.0  0.95741  0.28486  0.68547  1.0000
  H   H1756     1.0  0.91386  0.31059  0.68428  1.0000
  N   N109      1.0  0.74887  0.37517  0.72283  1.0000
  H   H1757     1.0  0.75889  0.43692  0.31044  1.0000
  C   C1106     1.0  0.84149  0.25220  0.70078  1.0000
  H   H1758     1.0  0.02934  0.42840  0.62124  1.0000
  S   S427      1.0  0.74400  0.36814  0.46849  1.0000
  H   H1759     1.0  0.92025  0.32522  0.59830  1.0000
  H   H1760     1.0  0.88733  0.38328  0.37470  1.0000
  H   H1761     1.0  0.89382  0.41699  0.34555  1.0000
  H   H1762     1.0  0.82156  0.24221  0.45935  1.0000
  C   C1107     1.0  0.04783  0.34294  0.65395  1.0000
  H   H1763     1.0  0.97051  0.22771  0.28825  1.0000
  H   H1764     1.0  0.74060  0.42628  0.39013  1.0000
  H   H1765     1.0  0.04969  0.34945  0.69373  1.0000
  H   H1766     1.0  0.82933  0.44566  0.60575  1.0000
  H   H1767     1.0  0.73148  0.27877  0.27553  1.0000
  S   S428      1.0  0.05589  0.41255  0.51584  1.0000
  C   C1108     1.0  0.05708  0.41144  0.30894  1.0000
  H   H1768     1.0  0.05392  0.40237  0.36216  1.0000
  H   H1769     1.0  0.73252  0.26089  0.70036  1.0000
  H   H1770     1.0  0.06196  0.32534  0.57339  1.0000
  S   S429      1.0  0.99698  0.19790  0.53665  1.0000
  H   H1771     1.0  0.82822  0.36314  0.25494  1.0000
  C   C1109     1.0  0.01075  0.21833  0.25587  1.0000
  Fe  Fe210     1.0  0.06301  0.29309  0.38347  1.0000
  Fe  Fe211     1.0  0.76066  0.29836  0.75101  1.0000
  H   H1772     1.0  0.05736  0.44560  0.75231  1.0000
  H   H1773     1.0  0.73111  0.39156  0.32033  1.0000
  C   C1110     1.0  0.86536  0.61153  0.16450  1.0000
  H   H1774     1.0  0.85196  0.56707  0.10285  1.0000
  H   H1775     1.0  0.73221  0.53198  0.23689  1.0000
  H   H1776     1.0  0.85547  0.64372  0.02201  1.0000
  H   H1777     1.0  0.81771  0.53306  0.07383  1.0000
  H   H1778     1.0  0.96210  0.44849  0.23801  1.0000
  H   H1779     1.0  0.88426  0.69488  0.93844  1.0000
  H   H1780     1.0  0.84394  0.59473  0.18707  1.0000
  C   C1111     1.0  0.73240  0.52376  0.94411  1.0000
  C   C1112     1.0  0.78046  0.54552  0.94022  1.0000
  H   H1781     1.0  0.78000  0.56384  0.93610  1.0000
  H   H1782     1.0  0.90925  0.52695  0.08568  1.0000
  S   S430      1.0  0.82136  0.51634  0.97581  1.0000
  S   S431      1.0  0.86675  0.51293  0.84131  1.0000
  C   C1113     1.0  0.05853  0.45812  0.08790  1.0000
  S   S432      1.0  0.82372  0.53337  0.79317  1.0000
  C   C1114     1.0  0.03534  0.45068  0.13239  1.0000
  C   C1115     1.0  0.03827  0.45733  0.18484  1.0000
  S   S433      1.0  0.75443  0.60495  0.97963  1.0000
  C   C1116     1.0  0.85725  0.56616  0.05818  1.0000
  S   S434      1.0  0.75724  0.48061  0.76931  1.0000
  H   H1783     1.0  0.73208  0.54230  0.93833  1.0000
  S   S435      1.0  0.96184  0.68443  0.94823  1.0000
  H   H1784     1.0  0.80280  0.53738  0.23025  1.0000
  H   H1785     1.0  0.77679  0.55435  0.16349  1.0000
  C   C1117     1.0  0.85001  0.64373  0.13686  1.0000
  H   H1786     1.0  0.96414  0.62404  0.78983  1.0000
  C   C1118     1.0  0.84483  0.54415  0.98669  1.0000
  C   C1119     1.0  0.85363  0.62046  0.80301  1.0000
  C   C1120     1.0  0.96761  0.61249  0.76633  1.0000
  C   C1121     1.0  0.89561  0.65707  0.08592  1.0000
  C   C1122     1.0  0.85678  0.62739  0.06003  1.0000
  S   S436      1.0  0.78387  0.60393  0.09934  1.0000
  S   S437      1.0  0.74189  0.53421  0.08613  1.0000
  Fe  Fe212     1.0  0.75251  0.60944  0.14438  1.0000
  C   C1123     1.0  0.88768  0.51887  0.08254  1.0000
  H   H1787     1.0  0.88369  0.53582  0.06701  1.0000
  C   C1124     1.0  0.87481  0.47530  0.16523  1.0000
  C   C1125     1.0  0.75919  0.50467  0.92541  1.0000
  H   H1788     1.0  0.04067  0.56453  0.19025  1.0000
  Fe  Fe213     1.0  0.94576  0.66464  0.80641  1.0000
  S   S438      1.0  0.96362  0.64599  0.87951  1.0000
  H   H1789     1.0  0.89904  0.68875  0.23980  1.0000
  C   C1126     1.0  0.83788  0.54679  0.04200  1.0000
  H   H1790     1.0  0.76616  0.56522  0.83239  1.0000
  H   H1791     1.0  0.90985  0.59695  0.92640  1.0000
  C   C1127     1.0  0.88983  0.58283  0.95883  1.0000
  H   H1792     1.0  0.95493  0.56624  0.86748  1.0000
  H   H1793     1.0  0.80837  0.68746  0.00877  1.0000
  H   H1794     1.0  0.80138  0.55209  0.91495  1.0000
  H   H1795     1.0  0.88541  0.51163  0.04406  1.0000
  N   N110      1.0  0.94322  0.58581  0.78641  1.0000
  H   H1796     1.0  0.89279  0.51612  0.20040  1.0000
  C   C1128     1.0  0.80571  0.68439  0.20235  1.0000
  H   H1797     1.0  0.74862  0.48876  0.10960  1.0000
  Fe  Fe214     1.0  0.78620  0.63482  0.00723  1.0000
  H   H1798     1.0  0.89770  0.67486  0.04507  1.0000
  H   H1799     1.0  0.75407  0.49199  0.97805  1.0000
  H   H1800     1.0  0.83411  0.50212  0.12763  1.0000
  S   S439      1.0  0.75711  0.64269  0.05416  1.0000
  C   C1129     1.0  0.99746  0.68113  0.07167  1.0000
  C   C1130     1.0  0.83258  0.69093  0.76207  1.0000
  H   H1801     1.0  0.93480  0.57984  0.88490  1.0000
  H   H1802     1.0  0.86092  0.45924  0.21276  1.0000
  Fe  Fe215     1.0  0.99074  0.68734  0.87148  1.0000
  S   S440      1.0  0.03153  0.47800  0.79451  1.0000
  H   H1803     1.0  0.77945  0.50849  0.90435  1.0000
  H   H1804     1.0  0.80154  0.45410  0.04958  1.0000
  Fe  Fe216     1.0  0.79724  0.49264  0.79631  1.0000
  H   H1805     1.0  0.84000  0.60827  0.85093  1.0000
  H   H1806     1.0  0.77540  0.47222  0.17504  1.0000
  H   H1807     1.0  0.90899  0.65085  0.06791  1.0000
  C   C1131     1.0  0.78994  0.50327  0.20853  1.0000
  H   H1808     1.0  0.82850  0.62718  0.15959  1.0000
  S   S441      1.0  0.80145  0.47035  0.89245  1.0000
  H   H1809     1.0  0.87714  0.60379  0.14687  1.0000
  C   C1132     1.0  0.91960  0.58916  0.77294  1.0000
  C   C1133     1.0  0.88336  0.58402  0.01699  1.0000
  H   H1810     1.0  0.91894  0.54966  0.87305  1.0000
  Fe  Fe217     1.0  0.05881  0.64558  0.22300  1.0000
  C   C1134     1.0  0.76607  0.54611  0.84301  1.0000
  S   S442      1.0  0.74818  0.60788  0.24339  1.0000
  C   C1135     1.0  0.76700  0.63905  0.24536  1.0000
  Fe  Fe218     1.0  0.83794  0.47429  0.83734  1.0000
  H   H1811     1.0  0.83631  0.60906  0.07891  1.0000
  H   H1812     1.0  0.90099  0.56969  0.78462  1.0000
  S   S443      1.0  0.90794  0.60707  0.03978  1.0000
  S   S444      1.0  0.82788  0.66491  0.94221  1.0000
  N   N111      1.0  0.86693  0.63493  0.11180  1.0000
  H   H1813     1.0  0.99892  0.66766  0.11716  1.0000
  H   H1814     1.0  0.75117  0.53486  0.82039  1.0000
  Fe  Fe219     1.0  0.82969  0.51102  0.88696  1.0000
  C   C1136     1.0  0.79149  0.65953  0.19920  1.0000
  H   H1815     1.0  0.85783  0.65072  0.17378  1.0000
  C   C1137     1.0  0.79072  0.52667  0.20452  1.0000
  H   H1816     1.0  0.97713  0.67940  0.08132  1.0000
  H   H1817     1.0  0.79943  0.65627  0.16122  1.0000
  C   C1138     1.0  0.84034  0.48680  0.13815  1.0000
  Fe  Fe220     1.0  0.93378  0.64432  0.95064  1.0000
  S   S445      1.0  0.05055  0.61526  0.18380  1.0000
  H   H1818     1.0  0.87391  0.61681  0.20303  1.0000
  C   C1139     1.0  0.77621  0.53640  0.16627  1.0000
  H   H1819     1.0  0.99806  0.67321  0.03529  1.0000
  H   H1820     1.0  0.86922  0.68714  0.83008  1.0000
  N   N112      1.0  0.86864  0.49728  0.14496  1.0000
  H   H1821     1.0  0.98556  0.61077  0.77882  1.0000
  S   S446      1.0  0.91407  0.66030  0.87847  1.0000
  C   C1140     1.0  0.88099  0.62703  0.79409  1.0000
  C   C1141     1.0  0.76072  0.52262  0.13267  1.0000
  H   H1822     1.0  0.87044  0.62317  0.03560  1.0000
  H   H1823     1.0  0.89601  0.48231  0.17067  1.0000
  C   C1142     1.0  0.93771  0.56966  0.85613  1.0000
  H   H1824     1.0  0.88817  0.61947  0.83506  1.0000
  H   H1825     1.0  0.82551  0.46929  0.18315  1.0000
  H   H1826     1.0  0.74412  0.49269  0.90437  1.0000
  C   C1143     1.0  0.87066  0.56253  0.94410  1.0000
  H   H1827     1.0  0.75891  0.45127  0.02310  1.0000
  H   H1828     1.0  0.90374  0.66358  0.12352  1.0000
  H   H1829     1.0  0.87586  0.56076  0.90074  1.0000
  C   C1144     1.0  0.87166  0.50794  0.19416  1.0000
  C   C1145     1.0  0.00615  0.44809  0.79468  1.0000
  H   H1830     1.0  0.91481  0.59858  0.80143  1.0000
  H   H1831     1.0  0.78669  0.55174  0.81841  1.0000
  C   C1146     1.0  0.77508  0.48978  0.17378  1.0000
  H   H1832     1.0  0.93024  0.55165  0.76478  1.0000
  H   H1833     1.0  0.84985  0.66070  0.09794  1.0000
  C   C1147     1.0  0.84473  0.68884  0.97132  1.0000
  H   H1834     1.0  0.87183  0.46608  0.13048  1.0000
  H   H1835     1.0  0.82297  0.67733  0.81420  1.0000
  H   H1836     1.0  0.83770  0.48020  0.09856  1.0000
  S   S447      1.0  0.95154  0.69175  0.23591  1.0000
  Fe  Fe221     1.0  0.74969  0.57444  0.07570  1.0000
  H   H1837     1.0  0.77746  0.53333  0.99211  1.0000
  H   H1838     1.0  0.05615  0.45153  0.04975  1.0000
  S   S448      1.0  0.03481  0.66635  0.21992  1.0000
  H   H1839     1.0  0.86649  0.52417  0.18138  1.0000
  C   C1148     1.0  0.76019  0.49929  0.13635  1.0000
  N   N113      1.0  0.75954  0.53002  0.91317  1.0000
  H   H1840     1.0  0.87671  0.68586  0.75522  1.0000
  C   C1149     1.0  0.05525  0.57051  0.21792  1.0000
  S   S449      1.0  0.81044  0.62369  0.76345  1.0000
  C   C1150     1.0  0.82998  0.69584  0.00394  1.0000
  H   H1841     1.0  0.96621  0.56986  0.75775  1.0000
  H   H1842     1.0  0.06212  0.48605  0.93411  1.0000
  C   C1151     1.0  0.98744  0.44842  0.75760  1.0000
  H   H1843     1.0  0.85789  0.49195  0.24223  1.0000
  C   C1152     1.0  0.79476  0.68892  0.24987  1.0000
  H   H1844     1.0  0.05624  0.53368  0.25210  1.0000
  Fe  Fe222     1.0  0.81055  0.49777  0.46228  1.0000
  H   H1845     1.0  0.83577  0.47256  0.62807  1.0000
  S   S450      1.0  0.03445  0.46722  0.48142  1.0000
  C   C1153     1.0  0.87830  0.47050  0.52275  1.0000
  H   H1846     1.0  0.04520  0.54139  0.40687  1.0000
  H   H1847     1.0  0.73837  0.62738  0.33071  1.0000
  C   C1154     1.0  0.75708  0.64324  0.29475  1.0000
  S   S451      1.0  0.01680  0.68650  0.53761  1.0000
  S   S452      1.0  0.91160  0.53758  0.38133  1.0000
  H   H1848     1.0  0.93724  0.49123  0.32156  1.0000
  H   H1849     1.0  0.74031  0.57835  0.50482  1.0000
  H   H1850     1.0  0.00165  0.59535  0.63257  1.0000
  S   S453      1.0  0.83161  0.49356  0.74139  1.0000
  H   H1851     1.0  0.85435  0.65305  0.64767  1.0000
  H   H1852     1.0  0.90285  0.66454  0.63190  1.0000
  C   C1155     1.0  0.80943  0.61137  0.45086  1.0000
  H   H1853     1.0  0.89528  0.59698  0.50119  1.0000
  H   H1854     1.0  0.89567  0.69668  0.34524  1.0000
  C   C1156     1.0  0.88914  0.65215  0.67956  1.0000
  N   N114      1.0  0.73148  0.52881  0.33354  1.0000
  C   C1157     1.0  0.99243  0.51318  0.47009  1.0000
  H   H1855     1.0  0.90908  0.51484  0.53746  1.0000
  S   S454      1.0  0.82698  0.68798  0.60242  1.0000
  C   C1158     1.0  0.84171  0.46774  0.58937  1.0000
  Fe  Fe223     1.0  0.78648  0.68603  0.59831  1.0000
  S   S455      1.0  0.03075  0.59377  0.73306  1.0000
  C   C1159     1.0  0.94509  0.46859  0.40628  1.0000
  H   H1856     1.0  0.89795  0.64970  0.40789  1.0000
  H   H1857     1.0  0.85191  0.64998  0.28420  1.0000
  C   C1160     1.0  0.94614  0.60265  0.42011  1.0000
  Fe  Fe224     1.0  0.82060  0.67232  0.52636  1.0000
  C   C1161     1.0  0.88219  0.60435  0.51474  1.0000
  H   H1858     1.0  0.76523  0.58777  0.54893  1.0000
  C   C1162     1.0  0.92660  0.57909  0.41711  1.0000
  H   H1859     1.0  0.88251  0.51266  0.58978  1.0000
  Fe  Fe225     1.0  0.80191  0.64458  0.67264  1.0000
  H   H1860     1.0  0.75472  0.59445  0.38663  1.0000
  H   H1861     1.0  0.92355  0.60214  0.72109  1.0000
  H   H1862     1.0  0.86742  0.60244  0.48421  1.0000
  Fe  Fe226     1.0  0.82364  0.51184  0.31921  1.0000
  S   S456      1.0  0.77769  0.46322  0.54953  1.0000
  C   C1163     1.0  0.86904  0.64668  0.28863  1.0000
  C   C1164     1.0  0.00369  0.54480  0.35965  1.0000
  H   H1863     1.0  0.87044  0.59038  0.56576  1.0000
  C   C1165     1.0  0.03566  0.64323  0.68517  1.0000
  C   C1166     1.0  0.94805  0.57207  0.75005  1.0000
  H   H1864     1.0  0.01471  0.56628  0.32414  1.0000
  H   H1865     1.0  0.81468  0.61707  0.49114  1.0000
  H   H1866     1.0  0.76257  0.56462  0.51608  1.0000
  S   S457      1.0  0.79838  0.62920  0.59752  1.0000
  C   C1167     1.0  0.76059  0.54932  0.31669  1.0000
  H   H1867     1.0  0.01128  0.53416  0.34107  1.0000
  H   H1868     1.0  0.90557  0.56914  0.44327  1.0000
  S   S458      1.0  0.93394  0.65476  0.72342  1.0000
  H   H1869     1.0  0.86942  0.62731  0.58115  1.0000
  C   C1168     1.0  0.93469  0.56803  0.38203  1.0000
  H   H1870     1.0  0.97295  0.62469  0.71342  1.0000
  H   H1871     1.0  0.98263  0.68635  0.37901  1.0000
  S   S459      1.0  0.87995  0.46123  0.33536  1.0000
  H   H1872     1.0  0.79472  0.64747  0.39086  1.0000
  H   H1873     1.0  0.76901  0.54698  0.35967  1.0000
  H   H1874     1.0  0.83570  0.47733  0.54652  1.0000
  H   H1875     1.0  0.99873  0.50104  0.45455  1.0000
  H   H1876     1.0  0.78421  0.63580  0.47597  1.0000
  N   N115      1.0  0.00791  0.54187  0.42439  1.0000
  H   H1877     1.0  0.91501  0.49437  0.70596  1.0000
  C   C1169     1.0  0.84409  0.63020  0.75049  1.0000
  H   H1878     1.0  0.03988  0.68244  0.64686  1.0000
  S   S460      1.0  0.95853  0.51360  0.60018  1.0000
  H   H1879     1.0  0.77705  0.58080  0.39781  1.0000
  C   C1170     1.0  0.73624  0.69453  0.63044  1.0000
  C   C1171     1.0  0.89575  0.66866  0.26317  1.0000
  S   S461      1.0  0.01451  0.48268  0.34847  1.0000
  S   S462      1.0  0.89306  0.56557  0.66175  1.0000
  H   H1880     1.0  0.96683  0.48199  0.38994  1.0000
  H   H1881     1.0  0.00901  0.57854  0.41174  1.0000
  H   H1882     1.0  0.04962  0.57410  0.38751  1.0000
  H   H1883     1.0  0.77309  0.54810  0.28054  1.0000
  C   C1172     1.0  0.92831  0.47391  0.36775  1.0000
  H   H1884     1.0  0.94056  0.58747  0.55991  1.0000
  Fe  Fe227     1.0  0.76065  0.63201  0.59287  1.0000
  H   H1885     1.0  0.96811  0.57259  0.32069  1.0000
  H   H1886     1.0  0.88120  0.51695  0.50903  1.0000
  C   C1173     1.0  0.93476  0.56708  0.59129  1.0000
  H   H1887     1.0  0.98166  0.53654  0.36032  1.0000
  C   C1174     1.0  0.90551  0.52589  0.68634  1.0000
  H   H1888     1.0  0.92553  0.67145  0.43042  1.0000
  C   C1175     1.0  0.94952  0.55559  0.57772  1.0000
  C   C1176     1.0  0.91801  0.66456  0.26804  1.0000
  H   H1889     1.0  0.93216  0.65502  0.53956  1.0000
  C   C1177     1.0  0.76160  0.58314  0.50656  1.0000
  C   C1178     1.0  0.87843  0.46440  0.63258  1.0000
  Fe  Fe228     1.0  0.02091  0.45184  0.33258  1.0000
  N   N116      1.0  0.78157  0.60580  0.44624  1.0000
  S   S463      1.0  0.05756  0.63464  0.32746  1.0000
  C   C1179     1.0  0.77975  0.62996  0.43582  1.0000
  H   H1890     1.0  0.00207  0.61412  0.32481  1.0000
  C   C1180     1.0  0.86174  0.64573  0.68849  1.0000
  H   H1891     1.0  0.92635  0.64447  0.41899  1.0000
  H   H1892     1.0  0.93067  0.63516  0.30302  1.0000
  H   H1893     1.0  0.04642  0.64633  0.72158  1.0000
  C   C1181     1.0  0.90010  0.45641  0.38790  1.0000
  H   H1894     1.0  0.74282  0.59011  0.70198  1.0000
  C   C1182     1.0  0.98119  0.60452  0.35085  1.0000
  S   S464      1.0  0.80717  0.49053  0.25759  1.0000
  C   C1183     1.0  0.91350  0.63845  0.29896  1.0000
  H   H1895     1.0  0.86673  0.44853  0.53715  1.0000
  Fe  Fe229     1.0  0.03660  0.65827  0.32210  1.0000
  H   H1896     1.0  0.97918  0.69285  0.61496  1.0000
  Fe  Fe230     1.0  0.05824  0.55911  0.59108  1.0000
  H   H1897     1.0  0.95166  0.58344  0.69732  1.0000
  C   C1184     1.0  0.96192  0.58087  0.34868  1.0000
  S   S465      1.0  0.99830  0.64424  0.39196  1.0000
  N   N117      1.0  0.89864  0.63229  0.50688  1.0000
  C   C1185     1.0  0.03724  0.55256  0.42194  1.0000
  H   H1898     1.0  0.89212  0.66147  0.52400  1.0000
  C   C1186     1.0  0.97349  0.61526  0.38733  1.0000
  C   C1187     1.0  0.99826  0.55698  0.44597  1.0000
  H   H1899     1.0  0.97594  0.54886  0.45083  1.0000
  C   C1188     1.0  0.92045  0.51459  0.67352  1.0000
  H   H1900     1.0  0.94024  0.61094  0.44826  1.0000
  H   H1901     1.0  0.99563  0.51016  0.51909  1.0000
  H   H1902     1.0  0.88362  0.59632  0.34503  1.0000
  H   H1903     1.0  0.04117  0.55102  0.46981  1.0000
  S   S466      1.0  0.79626  0.51654  0.38060  1.0000
  S   S467      1.0  0.83612  0.49106  0.40126  1.0000
  C   C1189     1.0  0.77561  0.59879  0.39155  1.0000
  Fe  Fe231     1.0  0.02833  0.56422  0.69480  1.0000
  H   H1904     1.0  0.90048  0.47733  0.51054  1.0000
  Fe  Fe232     1.0  0.86974  0.53174  0.38301  1.0000
  C   C1190     1.0  0.91901  0.63413  0.54534  1.0000
  H   H1905     1.0  0.00193  0.55597  0.49360  1.0000
  H   H1906     1.0  0.75901  0.62663  0.43269  1.0000
  Fe  Fe233     1.0  0.99523  0.45231  0.45145  1.0000
  S   S468      1.0  0.76222  0.64390  0.67432  1.0000
  S   S469      1.0  0.02780  0.51578  0.62291  1.0000
  S   S470      1.0  0.83141  0.59311  0.33963  1.0000
  Fe  Fe234     1.0  0.99646  0.52751  0.63387  1.0000
  S   S471      1.0  0.84532  0.53712  0.45117  1.0000
  C   C1191     1.0  0.88683  0.61644  0.32301  1.0000
  H   H1907     1.0  0.81163  0.59357  0.45887  1.0000
  H   H1908     1.0  0.86491  0.63941  0.50128  1.0000
  C   C1192     1.0  0.89894  0.64342  0.73275  1.0000
  S   S472      1.0  0.85964  0.55239  0.29438  1.0000
  H   H1909     1.0  0.97007  0.50460  0.47508  1.0000
  C   C1193     1.0  0.02533  0.61876  0.68059  1.0000
  H   H1910     1.0  0.87381  0.48039  0.47733  1.0000
  C   C1194     1.0  0.91277  0.65025  0.43810  1.0000
  H   H1911     1.0  0.73522  0.67174  0.57724  1.0000
  C   C1195     1.0  0.88669  0.50671  0.55187  1.0000
  H   H1912     1.0  0.03071  0.45486  0.63999  1.0000
  H   H1913     1.0  0.74345  0.45489  0.32446  1.0000
  H   H1914     1.0  0.76373  0.56993  0.29577  1.0000
  H   H1915     1.0  0.96640  0.56706  0.53525  1.0000
  H   H1916     1.0  0.90895  0.62129  0.59769  1.0000
  H   H1917     1.0  0.99644  0.63196  0.55549  1.0000
  C   C1196     1.0  0.86458  0.62053  0.31694  1.0000
  S   S473      1.0  0.99543  0.52103  0.73651  1.0000
  S   S474      1.0  0.02684  0.57129  0.59287  1.0000
  C   C1197     1.0  0.00728  0.63510  0.59188  1.0000
  C   C1198     1.0  0.77066  0.66821  0.29647  1.0000
  H   H1918     1.0  0.88863  0.51410  0.72833  1.0000
  C   C1199     1.0  0.91238  0.55200  0.64502  1.0000
  H   H1919     1.0  0.93263  0.62739  0.53103  1.0000
  H   H1920     1.0  0.82496  0.62829  0.40588  1.0000
  S   S475      1.0  0.78228  0.67407  0.51625  1.0000
  C   C1200     1.0  0.01850  0.65989  0.59502  1.0000
  C   C1201     1.0  0.01073  0.61455  0.63463  1.0000
  H   H1921     1.0  0.87293  0.46869  0.67286  1.0000
  C   C1202     1.0  0.94200  0.52915  0.61852  1.0000
  C   C1203     1.0  0.88047  0.64046  0.52938  1.0000
  N   N118      1.0  0.87127  0.47731  0.57417  1.0000
  C   C1204     1.0  0.03220  0.66375  0.64250  1.0000
  H   H1922     1.0  0.79035  0.61540  0.34517  1.0000
  S   S476      1.0  0.84961  0.68029  0.44098  1.0000
  H   H1923     1.0  0.90075  0.47171  0.62317  1.0000
  H   H1924     1.0  0.76223  0.67156  0.33356  1.0000
  Fe  Fe235     1.0  0.83316  0.55542  0.36351  1.0000
  Fe  Fe236     1.0  0.02923  0.51246  0.72296  1.0000
  H   H1925     1.0  0.83189  0.67814  0.73764  1.0000
  S   S477      1.0  0.06237  0.55525  0.69000  1.0000
  S   S478      1.0  0.06186  0.46564  0.35453  1.0000
  H   H1926     1.0  0.98731  0.46680  0.73186  1.0000
  Fe  Fe237     1.0  0.85858  0.53213  0.74738  1.0000
  Fe  Fe238     1.0  0.05430  0.49478  0.37642  1.0000
  H   H1927     1.0  0.73587  0.49757  0.40359  1.0000
  H   H1928     1.0  0.05984  0.63253  0.50253  1.0000
  H   H1929     1.0  0.74004  0.49964  0.32314  1.0000
  H   H1930     1.0  0.93717  0.45455  0.26965  1.0000
  Fe  Fe239     1.0  0.94512  0.70073  0.86834  1.0000
  C   C1205     1.0  0.82238  0.88253  0.83787  1.0000
  H   H1931     1.0  0.88174  0.74470  0.77795  1.0000
  H   H1932     1.0  0.82049  0.80208  0.94451  1.0000
  H   H1933     1.0  0.83147  0.83187  0.10944  1.0000
  C   C1206     1.0  0.80645  0.77999  0.97018  1.0000
  C   C1207     1.0  0.88609  0.80125  0.24832  1.0000
  S   S479      1.0  0.97582  0.70634  0.79151  1.0000
  H   H1934     1.0  0.01417  0.90979  0.14626  1.0000
  H   H1935     1.0  0.79453  0.72895  0.03372  1.0000
  C   C1208     1.0  0.05276  0.86567  0.89155  1.0000
  S   S480      1.0  0.88157  0.83343  0.85335  1.0000
  C   C1209     1.0  0.98905  0.90733  0.76929  1.0000
  C   C1210     1.0  0.79958  0.86681  0.11231  1.0000
  H   H1936     1.0  0.81475  0.77245  0.12021  1.0000
  H   H1937     1.0  0.04791  0.70378  0.99736  1.0000
  C   C1211     1.0  0.80221  0.94371  0.93531  1.0000
  C   C1212     1.0  0.87718  0.69947  0.77707  1.0000
  H   H1938     1.0  0.79832  0.82790  0.03743  1.0000
  C   C1213     1.0  0.75594  0.93058  0.98177  1.0000
  H   H1939     1.0  0.95717  0.91855  0.99198  1.0000
  H   H1940     1.0  0.90154  0.82233  0.05760  1.0000
  H   H1941     1.0  0.75891  0.87680  0.79064  1.0000
  H   H1942     1.0  0.95309  0.84330  0.77453  1.0000
  H   H1943     1.0  0.99835  0.71704  0.11149  1.0000
  S   S481      1.0  0.90298  0.89695  0.78089  1.0000
  C   C1214     1.0  0.80058  0.90929  0.82786  1.0000
  S   S482      1.0  0.03531  0.70492  0.86786  1.0000
  C   C1215     1.0  0.02727  0.93836  0.04666  1.0000
  Fe  Fe240     1.0  0.98692  0.77238  0.02842  1.0000
  H   H1944     1.0  0.92727  0.78315  0.80699  1.0000
  C   C1216     1.0  0.01505  0.91177  0.77515  1.0000
  S   S483      1.0  0.87545  0.90732  0.13440  1.0000
  C   C1217     1.0  0.77719  0.94171  0.92800  1.0000
  C   C1218     1.0  0.94353  0.86897  0.10581  1.0000
  C   C1219     1.0  0.98665  0.76799  0.77013  1.0000
  C   C1220     1.0  0.01851  0.71871  0.09906  1.0000
  C   C1221     1.0  0.84333  0.71430  0.02915  1.0000
  C   C1222     1.0  0.92213  0.85599  0.08095  1.0000
  H   H1945     1.0  0.97659  0.86842  0.14714  1.0000
  S   S484      1.0  0.94083  0.93385  0.08815  1.0000
  S   S485      1.0  0.97686  0.82130  0.15352  1.0000
  Fe  Fe241     1.0  0.94044  0.91601  0.19174  1.0000
  C   C1223     1.0  0.79342  0.73915  0.06426  1.0000
  S   S486      1.0  0.98037  0.92204  0.21067  1.0000
  Fe  Fe242     1.0  0.86251  0.85925  0.82258  1.0000
  H   H1946     1.0  0.04409  0.85422  0.10968  1.0000
  C   C1224     1.0  0.78989  0.83605  0.06333  1.0000
  H   H1947     1.0  0.90814  0.72770  0.98352  1.0000
  C   C1225     1.0  0.82166  0.84038  0.13048  1.0000
  C   C1226     1.0  0.05546  0.83249  0.83779  1.0000
  N   N119      1.0  0.81279  0.76838  0.03141  1.0000
  H   H1948     1.0  0.84422  0.76530  0.98442  1.0000
  H   H1949     1.0  0.04131  0.81757  0.20727  1.0000
  C   C1227     1.0  0.04631  0.71048  0.03576  1.0000
  H   H1950     1.0  0.02161  0.70686  0.14413  1.0000
  H   H1951     1.0  0.02407  0.82906  0.97361  1.0000
  C   C1228     1.0  0.01501  0.92775  0.11236  1.0000
  C   C1229     1.0  0.81126  0.92219  0.76090  1.0000
  H   H1952     1.0  0.97045  0.82737  0.75610  1.0000
  H   H1953     1.0  0.74340  0.91237  0.08569  1.0000
  C   C1230     1.0  0.87292  0.70046  0.96353  1.0000
  H   H1954     1.0  0.78522  0.77641  0.97866  1.0000
  C   C1231     1.0  0.87143  0.72569  0.02232  1.0000
  C   C1232     1.0  0.86078  0.72867  0.78421  1.0000
  H   H1955     1.0  0.99779  0.72701  0.99765  1.0000
  S   S487      1.0  0.76957  0.75997  0.22405  1.0000
  H   H1956     1.0  0.99321  0.75900  0.81088  1.0000
  C   C1233     1.0  0.74200  0.85589  0.80619  1.0000
  N   N120      1.0  0.94717  0.80824  0.85436  1.0000
  H   H1957     1.0  0.03447  0.74013  0.08258  1.0000
  H   H1958     1.0  0.82460  0.70037  0.16694  1.0000
  S   S488      1.0  0.01898  0.78610  0.94176  1.0000
  H   H1959     1.0  0.97026  0.78982  0.84224  1.0000
  H   H1960     1.0  0.79708  0.87913  0.91759  1.0000
  H   H1961     1.0  0.84871  0.73849  0.76567  1.0000
  H   H1962     1.0  0.94616  0.92126  0.83278  1.0000
  S   S489      1.0  0.90588  0.87565  0.21137  1.0000
  H   H1963     1.0  0.79124  0.87760  0.07797  1.0000
  C   C1234     1.0  0.96420  0.83250  0.79376  1.0000
  Fe  Fe243     1.0  0.90422  0.89433  0.11010  1.0000
  H   H1964     1.0  0.03610  0.92867  0.03014  1.0000
  C   C1235     1.0  0.75983  0.92126  0.04372  1.0000
  H   H1965     1.0  0.85033  0.89119  0.03809  1.0000
  H   H1966     1.0  0.82478  0.80300  0.05024  1.0000
  H   H1967     1.0  0.89883  0.71473  0.76826  1.0000
  H   H1968     1.0  0.94914  0.90017  0.94356  1.0000
  C   C1236     1.0  0.95793  0.94113  0.83356  1.0000
  H   H1969     1.0  0.91617  0.94164  0.89169  1.0000
  H   H1970     1.0  0.91548  0.77947  0.22907  1.0000
  H   H1971     1.0  0.91806  0.92639  0.97284  1.0000
  H   H1972     1.0  0.84606  0.76411  0.06334  1.0000
  H   H1973     1.0  0.00664  0.72254  0.23068  1.0000
  H   H1974     1.0  0.80840  0.77111  0.93694  1.0000
  C   C1237     1.0  0.95608  0.83479  0.12388  1.0000
  H   H1975     1.0  0.88493  0.79869  0.20280  1.0000
  H   H1976     1.0  0.83127  0.94038  0.16080  1.0000
  H   H1977     1.0  0.85622  0.79533  0.99620  1.0000
  Fe  Fe244     1.0  0.88099  0.83284  0.75641  1.0000
  N   N121      1.0  0.01981  0.70916  0.04909  1.0000
  H   H1978     1.0  0.80503  0.82376  0.17399  1.0000
  Fe  Fe245     1.0  0.96870  0.78719  0.12846  1.0000
  H   H1979     1.0  0.98283  0.92795  0.92490  1.0000
  H   H1980     1.0  0.01759  0.90012  0.81984  1.0000
  H   H1981     1.0  0.03520  0.87519  0.20413  1.0000
  C   C1238     1.0  0.95896  0.75943  0.77509  1.0000
  H   H1982     1.0  0.83735  0.85392  0.14731  1.0000
  Fe  Fe246     1.0  0.73142  0.73441  0.20278  1.0000
  H   H1983     1.0  0.04087  0.73051  0.23432  1.0000
  N   N122      1.0  0.95249  0.93897  0.89946  1.0000
  C   C1239     1.0  0.81026  0.78098  0.07338  1.0000
  C   C1240     1.0  0.01698  0.72647  0.98945  1.0000
  C   C1241     1.0  0.80577  0.88920  0.86618  1.0000
  C   C1242     1.0  0.05375  0.73063  0.79075  1.0000
  Fe  Fe247     1.0  0.91271  0.94521  0.12314  1.0000
  C   C1243     1.0  0.80613  0.93413  0.99662  1.0000
  H   H1984     1.0  0.03431  0.74742  0.96974  1.0000
  Fe  Fe248     1.0  0.92194  0.87133  0.80151  1.0000
  C   C1244     1.0  0.78494  0.92284  0.05118  1.0000
  H   H1985     1.0  0.77295  0.81890  0.10559  1.0000
  C   C1245     1.0  0.03706  0.83770  0.92606  1.0000
  C   C1246     1.0  0.93929  0.81592  0.90281  1.0000
  H   H1986     1.0  0.81527  0.88170  0.12623  1.0000
  H   H1987     1.0  0.78922  0.77768  0.08389  1.0000
  H   H1988     1.0  0.05126  0.87825  0.91225  1.0000
  H   H1989     1.0  0.94735  0.88730  0.10858  1.0000
  C   C1247     1.0  0.88632  0.71872  0.98971  1.0000
  S   S490      1.0  0.94876  0.73208  0.06648  1.0000
  H   H1990     1.0  0.78082  0.84621  0.02980  1.0000
  H   H1991     1.0  0.95750  0.83036  0.91228  1.0000
  H   H1992     1.0  0.84338  0.86819  0.00217  1.0000
  C   C1248     1.0  0.84102  0.77349  0.01819  1.0000
  C   C1249     1.0  0.83363  0.89603  0.77123  1.0000
  Fe  Fe249     1.0  0.76208  0.93809  0.75451  1.0000
  H   H1993     1.0  0.90892  0.77129  0.88754  1.0000
  S   S491      1.0  0.92980  0.74783  0.17585  1.0000
  H   H1994     1.0  0.82684  0.88777  0.98868  1.0000
  C   C1250     1.0  0.96076  0.92064  0.94181  1.0000
  H   H1995     1.0  0.78851  0.91492  0.85030  1.0000
  C   C1251     1.0  0.06223  0.86851  0.11971  1.0000
  C   C1252     1.0  0.92302  0.92833  0.92312  1.0000
  H   H1996     1.0  0.90999  0.79927  0.82375  1.0000
  S   S492      1.0  0.82914  0.85741  0.88520  1.0000
  H   H1997     1.0  0.85160  0.71642  0.83686  1.0000
  C   C1253     1.0  0.93478  0.82183  0.09863  1.0000
  Fe  Fe250     1.0  0.95491  0.72956  0.16379  1.0000
  S   S493      1.0  0.88737  0.74920  0.05317  1.0000
  S   S494      1.0  0.89948  0.86805  0.05972  1.0000
  H   H1998     1.0  0.74627  0.84260  0.84611  1.0000
  H   H1999     1.0  0.91055  0.90803  0.92450  1.0000
  S   S495      1.0  0.73512  0.90271  0.84738  1.0000
  Fe  Fe251     1.0  0.87907  0.89027  0.23503  1.0000
  C   C1254     1.0  0.91807  0.83260  0.07643  1.0000
  N   N123      1.0  0.06046  0.85909  0.18953  1.0000
  H   H2000     1.0  0.05636  0.81970  0.81655  1.0000
  C   C1255     1.0  0.83393  0.87637  0.02556  1.0000
  H   H2001     1.0  0.78273  0.85127  0.15639  1.0000
  S   S496      1.0  0.96052  0.88263  0.83436  1.0000
  H   H2002     1.0  0.98309  0.84689  0.80152  1.0000
  H   H2003     1.0  0.01687  0.71955  0.95109  1.0000
  C   C1256     1.0  0.96033  0.85836  0.12740  1.0000
  S   S497      1.0  0.83804  0.93749  0.00337  1.0000
  H   H2004     1.0  0.79777  0.72973  0.11054  1.0000
  C   C1257     1.0  0.96293  0.79484  0.87851  1.0000
  H   H2005     1.0  0.98136  0.80795  0.89007  1.0000
  H   H2006     1.0  0.95040  0.77574  0.92254  1.0000
  H   H2007     1.0  0.77197  0.73470  0.07588  1.0000
  S   S498      1.0  0.93484  0.73328  0.84601  1.0000
  Fe  Fe252     1.0  0.92671  0.75355  0.07531  1.0000
  S   S499      1.0  0.96431  0.79391  0.02883  1.0000
  C   C1258     1.0  0.03842  0.82110  0.89922  1.0000
  C   C1259     1.0  0.92225  0.78971  0.84254  1.0000
  N   N124      1.0  0.81129  0.85490  0.08294  1.0000
  H   H2008     1.0  0.78795  0.91552  0.09894  1.0000
  H   H2009     1.0  0.92663  0.79817  0.94928  1.0000
  H   H2010     1.0  0.93059  0.80313  0.09764  1.0000
  H   H2011     1.0  0.83174  0.71944  0.05475  1.0000
  H   H2012     1.0  0.90401  0.82138  0.23631  1.0000
  H   H2013     1.0  0.92709  0.82574  0.88658  1.0000
  S   S500      1.0  0.80831  0.72112  0.24655  1.0000
  S   S501      1.0  0.99466  0.76865  0.12524  1.0000
  C   C1260     1.0  0.05939  0.83296  0.21468  1.0000
  S   S502      1.0  0.91380  0.92904  0.22655  1.0000
  H   H2014     1.0  0.04924  0.69755  0.07936  1.0000
  H   H2015     1.0  0.01677  0.84070  0.21728  1.0000
  C   C1261     1.0  0.03546  0.85601  0.22302  1.0000
  C   C1262     1.0  0.00213  0.93928  0.13344  1.0000
  S   S503      1.0  0.73385  0.69717  0.24597  1.0000
  H   H2016     1.0  0.76759  0.83373  0.76910  1.0000
  C   C1263     1.0  0.77729  0.88409  0.28291  1.0000
  H   H2017     1.0  0.92206  0.82201  0.67060  1.0000
  H   H2018     1.0  0.80052  0.82855  0.44032  1.0000
  C   C1264     1.0  0.82356  0.89484  0.28888  1.0000
  H   H2019     1.0  0.99568  0.89181  0.32953  1.0000
  H   H2020     1.0  0.95584  0.71740  0.68273  1.0000
  H   H2021     1.0  0.83980  0.77652  0.66094  1.0000
  C   C1265     1.0  0.00257  0.92747  0.33868  1.0000
  H   H2022     1.0  0.04369  0.76762  0.25896  1.0000
  C   C1266     1.0  0.02280  0.75381  0.29186  1.0000
  H   H2023     1.0  0.91686  0.76527  0.31088  1.0000
  H   H2024     1.0  0.02743  0.79470  0.70837  1.0000
  C   C1267     1.0  0.00502  0.75642  0.60128  1.0000
  H   H2025     1.0  0.02620  0.76449  0.57464  1.0000
  H   H2026     1.0  0.87790  0.83969  0.47784  1.0000
  C   C1268     1.0  0.87529  0.85752  0.46190  1.0000
  H   H2027     1.0  0.99063  0.70444  0.67486  1.0000
  C   C1269     1.0  0.90293  0.70705  0.37551  1.0000
  N   N125      1.0  0.01625  0.72556  0.31757  1.0000
  H   H2028     1.0  0.85991  0.85437  0.43294  1.0000
  H   H2029     1.0  0.89379  0.74618  0.67138  1.0000
  Fe  Fe253     1.0  0.01284  0.85638  0.36684  1.0000
  C   C1270     1.0  0.79187  0.85208  0.29014  1.0000
  H   H2030     1.0  0.73495  0.76442  0.49446  1.0000
  H   H2031     1.0  0.91747  0.86374  0.38341  1.0000
  H   H2032     1.0  0.92494  0.86938  0.48243  1.0000
  S   S504      1.0  0.04793  0.89705  0.30223  1.0000
  C   C1271     1.0  0.81741  0.86946  0.29479  1.0000
  H   H2033     1.0  0.02699  0.70948  0.74282  1.0000
  S   S505      1.0  0.97518  0.76272  0.38128  1.0000
  S   S506      1.0  0.78928  0.93463  0.38679  1.0000
  S   S507      1.0  0.74512  0.77521  0.36048  1.0000
  N   N126      1.0  0.88853  0.77968  0.29776  1.0000
  H   H2034     1.0  0.03324  0.72708  0.39820  1.0000
  H   H2035     1.0  0.98488  0.71292  0.39862  1.0000
  S   S508      1.0  0.02294  0.82459  0.41745  1.0000
  C   C1272     1.0  0.89936  0.80743  0.54750  1.0000
  C   C1273     1.0  0.98794  0.70777  0.35815  1.0000
  H   H2036     1.0  0.04906  0.88213  0.47503  1.0000
  N   N127      1.0  0.90147  0.88242  0.42381  1.0000
  Fe  Fe254     1.0  0.77049  0.72204  0.27348  1.0000
  H   H2037     1.0  0.91589  0.92440  0.37018  1.0000
  S   S509      1.0  0.75066  0.88953  0.30008  1.0000
  H   H2038     1.0  0.88150  0.90259  0.37130  1.0000
  H   H2039     1.0  0.78680  0.76923  0.58881  1.0000
  H   H2040     1.0  0.83657  0.92569  0.68117  1.0000
  H   H2041     1.0  0.87434  0.71749  0.65530  1.0000
  Fe  Fe255     1.0  0.90109  0.89279  0.68827  1.0000
  H   H2042     1.0  0.96332  0.80017  0.62391  1.0000
  S   S510      1.0  0.77214  0.71281  0.61193  1.0000
  H   H2043     1.0  0.98216  0.75494  0.50420  1.0000
  H   H2044     1.0  0.88862  0.90789  0.44161  1.0000
  C   C1274     1.0  0.05801  0.94371  0.30983  1.0000
  C   C1275     1.0  0.95750  0.72266  0.63064  1.0000
  H   H2045     1.0  0.86661  0.85809  0.50556  1.0000
  H   H2046     1.0  0.94103  0.90505  0.43688  1.0000
  C   C1276     1.0  0.98587  0.73805  0.52702  1.0000
  C   C1277     1.0  0.91772  0.81770  0.58190  1.0000
  H   H2047     1.0  0.76312  0.84263  0.68869  1.0000
  H   H2048     1.0  0.03068  0.70091  0.37732  1.0000
  H   H2049     1.0  0.77597  0.81628  0.54975  1.0000
  C   C1278     1.0  0.79488  0.78465  0.53785  1.0000
  C   C1279     1.0  0.89380  0.71644  0.46509  1.0000
  C   C1280     1.0  0.99255  0.71096  0.62238  1.0000
  H   H2050     1.0  0.96607  0.91969  0.70680  1.0000
  C   C1281     1.0  0.77176  0.85947  0.28378  1.0000
  C   C1282     1.0  0.00897  0.94211  0.65944  1.0000
  S   S511      1.0  0.78298  0.90175  0.54138  1.0000
  H   H2051     1.0  0.93208  0.89900  0.33658  1.0000
  H   H2052     1.0  0.94489  0.72890  0.32161  1.0000
  Fe  Fe256     1.0  0.95374  0.82176  0.44791  1.0000
  S   S512      1.0  0.74635  0.71064  0.37074  1.0000
  N   N128      1.0  0.98526  0.73200  0.59548  1.0000
  C   C1283     1.0  0.02322  0.88065  0.58050  1.0000
  H   H2053     1.0  0.00514  0.75255  0.65246  1.0000
  H   H2054     1.0  0.92945  0.94598  0.46541  1.0000
  S   S513      1.0  0.97400  0.82793  0.35243  1.0000
  H   H2055     1.0  0.90554  0.80271  0.35162  1.0000
  H   H2056     1.0  0.88654  0.93504  0.69778  1.0000
  C   C1284     1.0  0.86153  0.78808  0.63887  1.0000
  H   H2057     1.0  0.02204  0.76015  0.33129  1.0000
  C   C1285     1.0  0.95058  0.77135  0.72277  1.0000
  C   C1286     1.0  0.00599  0.78830  0.71249  1.0000
  H   H2058     1.0  0.86528  0.74999  0.26398  1.0000
  C   C1287     1.0  0.89675  0.90538  0.40075  1.0000
  H   H2059     1.0  0.05371  0.74537  0.63339  1.0000
  S   S514      1.0  0.74592  0.94549  0.50140  1.0000
  C   C1288     1.0  0.80332  0.90190  0.28421  1.0000
  C   C1289     1.0  0.82807  0.91571  0.73283  1.0000
  C   C1290     1.0  0.03845  0.91881  0.31354  1.0000
  H   H2060     1.0  0.02802  0.91048  0.45680  1.0000
  C   C1291     1.0  0.75178  0.76250  0.51397  1.0000
  H   H2061     1.0  0.98116  0.92133  0.34820  1.0000
  H   H2062     1.0  0.91320  0.88813  0.50720  1.0000
  H   H2063     1.0  0.74414  0.79975  0.53145  1.0000
  C   C1292     1.0  0.01081  0.91067  0.32846  1.0000
  C   C1293     1.0  0.88840  0.78288  0.35854  1.0000
  H   H2064     1.0  0.00883  0.86852  0.55883  1.0000
  C   C1294     1.0  0.91442  0.78139  0.27532  1.0000
  S   S515      1.0  0.99156  0.85321  0.45691  1.0000
  H   H2065     1.0  0.78725  0.83252  0.29408  1.0000
  C   C1295     1.0  0.87292  0.72917  0.68130  1.0000
  H   H2066     1.0  0.00583  0.74376  0.49898  1.0000
  C   C1296     1.0  0.99749  0.79951  0.65957  1.0000
  H   H2067     1.0  0.05746  0.92668  0.58589  1.0000
  C   C1297     1.0  0.76069  0.79686  0.55039  1.0000
  S   S516      1.0  0.78027  0.87377  0.44248  1.0000
  C   C1298     1.0  0.04504  0.72767  0.73685  1.0000
  H   H2068     1.0  0.03384  0.84965  0.27542  1.0000
  H   H2069     1.0  0.86034  0.73793  0.65982  1.0000
  C   C1299     1.0  0.86539  0.75330  0.30863  1.0000
  H   H2070     1.0  0.84320  0.90820  0.29312  1.0000
  H   H2071     1.0  0.97315  0.70948  0.32961  1.0000
  H   H2072     1.0  0.02760  0.86680  0.61875  1.0000
  H   H2073     1.0  0.79362  0.80293  0.41282  1.0000
  C   C1300     1.0  0.92172  0.73477  0.45156  1.0000
  C   C1301     1.0  0.91274  0.88025  0.36800  1.0000
  H   H2074     1.0  0.00008  0.77264  0.58130  1.0000
  Fe  Fe257     1.0  0.76187  0.92101  0.48123  1.0000
  S   S517      1.0  0.02120  0.82236  0.58577  1.0000
  C   C1302     1.0  0.03509  0.72206  0.35687  1.0000
  Fe  Fe258     1.0  0.74259  0.74693  0.31842  1.0000
  H   H2075     1.0  0.01393  0.71812  0.59925  1.0000
  H   H2076     1.0  0.92875  0.74527  0.48127  1.0000
  H   H2077     1.0  0.85706  0.78450  0.54963  1.0000
  H   H2078     1.0  0.76029  0.75522  0.48536  1.0000
  H   H2079     1.0  0.81135  0.80367  0.53654  1.0000
  H   H2080     1.0  0.92923  0.76493  0.72665  1.0000
  H   H2081     1.0  0.05814  0.82533  0.26727  1.0000
  Fe  Fe259     1.0  0.98226  0.79562  0.41162  1.0000
  H   H2082     1.0  0.75383  0.88854  0.68104  1.0000
  C   C1303     1.0  0.04194  0.92123  0.48181  1.0000
  H   H2083     1.0  0.76841  0.81200  0.42311  1.0000
  H   H2084     1.0  0.95169  0.73832  0.61187  1.0000
  H   H2085     1.0  0.00803  0.75688  0.26470  1.0000
  C   C1304     1.0  0.93084  0.72514  0.36245  1.0000
  H   H2086     1.0  0.93942  0.82920  0.55993  1.0000
  N   N129      1.0  0.77300  0.78822  0.51158  1.0000
  H   H2087     1.0  0.89793  0.87596  0.33817  1.0000
  Fe  Fe260     1.0  0.80825  0.91249  0.44603  1.0000
  S   S518      1.0  0.91103  0.81407  0.46772  1.0000
  C   C1305     1.0  0.87129  0.79258  0.57604  1.0000
  S   S519      1.0  0.85359  0.93303  0.40995  1.0000
  H   H2088     1.0  0.86910  0.78151  0.37746  1.0000
  Fe  Fe261     1.0  0.75318  0.86471  0.53190  1.0000
  Fe  Fe262     1.0  0.05732  0.72359  0.50944  1.0000
  H   H2089     1.0  0.97011  0.72048  0.52109  1.0000
  S   S520      1.0  0.92252  0.86906  0.70652  1.0000
  C   C1306     1.0  0.92102  0.88645  0.46443  1.0000
  C   C1307     1.0  0.90791  0.81378  0.64426  1.0000
  H   H2090     1.0  0.89063  0.76717  0.39664  1.0000
  H   H2091     1.0  0.06068  0.93852  0.44428  1.0000
  S   S521      1.0  0.84120  0.85909  0.31240  1.0000
  C   C1308     1.0  0.98603  0.92261  0.71143  1.0000
  S   S522      1.0  0.80257  0.94513  0.71096  1.0000
  S   S523      1.0  0.91726  0.93195  0.60159  1.0000
  C   C1309     1.0  0.94029  0.73926  0.40003  1.0000
  H   H2092     1.0  0.78281  0.86842  0.71376  1.0000
  Fe  Fe263     1.0  0.00037  0.82056  0.50662  1.0000
  C   C1310     1.0  0.96984  0.79124  0.66467  1.0000
  H   H2093     1.0  0.05794  0.93449  0.72805  1.0000
  H   H2094     1.0  0.86627  0.73653  0.34635  1.0000
  S   S524      1.0  0.96047  0.78839  0.50675  1.0000
  H   H2095     1.0  0.94207  0.70449  0.62653  1.0000
  S   S525      1.0  0.06183  0.76438  0.47535  1.0000
  Fe  Fe264     1.0  0.75968  0.89523  0.38883  1.0000
  N   N130      1.0  0.04855  0.90331  0.53155  1.0000
  H   H2096     1.0  0.75142  0.84529  0.28475  1.0000
  H   H2097     1.0  0.87957  0.71317  0.50470  1.0000
  H   H2098     1.0  0.80422  0.77768  0.51004  1.0000
  C   C1311     1.0  0.87980  0.79901  0.67259  1.0000
  H   H2099     1.0  0.03185  0.92954  0.50289  1.0000
  H   H2100     1.0  0.80727  0.92034  0.28651  1.0000
  C   C1312     1.0  0.76433  0.84823  0.72989  1.0000
  C   C1313     1.0  0.03790  0.93114  0.72303  1.0000
  C   C1314     1.0  0.78445  0.80881  0.44419  1.0000
  H   H2101     1.0  0.01254  0.88778  0.60434  1.0000
  H   H2102     1.0  0.84540  0.75141  0.32421  1.0000
  H   H2103     1.0  0.75153  0.78181  0.60162  1.0000
  H   H2104     1.0  0.93241  0.80091  0.26725  1.0000
  C   C1315     1.0  0.01933  0.71857  0.26356  1.0000
  C   C1316     1.0  0.06029  0.74783  0.67497  1.0000
  H   H2105     1.0  0.74264  0.74669  0.56412  1.0000
  H   H2106     1.0  0.05664  0.73526  0.32757  1.0000
  H   H2107     1.0  0.86741  0.80142  0.26470  1.0000
  N   N131      1.0  0.86090  0.71207  0.75120  1.0000
  H   H2108     1.0  0.81951  0.69957  0.74390  1.0000
  C   C1317     1.0  0.88439  0.70273  0.42670  1.0000
  S   S526      1.0  0.73048  0.88317  0.47824  1.0000
  S   S527      1.0  0.85926  0.85619  0.72844  1.0000
  H   H2109     1.0  0.73025  0.71381  0.68707  1.0000
  C   C1318     1.0  0.03498  0.94638  0.66504  1.0000
  C   C1319     1.0  0.06211  0.89306  0.50094  1.0000
  H   H2110     1.0  0.01292  0.69692  0.28128  1.0000
  S   S528      1.0  0.86721  0.79371  0.75043  1.0000
  H   H2111     1.0  0.73393  0.86257  0.65645  1.0000
  C   C1320     1.0  0.73606  0.86785  0.69813  1.0000
  N   N132      1.0  0.73940  0.84826  0.75182  1.0000
  H   H2112     1.0  0.84668  0.89137  0.74884  1.0000
