data_image0
_chemical_formula_structural       FeSH2SFe2SFeCSHC2HC3HCH4C2H2CH4NH6SC4HCH3SHCH3SCH3C3FeS2FeSCFeSFeHS2CH2C2H3CH3NH2C2SH2C3H3CH5NH3CH2CH2CH2CNCSHFeHNHSCH2C2FeCH2SFeH2CHCNHNH3SCSC4H3C2HSHFeHC2H8CH2CH2CNC2H2CHSC4H4NH3CSC2H2CFeCFeHC2S2NCHCHSCH2C3H2CHCFeCH2CSCH2CH3SH4CHCH2CH2SCSFeH2C2SHCH3CSHCHSH3SCH2CH3CHCH2NHFeHC2H3S2CFeH2CSFeHNCH2CSCH3S2CHCH3C2HNHC3HCH4C4HCHFeSFe2HS3FeSH4FeSH8CH2C2SCHCHCHCNCH3SH2NCSH2CH4CH3C2FeSHFeSCFeCFeSCSH2SH8C2HC2H3FeCSCSH2C3SHSCH2CH2C2H2CHSCH3C4H9CHNC2HFeHCFeS2HC2HS2CFeHSH5CHSHFeSHCSHFeSFeHS2HC5HCHCHFeH3SCHCH5CH4NHCH4NC7H3C3H2SHCHCH3CH2CH2FeC2FeS2Fe2HCS3HC3NH3CHCH2C2SCHC3H3CHSHC3SFeNFeHCHSHFeSFeCHC5SH3C3H7CH8NCHNCSH7NC2H2CSC2H4CH3CHCH2SCSCH2C2H3FeH2SC2SHCSFeNH3SHCH4C2HCSHCS2HC2H3C2HCHFeCFeH3CH3NC2HSHFeCH3C2HCH2SC2H5C2H4FeHCNC2SHCHNCHCSHCH4SC2HS2Fe2HSH2SH3SCH2CHSC2SH2CH3CHCHSHC4H2C3H2CFeSH2SC3HNHCHC4H4FeCS3HCFeHCH8FeSCH4C2HC2H6C2H2SHCHNHCHFeSHFeHCFeCHS2CFeSH3C3HC3HNHSH7SHC2HSHNCHSH2FeHSNCHCSH3CHCSHCHFeS2FeH2FeH2CSHCHCH2CHCHCHCHSC2H4
_chemical_formula_sum              "Fe64 S128 H512 C320 N32"
_cell_length_a       33.5028
_cell_length_b       24.0252
_cell_length_c       24.8848
_cell_angle_alpha    89.8755
_cell_angle_beta     89.6278
_cell_angle_gamma    90.2495

_space_group_name_H-M_alt    "P 1"
_space_group_IT_number       1

loop_
  _space_group_symop_operation_xyz
  'x, y, z'

loop_
  _atom_site_type_symbol
  _atom_site_label
  _atom_site_symmetry_multiplicity
  _atom_site_fract_x
  _atom_site_fract_y
  _atom_site_fract_z
  _atom_site_occupancy
  Fe  Fe1       1.0  0.07699  0.25612  0.37333  1.0000
  S   S1        1.0  0.08986  0.30558  0.29882  1.0000
  H   H1        1.0  0.03206  0.24004  0.24604  1.0000
  H   H2        1.0  0.13020  0.57312  0.32825  1.0000
  S   S2        1.0  0.17332  0.23446  0.29117  1.0000
  Fe  Fe2       1.0  0.15297  0.19092  0.36615  1.0000
  Fe  Fe3       1.0  0.15164  0.31212  0.33157  1.0000
  S   S3        1.0  0.18258  0.39531  0.33093  1.0000
  Fe  Fe4       1.0  0.10997  0.22400  0.26511  1.0000
  C   C1        1.0  0.04425  0.19749  0.17164  1.0000
  S   S4        1.0  0.13717  0.26939  0.40965  1.0000
  H   H3        1.0  0.13410  0.21718  0.54161  1.0000
  C   C2        1.0  0.21673  0.40285  0.27759  1.0000
  C   C3        1.0  0.21722  0.36451  0.23543  1.0000
  H   H4        1.0  0.25267  0.17987  0.25654  1.0000
  C   C4        1.0  0.24378  0.44751  0.27722  1.0000
  C   C5        1.0  0.05117  0.43422  0.43554  1.0000
  C   C6        1.0  0.07306  0.46194  0.29340  1.0000
  H   H5        1.0  0.08179  0.18547  0.60275  1.0000
  C   C7        1.0  0.12523  0.50677  0.24170  1.0000
  H   H6        1.0  0.13588  0.50176  0.34818  1.0000
  H   H7        1.0  0.09147  0.53911  0.36682  1.0000
  H   H8        1.0  0.19555  0.33125  0.23438  1.0000
  H   H9        1.0  0.08078  0.35511  0.44038  1.0000
  C   C8        1.0  0.11383  0.53308  0.33407  1.0000
  C   C9        1.0  0.24699  0.20368  0.39109  1.0000
  H   H10       1.0  0.11168  0.49367  0.20304  1.0000
  H   H11       1.0  0.22085  0.57966  0.23389  1.0000
  C   C10       1.0  0.06588  0.55788  0.26615  1.0000
  H   H12       1.0  0.22279  0.23324  0.39271  1.0000
  H   H13       1.0  0.09353  0.42954  0.30936  1.0000
  H   H14       1.0  0.04106  0.58554  0.53829  1.0000
  H   H15       1.0  0.08936  0.61256  0.52020  1.0000
  N   N1        1.0  0.09449  0.51495  0.28379  1.0000
  H   H16       1.0  0.05030  0.54526  0.22865  1.0000
  H   H17       1.0  0.24621  0.33925  0.16198  1.0000
  H   H18       1.0  0.24318  0.47770  0.30944  1.0000
  H   H19       1.0  0.07774  0.45801  0.44468  1.0000
  H   H20       1.0  0.06691  0.21308  0.50480  1.0000
  H   H21       1.0  0.14712  0.47438  0.25372  1.0000
  S   S5        1.0  0.09577  0.19263  0.18275  1.0000
  C   C11       1.0  0.24561  0.36951  0.19410  1.0000
  C   C12       1.0  0.05286  0.37599  0.43315  1.0000
  C   C13       1.0  0.07040  0.16805  0.49612  1.0000
  C   C14       1.0  0.02739  0.17281  0.12618  1.0000
  H   H22       1.0  0.14909  0.49254  0.60162  1.0000
  C   C15       1.0  0.27328  0.41329  0.19445  1.0000
  H   H23       1.0  0.20936  0.20580  0.17879  1.0000
  H   H24       1.0  0.05955  0.44562  0.25583  1.0000
  H   H25       1.0  0.07385  0.61111  0.58949  1.0000
  S   S6        1.0  0.09134  0.17364  0.33671  1.0000
  H   H26       1.0  0.05226  0.63099  0.16435  1.0000
  C   C16       1.0  0.23400  0.62087  0.23290  1.0000
  H   H27       1.0  0.14239  0.54577  0.23395  1.0000
  H   H28       1.0  0.04849  0.46720  0.32318  1.0000
  H   H29       1.0  0.03151  0.27087  0.55971  1.0000
  S   S7        1.0  0.15907  0.65993  0.25381  1.0000
  C   C17       1.0  0.13807  0.17319  0.52858  1.0000
  H   H30       1.0  0.04255  0.56553  0.29732  1.0000
  H   H31       1.0  0.08122  0.59830  0.25794  1.0000
  H   H32       1.0  0.14997  0.17410  0.48682  1.0000
  C   C18       1.0  0.27212  0.45269  0.23568  1.0000
  C   C19       1.0  0.06347  0.61849  0.54779  1.0000
  C   C20       1.0  0.27504  0.62731  0.22347  1.0000
  Fe  Fe5       1.0  0.07139  0.26248  0.85230  1.0000
  S   S8        1.0  0.07495  0.33945  0.80217  1.0000
  S   S9        1.0  0.07647  0.29711  0.65368  1.0000
  Fe  Fe6       1.0  0.15024  0.21891  0.81294  1.0000
  S   S10       1.0  0.16144  0.29200  0.75845  1.0000
  C   C21       1.0  0.23352  0.48286  0.82275  1.0000
  Fe  Fe7       1.0  0.13881  0.34327  0.82732  1.0000
  S   S11       1.0  0.16333  0.42845  0.84556  1.0000
  Fe  Fe8       1.0  0.09693  0.28282  0.73777  1.0000
  H   H33       1.0  0.08792  0.40964  0.69827  1.0000
  S   S12       1.0  0.13346  0.27125  0.88427  1.0000
  S   S13       1.0  0.08747  0.20441  0.78536  1.0000
  C   C22       1.0  0.21412  0.43137  0.82859  1.0000
  H   H34       1.0  0.22082  0.45015  0.94420  1.0000
  H   H35       1.0  0.25537  0.54105  0.95060  1.0000
  C   C23       1.0  0.23563  0.38211  0.82218  1.0000
  C   C24       1.0  0.06022  0.46049  0.88929  1.0000
  H   H36       1.0  0.08226  0.44482  0.91895  1.0000
  H   H37       1.0  0.22111  0.34224  0.82792  1.0000
  H   H38       1.0  0.11010  0.43987  0.75709  1.0000
  C   C25       1.0  0.12357  0.47868  0.62723  1.0000
  H   H39       1.0  0.09703  0.55744  0.86342  1.0000
  H   H40       1.0  0.26681  0.50787  0.06834  1.0000
  H   H41       1.0  0.13256  0.55169  0.70825  1.0000
  N   N2        1.0  0.13649  0.46634  0.68265  1.0000
  H   H42       1.0  0.22127  0.50159  0.03127  1.0000
  H   H43       1.0  0.19313  0.43317  0.65737  1.0000
  C   C26       1.0  0.10157  0.44826  0.71485  1.0000
  C   C27       1.0  0.24872  0.42946  0.95771  1.0000
  S   S14       1.0  0.05141  0.58904  0.69698  1.0000
  H   H44       1.0  0.10453  0.54121  0.93289  1.0000
  H   H45       1.0  0.23120  0.61557  0.88543  1.0000
  C   C28       1.0  0.08187  0.55524  0.90336  1.0000
  C   C29       1.0  0.27441  0.48492  0.80996  1.0000
  C   C30       1.0  0.24967  0.48014  0.04117  1.0000
  H   H46       1.0  0.21701  0.52114  0.82797  1.0000
  H   H47       1.0  0.04764  0.50270  0.98782  1.0000
  H   H48       1.0  0.26573  0.41711  0.92117  1.0000
  C   C31       1.0  0.15424  0.51675  0.70698  1.0000
  H   H49       1.0  0.07792  0.48051  0.71567  1.0000
  H   H50       1.0  0.24217  0.44204  0.06485  1.0000
  H   H51       1.0  0.23994  0.39054  0.97914  1.0000
  H   H52       1.0  0.03474  0.43059  0.88894  1.0000
  H   H53       1.0  0.10068  0.51216  0.62680  1.0000
  N   N3        1.0  0.04689  0.51744  0.90244  1.0000
  H   H54       1.0  0.17701  0.41149  0.72299  1.0000
  H   H55       1.0  0.15380  0.38229  0.66449  1.0000
  H   H56       1.0  0.17839  0.17486  0.71196  1.0000
  C   C32       1.0  0.23519  0.65110  0.85921  1.0000
  H   H57       1.0  0.11000  0.44125  0.60805  1.0000
  H   H58       1.0  0.18101  0.53127  0.68415  1.0000
  C   C33       1.0  0.27105  0.65829  0.83047  1.0000
  H   H59       1.0  0.16377  0.50877  0.74910  1.0000
  H   H60       1.0  0.07324  0.59840  0.91456  1.0000
  C   C34       1.0  0.16643  0.42133  0.68172  1.0000
  H   H61       1.0  0.03245  0.53928  0.82075  1.0000
  H   H62       1.0  0.07487  0.45910  0.84909  1.0000
  C   C35       1.0  0.02959  0.26573  0.64592  1.0000
  N   N4        1.0  0.27279  0.46645  0.99217  1.0000
  C   C36       1.0  0.02715  0.51732  0.95578  1.0000
  S   S15       1.0  0.15764  0.80173  0.33445  1.0000
  H   H63       1.0  0.06018  0.68177  0.45769  1.0000
  Fe  Fe9       1.0  0.13313  0.74323  0.27225  1.0000
  H   H64       1.0  0.21353  0.84762  0.50508  1.0000
  N   N5        1.0  0.22280  0.91812  0.45286  1.0000
  H   H65       1.0  0.20218  0.05311  0.20403  1.0000
  S   S16       1.0  0.07124  0.74107  0.30630  1.0000
  C   C37       1.0  0.22727  0.72094  0.24027  1.0000
  H   H66       1.0  0.20880  0.75719  0.24586  1.0000
  H   H67       1.0  0.17897  0.85235  0.45059  1.0000
  C   C38       1.0  0.27416  0.14249  0.15923  1.0000
  C   C39       1.0  0.07334  0.03015  0.27215  1.0000
  Fe  Fe10      1.0  0.09441  0.80500  0.36262  1.0000
  C   C40       1.0  0.03406  0.68305  0.48557  1.0000
  H   H68       1.0  0.09371  0.06575  0.26305  1.0000
  H   H69       1.0  0.27219  0.91743  0.39750  1.0000
  S   S17       1.0  0.12097  0.80960  0.21070  1.0000
  Fe  Fe11      1.0  0.06061  0.81221  0.24999  1.0000
  H   H70       1.0  0.27002  0.13665  0.11524  1.0000
  H   H71       1.0  0.07864  0.05896  0.51701  1.0000
  C   C41       1.0  0.09271  0.91701  0.43238  1.0000
  H   H72       1.0  0.25428  0.04001  0.19253  1.0000
  C   C42       1.0  0.27078  0.10879  0.39504  1.0000
  N   N6        1.0  0.03413  0.03722  0.24613  1.0000
  H   H73       1.0  0.12952  0.06280  0.53949  1.0000
  N   N7        1.0  0.23793  0.12649  0.18994  1.0000
  H   H74       1.0  0.17437  0.89826  0.50716  1.0000
  H   H75       1.0  0.17601  0.14930  0.19429  1.0000
  H   H76       1.0  0.06028  0.07659  0.17668  1.0000
  S   S18       1.0  0.07737  0.87644  0.30985  1.0000
  C   C43       1.0  0.19876  0.95733  0.42075  1.0000
  S   S19       1.0  0.17067  0.95000  0.26705  1.0000
  C   C44       1.0  0.22188  0.94404  0.27850  1.0000
  C   C45       1.0  0.24329  0.99094  0.29496  1.0000
  C   C46       1.0  0.02986  0.71281  0.18142  1.0000
  C   C47       1.0  0.24142  0.89314  0.27212  1.0000
  H   H77       1.0  0.22780  0.02958  0.30234  1.0000
  H   H78       1.0  0.21757  0.12542  0.27222  1.0000
  H   H79       1.0  0.10295  0.71573  0.52961  1.0000
  C   C48       1.0  0.24467  0.13577  0.24793  1.0000
  C   C49       1.0  0.10673  0.08378  0.51437  1.0000
  H   H80       1.0  0.26924  0.10942  0.26333  1.0000
  S   S20       1.0  0.07581  0.80819  0.44850  1.0000
  H   H81       1.0  0.26499  0.06477  0.39931  1.0000
  Fe  Fe12      1.0  0.13907  0.86822  0.27635  1.0000
  H   H82       1.0  0.11722  0.08214  0.47179  1.0000
  C   C50       1.0  0.24570  0.94946  0.49340  1.0000
  C   C51       1.0  0.23928  0.14662  0.39643  1.0000
  H   H83       1.0  0.21766  0.99017  0.40188  1.0000
  H   H84       1.0  0.18299  0.93576  0.38747  1.0000
  H   H85       1.0  0.19767  0.15481  0.12854  1.0000
  H   H86       1.0  0.12141  0.90293  0.41837  1.0000
  H   H87       1.0  0.23484  0.86523  0.38508  1.0000
  H   H88       1.0  0.07025  0.02758  0.31663  1.0000
  H   H89       1.0  0.16135  0.15419  0.55439  1.0000
  H   H90       1.0  0.17606  0.97896  0.44587  1.0000
  C   C52       1.0  0.02770  0.89589  0.47003  1.0000
  H   H91       1.0  0.05928  0.72996  0.18744  1.0000
  H   H92       1.0  0.06410  0.75993  0.55440  1.0000
  C   C53       1.0  0.07647  0.71704  0.55684  1.0000
  H   H93       1.0  0.10185  0.00118  0.40480  1.0000
  H   H94       1.0  0.22491  0.85668  0.25963  1.0000
  C   C54       1.0  0.04233  0.98850  0.43591  1.0000
  N   N8        1.0  0.04630  0.67472  0.54195  1.0000
  C   C55       1.0  0.25087  0.88817  0.41729  1.0000
  C   C56       1.0  0.06581  0.87881  0.45485  1.0000
  H   H95       1.0  0.22567  0.97082  0.52260  1.0000
  H   H96       1.0  0.03483  0.12511  0.25989  1.0000
  C   C57       1.0  0.19623  0.87740  0.48007  1.0000
  H   H97       1.0  0.08852  0.99167  0.25818  1.0000
  S   S21       1.0  0.19008  0.12253  0.40058  1.0000
  C   C58       1.0  0.20386  0.16062  0.17206  1.0000
  C   C59       1.0  0.08125  0.97215  0.42361  1.0000
  C   C60       1.0  0.22888  0.06702  0.18054  1.0000
  C   C61       1.0  0.03987  0.04149  0.18730  1.0000
  H   H98       1.0  0.04046  0.14809  0.50010  1.0000
  H   H99       1.0  0.05322  0.00287  0.17046  1.0000
  H   H100      1.0  0.26878  0.85725  0.44009  1.0000
  H   H101      1.0  0.26557  0.92124  0.51636  1.0000
  N   N9        1.0  0.10009  0.14180  0.53172  1.0000
  H   H102      1.0  0.05545  0.12149  0.59125  1.0000
  H   H103      1.0  0.22275  0.05867  0.13741  1.0000
  H   H104      1.0  0.26504  0.98192  0.47442  1.0000
  C   C62       1.0  0.26832  0.72731  0.23121  1.0000
  S   S22       1.0  0.02676  0.05571  0.41984  1.0000
  C   C63       1.0  0.08517  0.14221  0.58774  1.0000
  C   C64       1.0  0.21017  0.66775  0.24140  1.0000
  H   H105      1.0  0.08712  0.71099  0.59876  1.0000
  H   H106      1.0  0.07921  0.16459  0.45314  1.0000
  C   C65       1.0  0.19494  0.88670  0.63382  1.0000
  Fe  Fe13      1.0  0.09991  0.78462  0.72913  1.0000
  C   C66       1.0  0.24493  0.74250  0.79037  1.0000
  Fe  Fe14      1.0  0.11306  0.71316  0.82798  1.0000
  H   H107      1.0  0.03972  0.86239  0.88093  1.0000
  C   C67       1.0  0.17120  0.84103  0.64843  1.0000
  C   C68       1.0  0.22518  0.77903  0.62310  1.0000
  S   S23       1.0  0.03746  0.75319  0.71792  1.0000
  S   S24       1.0  0.12582  0.69971  0.74063  1.0000
  N   N10       1.0  0.19083  0.94913  0.79463  1.0000
  C   C69       1.0  0.20890  0.73468  0.81813  1.0000
  H   H108      1.0  0.18479  0.76386  0.81271  1.0000
  C   C70       1.0  0.15281  0.94144  0.82429  1.0000
  H   H109      1.0  0.16060  0.96297  0.72000  1.0000
  S   S25       1.0  0.09315  0.80150  0.81742  1.0000
  C   C71       1.0  0.21993  0.97825  0.82911  1.0000
  H   H110      1.0  0.10608  0.12065  0.61532  1.0000
  H   H111      1.0  0.21430  0.86852  0.81502  1.0000
  C   C72       1.0  0.23432  0.87876  0.61673  1.0000
  C   C73       1.0  0.25352  0.09979  0.76751  1.0000
  C   C74       1.0  0.24946  0.82495  0.61091  1.0000
  H   H112      1.0  0.18488  0.86988  0.75545  1.0000
  H   H113      1.0  0.18324  0.92840  0.63687  1.0000
  C   C75       1.0  0.18357  0.98281  0.74591  1.0000
  H   H114      1.0  0.17272  0.02526  0.75635  1.0000
  C   C76       1.0  0.20512  0.14995  0.71444  1.0000
  Fe  Fe15      1.0  0.03209  0.76404  0.80724  1.0000
  C   C77       1.0  0.25988  0.10169  0.67049  1.0000
  H   H115      1.0  0.04074  0.95088  0.93163  1.0000
  H   H116      1.0  0.16794  0.75161  0.65327  1.0000
  C   C78       1.0  0.27388  0.08436  0.72056  1.0000
  S   S26       1.0  0.19265  0.14764  0.82354  1.0000
  C   C79       1.0  0.22571  0.13489  0.66740  1.0000
  H   H117      1.0  0.23691  0.73733  0.61896  1.0000
  H   H118      1.0  0.13002  0.92039  0.79882  1.0000
  C   C80       1.0  0.20690  0.89414  0.77918  1.0000
  H   H119      1.0  0.15684  0.91532  0.86085  1.0000
  H   H120      1.0  0.23443  0.89820  0.75407  1.0000
  H   H121      1.0  0.14015  0.98211  0.83722  1.0000
  S   S27       1.0  0.12379  0.85318  0.67615  1.0000
  H   H122      1.0  0.24859  0.77761  0.76342  1.0000
  H   H123      1.0  0.24907  0.98396  0.80795  1.0000
  H   H124      1.0  0.21132  0.98815  0.72146  1.0000
  H   H125      1.0  0.20903  0.02041  0.84070  1.0000
  C   C81       1.0  0.18624  0.78710  0.64280  1.0000
  H   H126      1.0  0.22557  0.95471  0.86681  1.0000
  C   C82       1.0  0.21898  0.13212  0.76450  1.0000
  H   H127      1.0  0.21504  0.14859  0.62868  1.0000
  H   H128      1.0  0.25285  0.91445  0.60771  1.0000
  C   C83       1.0  0.27589  0.70421  0.79625  1.0000
  H   H129      1.0  0.26485  0.08727  0.80629  1.0000
  H   H130      1.0  0.04640  0.15377  0.09614  1.0000
  S   S28       1.0  0.15800  0.67852  0.88476  1.0000
  C   C84       1.0  0.20402  0.68909  0.85263  1.0000
  S   S29       1.0  0.05156  0.67711  0.82637  1.0000
  Fe  Fe16      1.0  0.06281  0.66973  0.73839  1.0000
  H   H131      1.0  0.30938  0.17240  0.54502  1.0000
  H   H132      1.0  0.29194  0.26696  0.37865  1.0000
  C   C85       1.0  0.28614  0.22284  0.38330  1.0000
  C   C86       1.0  0.33265  0.20213  0.53051  1.0000
  S   S30       1.0  0.49363  0.52534  0.21784  1.0000
  H   H133      1.0  0.28235  0.18685  0.16598  1.0000
  C   C87       1.0  0.40462  0.35142  0.19171  1.0000
  H   H134      1.0  0.44137  0.34609  0.28633  1.0000
  H   H135      1.0  0.45046  0.28271  0.25047  1.0000
  H   H136      1.0  0.32641  0.21085  0.48750  1.0000
  C   C88       1.0  0.31742  0.18477  0.37980  1.0000
  S   S31       1.0  0.42805  0.58930  0.58467  1.0000
  H   H137      1.0  0.34966  0.27074  0.19228  1.0000
  C   C89       1.0  0.50696  0.45614  0.22711  1.0000
  H   H138      1.0  0.50227  0.32988  0.16609  1.0000
  S   S32       1.0  0.36592  0.20790  0.36624  1.0000
  H   H139      1.0  0.32869  0.24167  0.55303  1.0000
  H   H140      1.0  0.43378  0.20357  0.52036  1.0000
  H   H141      1.0  0.37971  0.35763  0.16316  1.0000
  S   S33       1.0  0.31003  0.41609  0.14411  1.0000
  C   C90       1.0  0.38083  0.17021  0.59532  1.0000
  H   H142      1.0  0.29344  0.59106  0.21727  1.0000
  H   H143      1.0  0.37286  0.38832  0.28415  1.0000
  C   C91       1.0  0.40287  0.21927  0.51564  1.0000
  H   H144      1.0  0.39817  0.23996  0.19664  1.0000
  H   H145      1.0  0.36514  0.23754  0.25355  1.0000
  H   H146      1.0  0.33456  0.35549  0.24533  1.0000
  C   C92       1.0  0.42724  0.30662  0.27265  1.0000
  H   H147      1.0  0.48447  0.42849  0.15065  1.0000
  C   C93       1.0  0.37547  0.26401  0.21944  1.0000
  H   H148      1.0  0.35183  0.32284  0.30576  1.0000
  H   H149      1.0  0.41905  0.28190  0.30893  1.0000
  N   N11       1.0  0.39219  0.31738  0.23846  1.0000
  H   H150      1.0  0.41550  0.39321  0.20418  1.0000
  Fe  Fe17      1.0  0.35234  0.48869  0.14863  1.0000
  H   H151      1.0  0.42902  0.33108  0.16869  1.0000
  C   C94       1.0  0.36153  0.34736  0.26988  1.0000
  C   C95       1.0  0.49849  0.41640  0.18788  1.0000
  H   H152      1.0  0.48343  0.45556  0.52225  1.0000
  H   H153      1.0  0.39831  0.22667  0.47194  1.0000
  H   H154      1.0  0.46987  0.65906  0.50955  1.0000
  S   S34       1.0  0.37751  0.53068  0.22166  1.0000
  S   S35       1.0  0.52142  0.21011  0.52218  1.0000
  C   C96       1.0  0.47632  0.61712  0.58542  1.0000
  Fe  Fe18      1.0  0.36585  0.60947  0.17613  1.0000
  H   H155      1.0  0.51824  0.57836  0.11948  1.0000
  H   H156      1.0  0.29324  0.48680  0.23600  1.0000
  C   C97       1.0  0.48958  0.65029  0.54271  1.0000
  S   S36       1.0  0.42521  0.61243  0.13541  1.0000
  Fe  Fe19      1.0  0.43517  0.53079  0.17525  1.0000
  H   H157      1.0  0.49338  0.52814  0.51144  1.0000
  N   N12       1.0  0.37321  0.17937  0.53753  1.0000
  C   C98       1.0  0.50873  0.36069  0.19647  1.0000
  H   H158      1.0  0.40117  0.26019  0.53630  1.0000
  H   H159      1.0  0.50450  0.49685  0.57501  1.0000
  C   C99       1.0  0.50500  0.48970  0.53081  1.0000
  S   S37       1.0  0.33489  0.56788  0.10765  1.0000
  C   C100      1.0  0.44806  0.19593  0.10845  1.0000
  H   H160      1.0  0.52430  0.43344  0.44112  1.0000
  H   H161      1.0  0.29982  0.50906  0.92484  1.0000
  H   H162      1.0  0.30368  0.39853  0.02966  1.0000
  S   S38       1.0  0.34735  0.43642  0.79118  1.0000
  S   S39       1.0  0.46279  0.35100  0.04766  1.0000
  C   C101      1.0  0.44308  0.43499  0.83874  1.0000
  H   H163      1.0  0.39282  0.36568  0.88997  1.0000
  C   C102      1.0  0.40646  0.39911  0.91487  1.0000
  H   H164      1.0  0.47594  0.34885  0.93687  1.0000
  H   H165      1.0  0.50352  0.37648  0.88089  1.0000
  H   H166      1.0  0.42954  0.40304  0.81205  1.0000
  C   C103      1.0  0.50198  0.60555  0.62815  1.0000
  C   C104      1.0  0.46322  0.45941  0.92835  1.0000
  H   H167      1.0  0.46141  0.33163  0.86974  1.0000
  N   N13       1.0  0.44646  0.41472  0.89447  1.0000
  H   H168      1.0  0.46528  0.44608  0.97111  1.0000
  C   C105      1.0  0.47297  0.36575  0.89554  1.0000
  C   C106      1.0  0.29592  0.43546  0.80404  1.0000
  C   C107      1.0  0.40146  0.27765  0.05927  1.0000
  H   H169      1.0  0.40789  0.38386  0.95715  1.0000
  C   C108      1.0  0.44229  0.28685  0.06662  1.0000
  H   H170      1.0  0.29313  0.34588  0.80601  1.0000
  H   H171      1.0  0.47269  0.44596  0.82166  1.0000
  H   H172      1.0  0.44442  0.49752  0.92708  1.0000
  H   H173      1.0  0.49732  0.25310  0.09684  1.0000
  C   C109      1.0  0.46578  0.24585  0.09077  1.0000
  C   C110      1.0  0.38414  0.22707  0.07507  1.0000
  C   C111      1.0  0.28276  0.51811  0.96240  1.0000
  C   C112      1.0  0.40732  0.18644  0.10009  1.0000
  H   H174      1.0  0.49360  0.47162  0.91440  1.0000
  C   C113      1.0  0.31002  0.43774  0.00717  1.0000
  H   H175      1.0  0.48453  0.59036  0.03250  1.0000
  Fe  Fe20      1.0  0.36058  0.64270  0.75548  1.0000
  S   S40       1.0  0.34467  0.57313  0.69969  1.0000
  Fe  Fe21      1.0  0.44198  0.59553  0.78184  1.0000
  Fe  Fe22      1.0  0.40773  0.58296  0.67030  1.0000
  H   H176      1.0  0.38595  0.43541  0.91358  1.0000
  S   S41       1.0  0.42150  0.65721  0.72090  1.0000
  S   S42       1.0  0.38218  0.58851  0.82262  1.0000
  S   S43       1.0  0.49848  0.61196  0.82764  1.0000
  Fe  Fe23      1.0  0.39544  0.56329  0.07063  1.0000
  S   S44       1.0  0.43286  0.52170  0.72846  1.0000
  H   H177      1.0  0.49200  0.57951  0.66106  1.0000
  H   H178      1.0  0.51384  0.52498  0.74909  1.0000
  H   H179      1.0  0.35259  0.21991  0.06897  1.0000
  H   H180      1.0  0.42410  0.47279  0.83674  1.0000
  Fe  Fe24      1.0  0.37120  0.51936  0.76401  1.0000
  S   S45       1.0  0.40489  0.58753  0.98487  1.0000
  H   H181      1.0  0.29504  0.62877  0.83518  1.0000
  H   H182      1.0  0.38324  0.30955  0.04111  1.0000
  H   H183      1.0  0.32900  0.46428  0.03336  1.0000
  H   H184      1.0  0.28935  0.52467  0.80523  1.0000
  H   H185      1.0  0.37878  0.20969  0.61843  1.0000
  H   H186      1.0  0.51301  0.60390  0.97264  1.0000
  H   H187      1.0  0.51397  0.53617  0.00313  1.0000
  H   H188      1.0  0.32796  0.42666  0.97111  1.0000
  C   C114      1.0  0.51332  0.58150  0.01179  1.0000
  H   H189      1.0  0.30143  0.54675  0.98700  1.0000
  H   H190      1.0  0.46076  0.65830  0.92729  1.0000
  C   C115      1.0  0.41721  0.65791  0.99124  1.0000
  C   C116      1.0  0.27651  0.38417  0.81030  1.0000
  S   S46       1.0  0.41146  0.48094  0.10603  1.0000
  C   C117      1.0  0.50264  0.14202  0.52344  1.0000
  H   H191      1.0  0.37214  0.13159  0.46468  1.0000
  C   C118      1.0  0.44619  0.76270  0.18980  1.0000
  H   H192      1.0  0.37097  0.80021  0.18213  1.0000
  C   C119      1.0  0.49783  0.11162  0.47606  1.0000
  H   H193      1.0  0.36623  0.74795  0.52397  1.0000
  C   C120      1.0  0.29218  0.68053  0.22292  1.0000
  N   N14       1.0  0.42916  0.81231  0.21625  1.0000
  C   C121      1.0  0.30426  0.93721  0.29568  1.0000
  H   H194      1.0  0.41446  0.72088  0.54071  1.0000
  H   H195      1.0  0.45766  0.83414  0.54174  1.0000
  H   H196      1.0  0.50505  0.13022  0.43767  1.0000
  S   S47       1.0  0.34330  0.68879  0.21095  1.0000
  H   H197      1.0  0.39294  0.76379  0.27056  1.0000
  H   H198      1.0  0.40240  0.83366  0.29207  1.0000
  N   N15       1.0  0.41578  0.79349  0.48950  1.0000
  C   C122      1.0  0.49154  0.11832  0.57272  1.0000
  S   S48       1.0  0.38428  0.12555  0.12342  1.0000
  H   H199      1.0  0.42337  0.72919  0.18563  1.0000
  H   H200      1.0  0.47966  0.03324  0.44148  1.0000
  C   C123      1.0  0.39759  0.75996  0.53330  1.0000
  H   H201      1.0  0.47142  0.74527  0.21324  1.0000
  H   H202      1.0  0.45761  0.77277  0.14885  1.0000
  H   H203      1.0  0.41109  0.15261  0.60195  1.0000
  H   H204      1.0  0.40471  0.87065  0.44808  1.0000
  C   C124      1.0  0.41594  0.79737  0.27122  1.0000
  H   H205      1.0  0.44133  0.78239  0.29595  1.0000
  H   H206      1.0  0.40648  0.10706  0.51388  1.0000
  H   H207      1.0  0.48640  0.84268  0.24195  1.0000
  C   C125      1.0  0.39207  0.84446  0.48115  1.0000
  C   C126      1.0  0.41642  0.76061  0.43938  1.0000
  Fe  Fe25      1.0  0.39418  0.13903  0.31969  1.0000
  S   S49       1.0  0.35455  0.09365  0.26267  1.0000
  H   H208      1.0  0.36048  0.83448  0.47131  1.0000
  Fe  Fe26      1.0  0.46517  0.06962  0.29047  1.0000
  S   S50       1.0  0.43206  0.02008  0.22868  1.0000
  C   C127      1.0  0.28268  0.88971  0.28100  1.0000
  Fe  Fe27      1.0  0.40548  0.10158  0.20521  1.0000
  C   C128      1.0  0.30979  0.12779  0.38597  1.0000
  Fe  Fe28      1.0  0.38445  0.01650  0.29198  1.0000
  S   S51       1.0  0.35570  0.93314  0.30613  1.0000
  C   C129      1.0  0.51807  0.86118  0.35967  1.0000
  S   S52       1.0  0.41884  0.06136  0.35553  1.0000
  H   H209      1.0  0.38092  0.86977  0.20457  1.0000
  H   H210      1.0  0.35391  0.09520  0.52323  1.0000
  S   S53       1.0  0.44378  0.15256  0.26026  1.0000
  H   H211      1.0  0.47126  0.83541  0.47206  1.0000
  H   H212      1.0  0.45984  0.96942  0.32422  1.0000
  H   H213      1.0  0.29798  0.85052  0.27593  1.0000
  H   H214      1.0  0.42950  0.78505  0.40550  1.0000
  H   H215      1.0  0.39653  0.78343  0.57176  1.0000
  H   H216      1.0  0.39191  0.87058  0.51790  1.0000
  H   H217      1.0  0.33395  0.09819  0.38371  1.0000
  H   H218      1.0  0.40373  0.84471  0.14359  1.0000
  C   C130      1.0  0.48664  0.94729  0.33349  1.0000
  C   C131      1.0  0.45703  0.80931  0.50402  1.0000
  H   H219      1.0  0.47615  0.77208  0.50977  1.0000
  C   C132      1.0  0.45986  0.85656  0.21885  1.0000
  C   C133      1.0  0.47237  0.03311  0.52752  1.0000
  H   H220      1.0  0.44793  0.89447  0.23887  1.0000
  H   H221      1.0  0.30065  0.02354  0.31731  1.0000
  H   H222      1.0  0.38582  0.74744  0.42756  1.0000
  Fe  Fe29      1.0  0.40540  0.96057  0.59162  1.0000
  C   C134      1.0  0.39469  0.83267  0.18518  1.0000
  S   S54       1.0  0.34329  0.95911  0.55972  1.0000
  C   C135      1.0  0.47650  0.06388  0.57479  1.0000
  S   S55       1.0  0.45419  0.96493  0.53011  1.0000
  H   H223      1.0  0.45467  0.87177  0.35157  1.0000
  H   H224      1.0  0.47031  0.86896  0.17792  1.0000
  C   C136      1.0  0.48367  0.89139  0.34870  1.0000
  C   C137      1.0  0.37652  0.12590  0.50860  1.0000
  C   C138      1.0  0.48302  0.05695  0.47816  1.0000
  S   S56       1.0  0.51437  0.79000  0.37422  1.0000
  H   H225      1.0  0.43481  0.72243  0.44381  1.0000
  S   S57       1.0  0.29860  0.81577  0.58816  1.0000
  C   C139      1.0  0.28444  0.98759  0.30336  1.0000
  H   H226      1.0  0.28145  0.76841  0.22971  1.0000
  H   H227      1.0  0.30031  0.11680  0.17093  1.0000
  C   C140      1.0  0.52392  0.97358  0.32979  1.0000
  H   H228      1.0  0.46587  0.16446  0.12789  1.0000
  H   H229      1.0  0.52494  0.10012  0.20295  1.0000
  C   C141      1.0  0.44800  0.68135  0.96048  1.0000
  C   C142      1.0  0.46418  0.73307  0.97511  1.0000
  H   H230      1.0  0.48775  0.72671  0.78208  1.0000
  H   H231      1.0  0.31212  0.75689  0.94081  1.0000
  C   C143      1.0  0.51716  0.93671  0.77486  1.0000
  H   H232      1.0  0.37881  0.88017  0.92654  1.0000
  S   S58       1.0  0.47155  0.82282  0.04332  1.0000
  C   C144      1.0  0.41568  0.74045  0.04699  1.0000
  H   H233      1.0  0.31599  0.80882  0.82782  1.0000
  H   H234      1.0  0.38250  0.76403  0.82613  1.0000
  H   H235      1.0  0.46649  0.95411  0.72400  1.0000
  C   C145      1.0  0.39992  0.68858  0.03292  1.0000
  C   C146      1.0  0.52585  0.75985  0.69232  1.0000
  C   C147      1.0  0.39067  0.79156  0.86025  1.0000
  C   C148      1.0  0.44912  0.76153  0.01984  1.0000
  H   H236      1.0  0.29781  0.84080  0.88814  1.0000
  H   H237      1.0  0.40315  0.83027  0.84241  1.0000
  H   H238      1.0  0.36137  0.72753  0.94004  1.0000
  H   H239      1.0  0.33648  0.87375  0.84855  1.0000
  H   H240      1.0  0.34307  0.84563  0.96925  1.0000
  H   H241      1.0  0.52412  0.75135  0.82878  1.0000
  H   H242      1.0  0.48841  0.75034  0.95199  1.0000
  H   H243      1.0  0.40282  0.76298  0.08037  1.0000
  H   H244      1.0  0.39294  0.81939  0.96338  1.0000
  C   C149      1.0  0.32507  0.83301  0.86367  1.0000
  H   H245      1.0  0.33064  0.72220  0.88199  1.0000
  N   N16       1.0  0.35576  0.80337  0.89499  1.0000
  C   C150      1.0  0.36815  0.83865  0.94058  1.0000
  C   C151      1.0  0.33916  0.75028  0.91550  1.0000
  H   H246      1.0  0.51015  0.89393  0.90483  1.0000
  Fe  Fe30      1.0  0.32816  0.01328  0.62945  1.0000
  H   H247      1.0  0.43909  0.90726  0.88681  1.0000
  C   C152      1.0  0.46058  0.91479  0.85512  1.0000
  Fe  Fe31      1.0  0.37885  0.94651  0.70610  1.0000
  S   S59       1.0  0.39760  0.88496  0.64328  1.0000
  S   S60       1.0  0.39634  0.93693  0.79250  1.0000
  H   H248      1.0  0.46933  0.04515  0.61317  1.0000
  C   C153      1.0  0.50117  0.90807  0.86569  1.0000
  C   C154      1.0  0.44783  0.93099  0.80407  1.0000
  H   H249      1.0  0.41483  0.77057  0.88298  1.0000
  S   S61       1.0  0.39159  0.02278  0.65635  1.0000
  S   S62       1.0  0.31381  0.94259  0.68515  1.0000
  C   C155      1.0  0.47616  0.94142  0.76357  1.0000
  Fe  Fe32      1.0  0.33389  0.88881  0.61691  1.0000
  H   H250      1.0  0.37521  0.67140  0.05582  1.0000
  S   S63       1.0  0.32123  0.71694  0.76316  1.0000
  H   H251      1.0  0.49830  0.80016  0.78676  1.0000
  H   H252      1.0  0.51177  0.80154  0.68834  1.0000
  H   H253      1.0  0.30076  0.05979  0.72326  1.0000
  H   H254      1.0  0.35881  0.14057  0.61315  1.0000
  H   H255      1.0  0.49520  0.14178  0.60947  1.0000
  C   C156      1.0  0.51199  0.75799  0.78770  1.0000
  H   H256      1.0  0.50242  0.72792  0.68429  1.0000
  S   S64       1.0  0.28462  0.08125  0.61165  1.0000
  H   H257      1.0  0.51762  0.67122  0.07557  1.0000
  Fe  Fe33      1.0  0.63206  0.19352  0.38452  1.0000
  S   S65       1.0  0.62716  0.23514  0.46495  1.0000
  H   H258      1.0  0.64325  0.42731  0.19155  1.0000
  C   C157      1.0  0.53612  0.38489  0.28305  1.0000
  S   S66       1.0  0.55669  0.31157  0.41076  1.0000
  H   H259      1.0  0.71050  0.45925  0.27082  1.0000
  Fe  Fe34      1.0  0.62334  0.31420  0.41728  1.0000
  S   S67       1.0  0.64885  0.39714  0.44127  1.0000
  Fe  Fe35      1.0  0.56120  0.22902  0.45157  1.0000
  H   H260      1.0  0.56352  0.56219  0.50542  1.0000
  S   S68       1.0  0.63475  0.27340  0.33759  1.0000
  S   S69       1.0  0.56632  0.18115  0.37471  1.0000
  H   H261      1.0  0.65863  0.44027  0.33814  1.0000
  C   C158      1.0  0.75302  0.64725  0.14362  1.0000
  C   C159      1.0  0.76373  0.43705  0.11961  1.0000
  C   C160      1.0  0.54475  0.46807  0.45240  1.0000
  C   C161      1.0  0.70051  0.40355  0.43028  1.0000
  C   C162      1.0  0.71863  0.45608  0.43381  1.0000
  H   H262      1.0  0.55996  0.42897  0.58211  1.0000
  C   C163      1.0  0.72358  0.35713  0.41701  1.0000
  H   H263      1.0  0.60728  0.20187  0.22764  1.0000
  C   C164      1.0  0.52717  0.34488  0.24425  1.0000
  H   H264      1.0  0.70981  0.31641  0.41439  1.0000
  Fe  Fe36      1.0  0.56838  0.26427  0.33475  1.0000
  H   H265      1.0  0.63694  0.17982  0.17086  1.0000
  H   H266      1.0  0.71129  0.22128  0.34939  1.0000
  H   H267      1.0  0.59024  0.41356  0.52439  1.0000
  S   S70       1.0  0.53775  0.27490  0.25594  1.0000
  C   C165      1.0  0.73299  0.19041  0.36063  1.0000
  H   H268      1.0  0.62920  0.56376  0.25892  1.0000
  C   C166      1.0  0.72866  0.65030  0.34353  1.0000
  H   H269      1.0  0.69899  0.53214  0.27202  1.0000
  H   H270      1.0  0.65716  0.39035  0.25136  1.0000
  H   H271      1.0  0.59094  0.51375  0.24348  1.0000
  H   H272      1.0  0.69820  0.49469  0.20963  1.0000
  H   H273      1.0  0.62937  0.52860  0.19517  1.0000
  C   C167      1.0  0.63857  0.42494  0.23560  1.0000
  H   H274      1.0  0.60682  0.41328  0.24166  1.0000
  H   H275      1.0  0.64754  0.51305  0.34155  1.0000
  H   H276      1.0  0.72790  0.65453  0.11545  1.0000
  H   H277      1.0  0.75068  0.65610  0.59267  1.0000
  N   N17       1.0  0.64822  0.47842  0.26186  1.0000
  H   H278      1.0  0.75154  0.56692  0.33662  1.0000
  C   C168      1.0  0.73443  0.39551  0.11960  1.0000
  H   H279      1.0  0.59088  0.21580  0.16059  1.0000
  H   H280      1.0  0.77332  0.50294  0.42626  1.0000
  H   H281      1.0  0.70083  0.49222  0.44350  1.0000
  H   H282      1.0  0.74632  0.60824  0.16619  1.0000
  N   N18       1.0  0.54559  0.47618  0.51127  1.0000
  C   C169      1.0  0.55437  0.65950  0.58477  1.0000
  C   C170      1.0  0.57318  0.52239  0.52422  1.0000
  C   C171      1.0  0.69089  0.49174  0.25315  1.0000
  C   C172      1.0  0.75880  0.61049  0.34198  1.0000
  C   C173      1.0  0.64022  0.47368  0.32008  1.0000
  C   C174      1.0  0.75978  0.46219  0.42437  1.0000
  C   C175      1.0  0.62336  0.52315  0.23889  1.0000
  H   H283      1.0  0.60840  0.46338  0.32848  1.0000
  H   H284      1.0  0.55123  0.37326  0.31928  1.0000
  H   H285      1.0  0.60407  0.51360  0.50973  1.0000
  C   C176      1.0  0.60588  0.18427  0.18635  1.0000
  C   C177      1.0  0.75345  0.49239  0.10907  1.0000
  C   C178      1.0  0.76479  0.36327  0.40811  1.0000
  H   H286      1.0  0.76614  0.65161  0.52349  1.0000
  H   H287      1.0  0.74240  0.35266  0.12737  1.0000
  S   S71       1.0  0.67888  0.63025  0.33829  1.0000
  H   H288      1.0  0.57476  0.52960  0.56835  1.0000
  C   C179      1.0  0.69482  0.40920  0.10814  1.0000
  H   H289      1.0  0.57179  0.58001  0.12272  1.0000
  C   C180      1.0  0.77358  0.20443  0.36101  1.0000
  H   H290      1.0  0.57491  0.45766  0.43641  1.0000
  H   H291      1.0  0.52740  0.17174  0.18135  1.0000
  H   H292      1.0  0.53453  0.50632  0.43129  1.0000
  C   C181      1.0  0.55944  0.42455  0.53759  1.0000
  H   H293      1.0  0.53983  0.38844  0.52788  1.0000
  H   H294      1.0  0.53255  0.47149  0.30478  1.0000
  C   C182      1.0  0.52607  0.44059  0.27447  1.0000
  H   H295      1.0  0.71404  0.66421  0.23522  1.0000
  H   H296      1.0  0.67223  0.37687  0.10756  1.0000
  Fe  Fe37      1.0  0.60704  0.28565  0.02664  1.0000
  C   C183      1.0  0.53019  0.51608  0.78521  1.0000
  C   C184      1.0  0.71594  0.64591  0.00302  1.0000
  Fe  Fe38      1.0  0.58584  0.36635  0.93831  1.0000
  S   S72       1.0  0.55437  0.42359  0.99497  1.0000
  S   S73       1.0  0.63433  0.20345  0.04856  1.0000
  Fe  Fe39      1.0  0.60600  0.40868  0.04905  1.0000
  Fe  Fe40      1.0  0.52855  0.34662  0.03165  1.0000
  H   H297      1.0  0.54817  0.43426  0.75902  1.0000
  C   C185      1.0  0.55023  0.46518  0.79045  1.0000
  S   S74       1.0  0.64018  0.35755  0.98944  1.0000
  S   S75       1.0  0.55527  0.28972  0.97011  1.0000
  S   S76       1.0  0.58723  0.38491  0.84985  1.0000
  H   H298      1.0  0.67528  0.25418  0.95713  1.0000
  C   C186      1.0  0.57067  0.45291  0.83785  1.0000
  C   C187      1.0  0.69355  0.22119  0.97302  1.0000
  C   C188      1.0  0.73023  0.20871  0.94827  1.0000
  N   N19       1.0  0.54763  0.59875  0.04491  1.0000
  H   H299      1.0  0.56166  0.61444  0.65893  1.0000
  H   H300      1.0  0.58705  0.54041  0.00629  1.0000
  H   H301      1.0  0.53882  0.66320  0.74147  1.0000
  C   C189      1.0  0.57453  0.49376  0.87743  1.0000
  H   H302      1.0  0.58871  0.60966  0.97881  1.0000
  C   C190      1.0  0.54127  0.62578  0.62726  1.0000
  H   H303      1.0  0.69821  0.60830  0.99950  1.0000
  H   H304      1.0  0.59248  0.48582  0.91250  1.0000
  C   C191      1.0  0.75742  0.64211  0.00965  1.0000
  C   C192      1.0  0.55458  0.54459  0.87202  1.0000
  S   S77       1.0  0.57762  0.33631  0.09156  1.0000
  C   C193      1.0  0.68045  0.19021  0.01747  1.0000
  H   H305      1.0  0.74042  0.23297  0.91410  1.0000
  C   C194      1.0  0.58529  0.58532  0.01662  1.0000
  C   C195      1.0  0.71359  0.50636  0.09938  1.0000
  C   C196      1.0  0.54608  0.56877  0.09680  1.0000
  H   H306      1.0  0.61177  0.59511  0.04176  1.0000
  H   H307      1.0  0.55651  0.57542  0.90322  1.0000
  H   H308      1.0  0.54706  0.52282  0.09099  1.0000
  C   C197      1.0  0.68436  0.46469  0.09876  1.0000
  H   H309      1.0  0.70548  0.54909  0.09132  1.0000
  S   S78       1.0  0.63443  0.48204  0.08875  1.0000
  H   H310      1.0  0.77132  0.60171  0.01174  1.0000
  C   C198      1.0  0.54573  0.65941  0.05446  1.0000
  C   C199      1.0  0.53050  0.55438  0.82744  1.0000
  C   C200      1.0  0.58337  0.10839  0.13050  1.0000
  S   S79       1.0  0.67680  0.72678  0.46393  1.0000
  Fe  Fe41      1.0  0.64793  0.69314  0.38920  1.0000
  N   N20       1.0  0.58418  0.13056  0.18584  1.0000
  Fe  Fe42      1.0  0.57428  0.76244  0.40223  1.0000
  H   H311      1.0  0.56746  0.06764  0.12871  1.0000
  C   C201      1.0  0.73816  0.70658  0.35098  1.0000
  H   H312      1.0  0.71489  0.73754  0.35161  1.0000
  S   S80       1.0  0.63122  0.77636  0.35627  1.0000
  H   H313      1.0  0.66181  0.00130  0.51815  1.0000
  Fe  Fe43      1.0  0.61562  0.71646  0.49973  1.0000
  S   S81       1.0  0.59598  0.80207  0.47765  1.0000
  Fe  Fe44      1.0  0.65455  0.80920  0.43432  1.0000
  C   C202      1.0  0.60450  0.09046  0.22139  1.0000
  H   H314      1.0  0.74157  0.75571  0.12115  1.0000
  C   C203      1.0  0.72080  0.13642  0.37399  1.0000
  C   C204      1.0  0.54287  0.13913  0.20516  1.0000
  C   C205      1.0  0.72181  0.70260  0.21235  1.0000
  C   C206      1.0  0.75959  0.85301  0.44656  1.0000
  C   C207      1.0  0.58705  0.04008  0.53438  1.0000
  S   S82       1.0  0.68328  0.89385  0.43717  1.0000
  H   H315      1.0  0.53752  0.70045  0.51133  1.0000
  H   H316      1.0  0.59965  0.01818  0.56981  1.0000
  H   H317      1.0  0.54231  0.15298  0.24786  1.0000
  C   C208      1.0  0.58873  0.05159  0.43794  1.0000
  C   C209      1.0  0.73445  0.89909  0.45047  1.0000
  C   C210      1.0  0.75042  0.95130  0.46304  1.0000
  H   H318      1.0  0.58866  0.04960  0.22193  1.0000
  H   H319      1.0  0.66981  0.95243  0.21461  1.0000
  H   H320      1.0  0.56113  0.95358  0.47597  1.0000
  H   H321      1.0  0.73117  0.98702  0.46648  1.0000
  H   H322      1.0  0.66236  0.01214  0.44693  1.0000
  H   H323      1.0  0.70558  0.03974  0.23583  1.0000
  H   H324      1.0  0.73991  0.05494  0.39874  1.0000
  C   C211      1.0  0.76668  0.74605  0.14869  1.0000
  H   H325      1.0  0.58197  0.86533  0.36731  1.0000
  H   H326      1.0  0.75325  0.00576  0.23322  1.0000
  H   H327      1.0  0.68727  0.00169  0.35439  1.0000
  H   H328      1.0  0.71720  0.91834  0.20849  1.0000
  H   H329      1.0  0.60529  0.10573  0.26368  1.0000
  H   H330      1.0  0.77116  0.78280  0.17513  1.0000
  H   H331      1.0  0.63572  0.08313  0.20788  1.0000
  H   H332      1.0  0.65358  0.00570  0.29891  1.0000
  N   N21       1.0  0.70900  0.96400  0.28186  1.0000
  C   C212      1.0  0.74920  0.09661  0.38825  1.0000
  H   H333      1.0  0.75633  0.75344  0.51399  1.0000
  N   N22       1.0  0.75858  0.69496  0.18017  1.0000
  C   C213      1.0  0.55534  0.88775  0.35752  1.0000
  S   S83       1.0  0.67025  0.11804  0.37195  1.0000
  H   H334      1.0  0.67937  0.89051  0.25272  1.0000
  H   H335      1.0  0.60639  0.93407  0.50987  1.0000
  H   H336      1.0  0.72509  0.73710  0.24172  1.0000
  H   H337      1.0  0.55428  0.03341  0.53542  1.0000
  H   H338      1.0  0.58714  0.96369  0.33912  1.0000
  H   H339      1.0  0.59342  0.09692  0.44395  1.0000
  H   H340      1.0  0.59244  0.08556  0.53955  1.0000
  N   N23       1.0  0.60456  0.01939  0.48361  1.0000
  C   C214      1.0  0.69318  0.92976  0.23749  1.0000
  C   C215      1.0  0.73949  0.93211  0.31143  1.0000
  H   H341      1.0  0.74733  0.81289  0.43589  1.0000
  H   H342      1.0  0.60365  0.04035  0.39947  1.0000
  C   C216      1.0  0.55831  0.94373  0.34204  1.0000
  S   S84       1.0  0.58883  0.67539  0.42742  1.0000
  C   C217      1.0  0.59412  0.96001  0.47683  1.0000
  C   C218      1.0  0.64839  0.02615  0.48515  1.0000
  H   H343      1.0  0.65710  0.07059  0.49059  1.0000
  H   H344      1.0  0.69581  0.71234  0.18633  1.0000
  H   H345      1.0  0.76977  0.03276  0.13289  1.0000
  H   H346      1.0  0.60636  0.94346  0.43851  1.0000
  C   C219      1.0  0.75172  0.99792  0.12024  1.0000
  H   H347      1.0  0.72655  0.89363  0.32964  1.0000
  H   H348      1.0  0.55634  0.04402  0.43211  1.0000
  H   H349      1.0  0.66032  0.94093  0.33418  1.0000
  C   C220      1.0  0.72731  0.01533  0.25977  1.0000
  H   H350      1.0  0.75236  0.95713  0.34482  1.0000
  C   C221      1.0  0.67603  0.97872  0.31882  1.0000
  H   H351      1.0  0.73836  0.04300  0.29226  1.0000
  H   H352      1.0  0.76464  0.91972  0.28463  1.0000
  S   S85       1.0  0.60375  0.68347  0.58264  1.0000
  C   C222      1.0  0.76746  0.75864  0.55567  1.0000
  S   S86       1.0  0.52753  0.04330  0.30936  1.0000
  C   C223      1.0  0.76952  0.94661  0.10939  1.0000
  H   H353      1.0  0.61411  0.10169  0.11454  1.0000
  H   H354      1.0  0.69665  0.04351  0.12527  1.0000
  C   C224      1.0  0.71032  0.00399  0.11610  1.0000
  C   C225      1.0  0.52817  0.67277  0.54319  1.0000
  H   H355      1.0  0.74105  0.75759  0.58306  1.0000
  H   H356      1.0  0.70621  0.78671  0.00575  1.0000
  H   H357      1.0  0.56816  0.13772  0.10269  1.0000
  Fe  Fe45      1.0  0.61657  0.78538  0.99578  1.0000
  H   H358      1.0  0.75747  0.09883  0.02584  1.0000
  H   H359      1.0  0.59718  0.03166  0.00112  1.0000
  S   S87       1.0  0.56255  0.79478  0.94394  1.0000
  C   C226      1.0  0.70366  0.14617  0.03630  1.0000
  C   C227      1.0  0.72034  0.74639  0.00642  1.0000
  S   S88       1.0  0.55554  0.92151  0.99344  1.0000
  H   H360      1.0  0.59960  0.79055  0.72519  1.0000
  C   C228      1.0  0.69726  0.69798  0.00224  1.0000
  S   S89       1.0  0.64494  0.70095  0.99908  1.0000
  Fe  Fe46      1.0  0.53500  0.83578  0.01577  1.0000
  N   N24       1.0  0.62053  0.06332  0.92625  1.0000
  H   H361      1.0  0.56265  0.83747  0.75080  1.0000
  H   H362      1.0  0.62774  0.15197  0.91751  1.0000
  H   H363      1.0  0.68612  0.87257  0.07707  1.0000
  S   S90       1.0  0.58696  0.81932  0.06986  1.0000
  H   H364      1.0  0.64877  0.00774  0.87012  1.0000
  C   C229      1.0  0.68674  0.95922  0.09951  1.0000
  H   H365      1.0  0.58604  0.69097  0.71993  1.0000
  H   H366      1.0  0.58487  0.05627  0.85493  1.0000
  H   H367      1.0  0.53907  0.94599  0.74396  1.0000
  H   H368      1.0  0.62671  0.97470  0.92742  1.0000
  C   C230      1.0  0.58136  0.06065  0.89926  1.0000
  C   C231      1.0  0.74575  0.90111  0.09468  1.0000
  H   H369      1.0  0.57350  0.68786  0.79046  1.0000
  C   C232      1.0  0.61441  0.06770  0.98497  1.0000
  S   S91       1.0  0.64406  0.86641  0.96949  1.0000
  H   H370      1.0  0.64335  0.06869  0.00668  1.0000
  C   C233      1.0  0.64311  0.11243  0.90676  1.0000
  S   S92       1.0  0.63519  0.96811  0.09331  1.0000
  S   S93       1.0  0.58069  0.91377  0.84117  1.0000
  H   H371      1.0  0.67277  0.01225  0.93465  1.0000
  C   C234      1.0  0.76188  0.74260  0.01264  1.0000
  C   C235      1.0  0.74024  0.13370  0.01165  1.0000
  H   H372      1.0  0.54890  0.75596  0.66007  1.0000
  H   H373      1.0  0.56354  0.02404  0.91321  1.0000
  H   H374      1.0  0.69333  0.12169  0.07008  1.0000
  C   C236      1.0  0.70435  0.90758  0.08913  1.0000
  C   C237      1.0  0.56135  0.69620  0.74967  1.0000
  H   H375      1.0  0.58776  0.79135  0.79582  1.0000
  C   C238      1.0  0.57477  0.79468  0.75482  1.0000
  H   H376      1.0  0.56343  0.09870  0.90719  1.0000
  Fe  Fe47      1.0  0.58670  0.87939  0.92493  1.0000
  C   C239      1.0  0.64333  0.01235  0.91407  1.0000
  Fe  Fe48      1.0  0.61032  0.90135  0.04011  1.0000
  H   H377      1.0  0.57142  0.67394  0.07897  1.0000
  H   H378      1.0  0.59792  0.10625  0.99576  1.0000
  H   H379      1.0  0.64704  0.11166  0.86234  1.0000
  C   C240      1.0  0.52967  0.92007  0.82613  1.0000
  H   H380      1.0  0.67344  0.11411  0.92473  1.0000
  H   H381      1.0  0.75947  0.86143  0.08603  1.0000
  H   H382      1.0  0.54689  0.68308  0.01593  1.0000
  N   N25       1.0  0.54347  0.75219  0.74616  1.0000
  C   C241      1.0  0.75400  0.16564  0.96827  1.0000
  C   C242      1.0  0.87435  0.25894  0.54736  1.0000
  H   H383      1.0  0.82160  0.59567  0.35049  1.0000
  S   S94       1.0  0.83453  0.42183  0.39964  1.0000
  H   H384      1.0  0.84388  0.24302  0.53830  1.0000
  Fe  Fe49      1.0  0.87762  0.62393  0.41741  1.0000
  C   C243      1.0  0.79838  0.62676  0.35039  1.0000
  H   H385      1.0  0.80757  0.33894  0.29978  1.0000
  H   H386      1.0  0.78286  0.24605  0.35033  1.0000
  H   H387      1.0  0.78037  0.63947  0.11922  1.0000
  C   C244      1.0  0.98082  0.43029  0.41415  1.0000
  C   C245      1.0  0.98235  0.37215  0.41285  1.0000
  H   H388      1.0  0.93116  0.37060  0.51092  1.0000
  C   C246      1.0  0.82711  0.35346  0.26620  1.0000
  H   H389      1.0  0.95327  0.45101  0.40453  1.0000
  H   H390      1.0  0.95608  0.34828  0.40266  1.0000
  S   S95       1.0  0.81341  0.41966  0.13131  1.0000
  C   C247      1.0  0.85261  0.26114  0.24964  1.0000
  C   C248      1.0  0.77687  0.65960  0.56507  1.0000
  H   H391      1.0  0.94704  0.29991  0.51527  1.0000
  H   H392      1.0  0.79778  0.62542  0.57568  1.0000
  H   H393      1.0  0.89351  0.36458  0.32444  1.0000
  H   H394      1.0  0.89897  0.38521  0.22677  1.0000
  H   H395      1.0  0.90124  0.26724  0.44615  1.0000
  C   C249      1.0  0.88942  0.34167  0.21836  1.0000
  C   C250      1.0  0.92427  0.32986  0.53028  1.0000
  H   H396      1.0  0.83445  0.39795  0.27414  1.0000
  H   H397      1.0  0.86660  0.30369  0.34634  1.0000
  H   H398      1.0  0.91325  0.29619  0.31147  1.0000
  H   H399      1.0  0.85950  0.39346  0.51091  1.0000
  Fe  Fe50      1.0  0.86378  0.50062  0.42904  1.0000
  H   H400      1.0  0.95908  0.23882  0.23483  1.0000
  C   C251      1.0  0.98818  0.63379  0.15957  1.0000
  N   N26       1.0  0.86363  0.31938  0.26183  1.0000
  C   C252      1.0  0.88533  0.32116  0.31328  1.0000
  C   C253      1.0  0.97800  0.22125  0.20395  1.0000
  S   S96       1.0  0.01191  0.53379  0.43137  1.0000
  H   H401      1.0  0.91669  0.31598  0.21288  1.0000
  C   C254      1.0  0.98196  0.22076  0.58738  1.0000
  H   H402      1.0  0.88763  0.33860  0.43607  1.0000
  N   N27       1.0  0.88332  0.31087  0.51774  1.0000
  C   C255      1.0  0.01499  0.46132  0.42659  1.0000
  H   H403      1.0  0.80939  0.35182  0.22857  1.0000
  C   C256      1.0  0.88029  0.30044  0.45947  1.0000
  S   S97       1.0  0.90978  0.49296  0.49357  1.0000
  H   H404      1.0  0.87650  0.26484  0.59162  1.0000
  C   C257      1.0  0.01829  0.34499  0.42266  1.0000
  H   H405      1.0  0.83086  0.24423  0.27935  1.0000
  H   H406      1.0  0.83923  0.25714  0.20902  1.0000
  H   H407      1.0  0.85619  0.36378  0.57714  1.0000
  H   H408      1.0  0.87907  0.23333  0.25105  1.0000
  S   S98       1.0  0.90915  0.19286  0.15289  1.0000
  C   C258      1.0  0.85428  0.35410  0.53351  1.0000
  C   C259      1.0  0.96112  0.19575  0.15902  1.0000
  H   H409      1.0  0.87350  0.34200  0.17930  1.0000
  S   S99       1.0  0.92472  0.62799  0.48009  1.0000
  S   S100      1.0  0.83424  0.57434  0.46735  1.0000
  Fe  Fe51      1.0  0.94666  0.54985  0.44169  1.0000
  Fe  Fe52      1.0  0.88397  0.57142  0.52647  1.0000
  H   H410      1.0  0.84961  0.28703  0.44815  1.0000
  S   S101      1.0  0.90318  0.55083  0.37379  1.0000
  H   H411      1.0  0.82310  0.34083  0.52474  1.0000
  H   H412      1.0  0.89568  0.22559  0.53641  1.0000
  S   S102      1.0  0.98400  0.56314  0.14396  1.0000
  H   H413      1.0  0.94101  0.51711  0.59268  1.0000
  H   H414      1.0  0.92501  0.64999  0.15690  1.0000
  H   H415      1.0  0.78273  0.32723  0.39915  1.0000
  S   S103      1.0  0.86592  0.56814  0.12787  1.0000
  C   C260      1.0  0.78295  0.41571  0.41177  1.0000
  H   H416      1.0  0.98838  0.64747  0.56947  1.0000
  H   H417      1.0  0.92870  0.33465  0.57433  1.0000
  C   C261      1.0  0.01556  0.25474  0.59434  1.0000
  H   H418      1.0  0.97273  0.21062  0.54748  1.0000
  S   S104      1.0  0.85242  0.18335  0.37807  1.0000
  C   C262      1.0  0.01947  0.22203  0.21028  1.0000
  C   C263      1.0  0.98580  0.17144  0.12012  1.0000
  S   S105      1.0  0.02049  0.27260  0.41809  1.0000
  H   H419      1.0  0.01281  0.65014  0.47245  1.0000
  H   H420      1.0  0.78795  0.64479  0.23936  1.0000
  C   C264      1.0  0.02592  0.65658  0.16833  1.0000
  H   H421      1.0  0.77621  0.52441  0.10854  1.0000
  H   H422      1.0  0.79461  0.30999  0.05523  1.0000
  H   H423      1.0  0.94877  0.40408  0.82424  1.0000
  C   C265      1.0  0.97931  0.33455  0.86013  1.0000
  H   H424      1.0  0.01760  0.25754  0.73076  1.0000
  C   C266      1.0  0.98982  0.30816  0.90813  1.0000
  H   H425      1.0  0.95528  0.20292  0.71786  1.0000
  S   S106      1.0  0.87545  0.59089  0.61341  1.0000
  H   H426      1.0  0.94243  0.18980  0.87450  1.0000
  C   C267      1.0  0.94546  0.40693  0.91070  1.0000
  C   C268      1.0  0.95609  0.38038  0.95850  1.0000
  C   C269      1.0  0.95692  0.38373  0.86144  1.0000
  C   C270      1.0  0.00763  0.24755  0.69069  1.0000
  H   H427      1.0  0.98820  0.31693  0.82195  1.0000
  H   H428      1.0  0.94833  0.39830  0.99653  1.0000
  C   C271      1.0  0.92240  0.58484  0.64326  1.0000
  C   C272      1.0  0.87408  0.30575  0.04445  1.0000
  C   C273      1.0  0.01830  0.53652  0.86132  1.0000
  H   H429      1.0  0.98237  0.65078  0.73304  1.0000
  H   H430      1.0  0.88774  0.29715  0.93761  1.0000
  C   C274      1.0  0.94941  0.17580  0.83283  1.0000
  Fe  Fe53      1.0  0.92772  0.54868  0.09877  1.0000
  S   S107      1.0  0.91894  0.46977  0.91136  1.0000
  H   H431      1.0  0.98610  0.31044  0.99445  1.0000
  H   H432      1.0  0.99230  0.50769  0.85819  1.0000
  S   S108      1.0  0.91305  0.46299  0.07060  1.0000
  C   C275      1.0  0.97265  0.21618  0.68350  1.0000
  C   C276      1.0  0.96072  0.20059  0.63190  1.0000
  C   C277      1.0  0.97767  0.33062  0.95726  1.0000
  H   H433      1.0  0.90397  0.32143  0.03187  1.0000
  N   N28       1.0  0.84468  0.31090  0.00068  1.0000
  H   H434      1.0  0.91271  0.65126  0.69987  1.0000
  C   C278      1.0  0.97327  0.62122  0.70271  1.0000
  H   H435      1.0  0.86364  0.23532  0.96266  1.0000
  C   C279      1.0  0.83968  0.37014  0.98627  1.0000
  C   C280      1.0  0.94984  0.54636  0.62307  1.0000
  C   C281      1.0  0.85893  0.27997  0.95306  1.0000
  C   C282      1.0  0.80593  0.28781  0.01897  1.0000
  H   H436      1.0  0.86845  0.38940  0.97341  1.0000
  H   H437      1.0  0.82805  0.39454  0.02083  1.0000
  H   H438      1.0  0.83686  0.28154  0.91983  1.0000
  H   H439      1.0  0.87782  0.26158  0.05719  1.0000
  Fe  Fe54      1.0  0.85700  0.60121  0.04424  1.0000
  C   C283      1.0  0.00091  0.58385  0.68097  1.0000
  S   S109      1.0  0.83565  0.51998  0.01029  1.0000
  S   S110      1.0  0.92049  0.58830  0.01813  1.0000
  S   S111      1.0  0.01932  0.24836  0.90725  1.0000
  H   H440      1.0  0.86468  0.32989  0.08043  1.0000
  C   C284      1.0  0.93384  0.62146  0.68404  1.0000
  Fe  Fe55      1.0  0.90018  0.50384  0.99176  1.0000
  H   H441      1.0  0.97292  0.20438  0.81686  1.0000
  C   C285      1.0  0.98899  0.54555  0.64212  1.0000
  H   H442      1.0  0.00048  0.48952  0.95632  1.0000
  H   H443      1.0  0.01026  0.51649  0.62537  1.0000
  H   H444      1.0  0.81828  0.37541  0.95263  1.0000
  H   H445      1.0  0.92214  0.18152  0.80816  1.0000
  H   H446      1.0  0.01670  0.55968  0.96709  1.0000
  H   H447      1.0  0.00613  0.57832  0.87119  1.0000
  H   H448      1.0  0.80837  0.24280  0.02927  1.0000
  H   H449      1.0  0.78284  0.29166  0.98728  1.0000
  Fe  Fe56      1.0  0.85048  0.48563  0.09170  1.0000
  S   S112      1.0  0.85585  0.70122  0.37821  1.0000
  C   C286      1.0  0.95816  0.72383  0.17758  1.0000
  H   H450      1.0  0.82101  0.71072  0.48927  1.0000
  H   H451      1.0  0.98638  0.09710  0.24573  1.0000
  H   H452      1.0  0.84584  0.75882  0.53314  1.0000
  H   H453      1.0  0.93190  0.74931  0.18256  1.0000
  C   C287      1.0  0.01511  0.08850  0.26637  1.0000
  C   C288      1.0  0.00827  0.98892  0.25882  1.0000
  H   H454      1.0  0.93407  0.84757  0.44721  1.0000
  C   C289      1.0  0.78977  0.11086  0.38951  1.0000
  C   C290      1.0  0.94042  0.80997  0.42249  1.0000
  H   H455      1.0  0.81163  0.07999  0.40063  1.0000
  H   H456      1.0  0.00895  0.08604  0.31032  1.0000
  H   H457      1.0  0.89352  0.88289  0.37182  1.0000
  H   H458      1.0  0.96954  0.79282  0.43573  1.0000
  H   H459      1.0  0.91682  0.77859  0.43199  1.0000
  H   H460      1.0  0.96494  0.90602  0.37523  1.0000
  C   C291      1.0  0.99609  0.74640  0.18655  1.0000
  C   C292      1.0  0.90169  0.84502  0.34845  1.0000
  H   H461      1.0  0.87776  0.81362  0.35578  1.0000
  H   H462      1.0  0.90124  0.85607  0.30502  1.0000
  S   S113      1.0  0.94411  0.03135  0.52892  1.0000
  H   H463      1.0  0.82027  0.82366  0.45266  1.0000
  C   C293      1.0  0.01114  0.68022  0.57765  1.0000
  H   H464      1.0  0.98146  0.75801  0.34174  1.0000
  N   N29       1.0  0.94115  0.82357  0.36455  1.0000
  H   H465      1.0  0.92983  0.73827  0.34279  1.0000
  C   C294      1.0  0.97191  0.86650  0.35390  1.0000
  H   H466      1.0  0.97446  0.87579  0.31015  1.0000
  Fe  Fe57      1.0  0.88477  0.12201  0.42960  1.0000
  S   S114      1.0  0.85751  0.08846  0.50577  1.0000
  H   H467      1.0  0.94876  0.78071  0.28943  1.0000
  Fe  Fe58      1.0  0.96453  0.06795  0.45054  1.0000
  H   H468      1.0  0.80330  0.99813  0.48189  1.0000
  C   C295      1.0  0.77782  0.72293  0.35842  1.0000
  Fe  Fe59      1.0  0.88882  0.00889  0.48304  1.0000
  C   C296      1.0  0.83064  0.71754  0.53153  1.0000
  H   H469      1.0  0.00177  0.85250  0.36769  1.0000
  S   S115      1.0  0.00192  0.81531  0.20779  1.0000
  S   S116      1.0  0.91127  0.04089  0.40355  1.0000
  C   C297      1.0  0.95073  0.77296  0.33337  1.0000
  Fe  Fe60      1.0  0.91572  0.11408  0.54294  1.0000
  S   S117      1.0  0.86774  0.91926  0.48157  1.0000
  H   H470      1.0  0.01111  0.04897  0.16630  1.0000
  H   H471      1.0  0.91956  0.81680  0.11154  1.0000
  H   H472      1.0  0.78518  0.76620  0.36528  1.0000
  C   C298      1.0  0.01563  0.95037  0.45911  1.0000
  C   C299      1.0  0.80072  0.85925  0.45588  1.0000
  C   C300      1.0  0.80194  0.16486  0.37590  1.0000
  H   H473      1.0  0.98505  0.96162  0.46608  1.0000
  C   C301      1.0  0.80768  0.68276  0.35965  1.0000
  C   C302      1.0  0.81658  0.91169  0.46881  1.0000
  C   C303      1.0  0.79138  0.95767  0.47188  1.0000
  H   H474      1.0  0.85326  0.68526  0.54113  1.0000
  N   N30       1.0  0.79643  0.71471  0.56930  1.0000
  H   H475      1.0  0.00423  0.98416  0.30309  1.0000
  S   S118      1.0  0.94074  0.15254  0.46774  1.0000
  H   H476      1.0  0.99659  0.72146  0.57289  1.0000
  H   H477      1.0  0.97820  0.99371  0.24064  1.0000
  H   H478      1.0  0.00656  0.86616  0.48640  1.0000
  H   H479      1.0  0.78114  0.80089  0.55840  1.0000
  H   H480      1.0  0.02127  0.94954  0.24306  1.0000
  H   H481      1.0  0.79409  0.74170  0.12355  1.0000
  H   H482      1.0  0.79755  0.71818  0.24484  1.0000
  S   S119      1.0  0.82133  0.93926  0.11473  1.0000
  H   H483      1.0  0.01942  0.72405  0.48001  1.0000
  C   C304      1.0  0.95425  0.66754  0.16344  1.0000
  C   C305      1.0  0.79270  0.68368  0.21584  1.0000
  H   H484      1.0  0.82090  0.67837  0.19241  1.0000
  S   S120      1.0  0.83111  0.68690  0.03294  1.0000
  H   H485      1.0  0.77952  0.78017  0.01690  1.0000
  N   N31       1.0  0.96300  0.11736  0.83226  1.0000
  C   C306      1.0  0.01266  0.93377  0.91794  1.0000
  H   H486      1.0  0.95947  0.73213  0.99708  1.0000
  S   S121      1.0  0.91971  0.15538  0.62424  1.0000
  H   H487      1.0  0.97890  0.84133  0.05754  1.0000
  H   H488      1.0  0.88872  0.84606  0.97131  1.0000
  Fe  Fe61      1.0  0.89241  0.12630  0.09457  1.0000
  H   H489      1.0  0.99744  0.12694  0.75961  1.0000
  S   S122      1.0  0.97399  0.79596  0.84052  1.0000
  N   N32       1.0  0.92599  0.80185  0.02684  1.0000
  C   C307      1.0  0.99879  0.11192  0.86629  1.0000
  H   H490      1.0  0.78574  0.72100  0.65444  1.0000
  C   C308      1.0  0.94227  0.74516  0.03334  1.0000
  S   S123      1.0  0.80130  0.15339  0.93998  1.0000
  H   H491      1.0  0.94818  0.88541  0.01695  1.0000
  H   H492      1.0  0.96279  0.74264  0.06819  1.0000
  H   H493      1.0  0.98302  0.05658  0.77494  1.0000
  C   C309      1.0  0.95930  0.84207  0.02155  1.0000
  H   H494      1.0  0.93984  0.03652  0.85244  1.0000
  C   C310      1.0  0.90139  0.81639  0.07427  1.0000
  S   S124      1.0  0.91426  0.03831  0.09738  1.0000
  H   H495      1.0  0.88786  0.85847  0.06989  1.0000
  C   C311      1.0  0.93086  0.08100  0.85345  1.0000
  H   H496      1.0  0.90298  0.08514  0.82973  1.0000
  Fe  Fe62      1.0  0.84123  0.10732  0.99698  1.0000
  S   S125      1.0  0.82829  0.10286  0.08527  1.0000
  S   S126      1.0  0.90401  0.13796  0.00688  1.0000
  Fe  Fe63      1.0  0.92059  0.04774  0.00811  1.0000
  H   H497      1.0  0.00954  0.06819  0.86782  1.0000
  H   H498      1.0  0.83267  0.69056  0.63644  1.0000
  Fe  Fe64      1.0  0.85090  0.01522  0.07892  1.0000
  H   H499      1.0  0.97828  0.83260  0.98588  1.0000
  H   H500      1.0  0.87532  0.77434  0.98119  1.0000
  C   C312      1.0  0.01218  0.88391  0.88880  1.0000
  S   S127      1.0  0.85879  0.01773  0.98928  1.0000
  H   H501      1.0  0.94673  0.10464  0.74958  1.0000
  C   C313      1.0  0.97685  0.96039  0.93108  1.0000
  H   H502      1.0  0.91800  0.71401  0.03976  1.0000
  C   C314      1.0  0.97592  0.86107  0.87200  1.0000
  H   H503      1.0  0.91841  0.79174  0.94165  1.0000
  H   H504      1.0  0.92362  0.09117  0.89601  1.0000
  C   C315      1.0  0.94063  0.93814  0.91345  1.0000
  H   H505      1.0  0.91214  0.87156  0.87001  1.0000
  C   C316      1.0  0.90102  0.80370  0.97812  1.0000
  H   H506      1.0  0.91295  0.95884  0.92267  1.0000
  C   C317      1.0  0.97297  0.10066  0.77663  1.0000
  H   H507      1.0  0.01975  0.67645  0.62054  1.0000
  C   C318      1.0  0.81073  0.72309  0.62481  1.0000
  H   H508      1.0  0.99254  0.12497  0.90848  1.0000
  S   S128      1.0  0.97826  0.02095  0.96999  1.0000
  C   C319      1.0  0.94023  0.88882  0.88352  1.0000
  C   C320      1.0  0.78036  0.69045  0.01556  1.0000
  H   H509      1.0  0.82578  0.76420  0.62938  1.0000
  H   H510      1.0  0.97295  0.15164  0.08526  1.0000
  H   H511      1.0  0.02376  0.13859  0.85144  1.0000
  H   H512      1.0  0.87646  0.78613  0.08011  1.0000
