data_image0
_chemical_formula_structural       HC2FeHS2CH2C2HCHCH2SH3C2NHCH3CH7C2HS3HFeSCHSHFeSFeSFeS2H4C3HC6H3FeCHCSHCSCHCSHCHCHNFeH2FeH3CH3CH4SHCH3C2H4C2HFeS2H5NHCHCH2CFeCHFeC3H7FeS2H2SHFeS4HSFeS2HC6H4C2H2SC4H2NHSHC2H3CH2SH2NFeHC3H5FeH3SHC2NC3H2CHCHFeH3SFeHCH2CHFeCHNHSH2CHFeSH2SHC2H2CSC2HCHC2H2CH4CFeS2FeS2FeS2CFeSHS2HC2H3CHCHC6H5NH3CH5C2H7CSNHC3FeNH2FeH2C2H2NFeSCSHCH2CH2NSH7CHCH4CHNHFeCHCSCFeS2FeS2HSCFeSFeHS2HFeH3C4H3C6H5CSH2SHNC6H3CH4SC2H4CNH2CH3SH4CHCHCH2CH2FeSFeHSHSFeS2FeSCFeSFeS3CHC4H3C7H4C6H4SHSH3NH2CHC4H3C2H2NCH4CH3SCH5C4HCHNH3CH2CSH5CH3CH5CH2N2CHFeSFeS2FeSFeS3H2C2H2CH2C5H5CHC2HNH5NH2FeSFeSHFeS2FeS2FeSFeS3HC4HCH5C6H4C6H4NC4H12SNC4H11C2HC2HCH2NH2CH7NC2H2CHFeSCFeS2FeSFeS4H3C6H4C2H2CHNHSH2SH4CHC2H2SCFeH2CHCH2FeHFeSHSHC3H2C2H2CH2C3SHCHNHC2H4SHCH6SHFeSHCHCSHCSCSHFeNSHC2H2CH3CHC4H3CSH3FeHC6HCH2CHCSHCHCHCHC2NH2CH3CH3CHCH2NH3CSH4CH3FeCH3CSHCH2SH2CHFeC2H2FeSH4C4HNH4CHCH2SFeCS2H2CHCHSC2HCHCS4C7H4FeCH2C2HCFeSH3CH2CSNH5SCHCHCSFeCHCHC2H3CSFeCH2CHCHC3H2CFeH6SC2HNHSFeHSHC2S2FeSHC2SCSH5C6H5C3SH4C8HCHNFe2C2HCH5CHSNHC3H6CHFeH14SHFeSH2CSHC2H4SH2CHCH2CHC2H2CHSCHSCHSHSNSNFeSFeSC4HCH5CH4C3H2C7H3C2HCSHSCH2C3H5CH3C2H7NH8CH2C3H5CHFeS2H2C3FeCHSH2C2HC2NFeH5SHCH3C3H2SH2C2HFeS2FeS2Fe2S3C2H2SH2C7H4CH3CHCNH3C2H6N2HFeS2FeSCFeSCFeS2FeSFeS3CHC6H3SC6H5C7H10NC4S2HFeH9CH4CH2CHCH4NH7CH3CHC2HCH4CNHNC2S2HCH2CHCFeSFeS2FeSFeS3H2C2H2C2H2C6H3CH5NHFeHNH2SHCH2FeHNC2H2CH3CH4CH4FeSFeHSC2SFeS2FeSHFeSFeS3C6H2C7H5SCHC6H5CH2SH3SCH2CH3SCHCH2CHNCH2CH3SCHCSH4C2H4FeS2FeSHFeS2FeSHSNH2C3SC2H4C6H6SHFeCH6SHCH4FeH4FeNC4HC2H3CSH7CH2C2H2SFeC2HCNCHC2HCH4S2C2HSHC2NFeC2H6C2S2HC3FeS2CFeS2FeSCFeSHCSCHCHC6H4SC6H8C3HSH3NHCHCNHC2H3CH3NHNCH7CNHSHCH5CH2CH2SCFeH6SFeHFeCHSHC2H3CH5CH7CHSFeHSFeSFeS2FeSFeSFeSHNHC6H6NHCHC3H2CHSCHCSH3C2NH3CH3SC2SH2CHC4H2NHFeCSH6SH2CFeCH4SCH2C3HCFeCH2CH3C2H9C3HS2CFeSCFeS2FeSFeS2Fe2C7H5C3SH4CH7SCH2C3H4SCHCHCH3FeS2H2CH2SHC2FeSH4CNH2NHC4H5NHFeCH2CHCH2NCHSCH2CH3SH4C2H
_chemical_formula_sum              "H1088 C680 Fe136 S272 N68"
_cell_length_a       59.1469
_cell_length_b       57.6286
_cell_length_c       45.1935
_cell_angle_alpha    90.1624
_cell_angle_beta     90.6681
_cell_angle_gamma    120.181

_space_group_name_H-M_alt    "P 1"
_space_group_IT_number       1

loop_
  _space_group_symop_operation_xyz
  'x, y, z'

loop_
  _atom_site_type_symbol
  _atom_site_label
  _atom_site_symmetry_multiplicity
  _atom_site_fract_x
  _atom_site_fract_y
  _atom_site_fract_z
  _atom_site_occupancy
  H   H1        1.0  0.07318  0.21341  0.52065  1.0000
  C   C1        1.0  0.27452  0.40725  0.39787  1.0000
  C   C2        1.0  0.20059  0.33754  0.39439  1.0000
  Fe  Fe1       1.0  0.18368  0.31850  0.50710  1.0000
  H   H2        1.0  0.07553  0.29574  0.42411  1.0000
  S   S1        1.0  0.15473  0.27769  0.48890  1.0000
  S   S2        1.0  0.20340  0.35734  0.48132  1.0000
  C   C3        1.0  0.24425  0.05091  0.51994  1.0000
  H   H3        1.0  0.04224  0.49612  0.22920  1.0000
  H   H4        1.0  0.15192  0.32218  0.45947  1.0000
  C   C4        1.0  0.11045  0.27993  0.43557  1.0000
  C   C5        1.0  0.08989  0.30660  0.44234  1.0000
  H   H5        1.0  0.11315  0.31089  0.38988  1.0000
  C   C6        1.0  0.26744  0.44399  0.40982  1.0000
  H   H6        1.0  0.09262  0.32712  0.44416  1.0000
  C   C7        1.0  0.13336  0.32232  0.46185  1.0000
  H   H7        1.0  0.13008  0.34246  0.40952  1.0000
  H   H8        1.0  0.13840  0.34369  0.46295  1.0000
  S   S3        1.0  0.26989  0.15399  0.50564  1.0000
  H   H9        1.0  0.19863  0.32079  0.38140  1.0000
  H   H10       1.0  0.12511  0.31317  0.48358  1.0000
  H   H11       1.0  0.14542  0.32271  0.40483  1.0000
  C   C8        1.0  0.12633  0.32150  0.40911  1.0000
  C   C9        1.0  0.20268  0.35769  0.44234  1.0000
  N   N1        1.0  0.11499  0.30759  0.43719  1.0000
  H   H12       1.0  0.10243  0.26903  0.45667  1.0000
  C   C10       1.0  0.19936  0.33581  0.42544  1.0000
  H   H13       1.0  0.19660  0.31787  0.43629  1.0000
  H   H14       1.0  0.08086  0.29594  0.46331  1.0000
  H   H15       1.0  0.12893  0.27988  0.43128  1.0000
  C   C11       1.0  0.20572  0.20059  0.52152  1.0000
  H   H16       1.0  0.09626  0.26802  0.41759  1.0000
  H   H17       1.0  0.03571  0.26016  0.50854  1.0000
  H   H18       1.0  0.23345  0.41678  0.13900  1.0000
  H   H19       1.0  0.25821  0.44199  0.38763  1.0000
  H   H20       1.0  0.22135  0.50790  0.34831  1.0000
  H   H21       1.0  0.28070  0.17980  0.44503  1.0000
  H   H22       1.0  0.26264  0.06927  0.51690  1.0000
  C   C12       1.0  0.03920  0.38439  0.04254  1.0000
  C   C13       1.0  0.22974  0.50707  0.32670  1.0000
  H   H23       1.0  0.19521  0.50894  0.28919  1.0000
  S   S4        1.0  0.28242  0.43581  0.22525  1.0000
  S   S5        1.0  0.20806  0.36308  0.34132  1.0000
  S   S6        1.0  0.26894  0.42891  0.31380  1.0000
  H   H24       1.0  0.24347  0.45137  0.14642  1.0000
  Fe  Fe2       1.0  0.05987  0.39833  0.16730  1.0000
  S   S7        1.0  0.08998  0.38597  0.17848  1.0000
  C   C14       1.0  0.21013  0.39758  0.19106  1.0000
  H   H25       1.0  0.24121  0.44748  0.21320  1.0000
  S   S8        1.0  0.06351  0.42565  0.12976  1.0000
  H   H26       1.0  0.25602  0.43456  0.16880  1.0000
  Fe  Fe3       1.0  0.22532  0.40308  0.31813  1.0000
  S   S9        1.0  0.21671  0.40506  0.26972  1.0000
  Fe  Fe4       1.0  0.26208  0.46315  0.32359  1.0000
  S   S10       1.0  0.25664  0.47013  0.27609  1.0000
  Fe  Fe5       1.0  0.21394  0.44114  0.28272  1.0000
  S   S11       1.0  0.18679  0.45534  0.26544  1.0000
  S   S12       1.0  0.21904  0.43690  0.33144  1.0000
  H   H27       1.0  0.04949  0.38664  0.06328  1.0000
  H   H28       1.0  0.12628  0.37416  0.20775  1.0000
  H   H29       1.0  0.18743  0.18250  0.51628  1.0000
  H   H30       1.0  0.20748  0.43789  0.21703  1.0000
  C   C15       1.0  0.19280  0.41979  0.16097  1.0000
  C   C16       1.0  0.20510  0.36108  0.38011  1.0000
  C   C17       1.0  0.20622  0.38082  0.42802  1.0000
  H   H31       1.0  0.17588  0.41353  0.17591  1.0000
  C   C18       1.0  0.11619  0.40510  0.20355  1.0000
  C   C19       1.0  0.12266  0.43103  0.21235  1.0000
  C   C20       1.0  0.14422  0.44608  0.23149  1.0000
  C   C21       1.0  0.15936  0.43530  0.24218  1.0000
  C   C22       1.0  0.15272  0.40923  0.23370  1.0000
  C   C23       1.0  0.13132  0.39429  0.21430  1.0000
  H   H32       1.0  0.11122  0.43960  0.20412  1.0000
  H   H33       1.0  0.14917  0.46621  0.23791  1.0000
  H   H34       1.0  0.16395  0.40053  0.24214  1.0000
  Fe  Fe6       1.0  0.04864  0.44430  0.16223  1.0000
  C   C24       1.0  0.22340  0.44396  0.20076  1.0000
  H   H35       1.0  0.18653  0.40415  0.14332  1.0000
  C   C25       1.0  0.05001  0.50565  0.16698  1.0000
  S   S13       1.0  0.06844  0.48940  0.16874  1.0000
  H   H36       1.0  0.21029  0.40051  0.38615  1.0000
  C   C26       1.0  0.27275  0.21877  0.46587  1.0000
  S   S14       1.0  0.04833  0.41931  0.20039  1.0000
  C   C27       1.0  0.20743  0.38255  0.39699  1.0000
  H   H37       1.0  0.20814  0.39752  0.44106  1.0000
  C   C28       1.0  0.20680  0.22553  0.52153  1.0000
  S   S15       1.0  0.17781  0.22655  0.51436  1.0000
  H   H38       1.0  0.22753  0.46351  0.19139  1.0000
  C   C29       1.0  0.05565  0.21461  0.51727  1.0000
  H   H39       1.0  0.19659  0.43879  0.15033  1.0000
  C   C30       1.0  0.23819  0.43188  0.15693  1.0000
  H   H40       1.0  0.19353  0.39044  0.20663  1.0000
  N   N2        1.0  0.21611  0.42330  0.17740  1.0000
  Fe  Fe7       1.0  0.26001  0.43365  0.26652  1.0000
  H   H41       1.0  0.22733  0.39960  0.20376  1.0000
  H   H42       1.0  0.20473  0.38155  0.17409  1.0000
  Fe  Fe8       1.0  0.17255  0.26248  0.52270  1.0000
  H   H43       1.0  0.25721  0.21621  0.44988  1.0000
  H   H44       1.0  0.26422  0.20078  0.48033  1.0000
  H   H45       1.0  0.26529  0.40507  0.37563  1.0000
  C   C31       1.0  0.03450  0.24086  0.51047  1.0000
  H   H46       1.0  0.28167  0.42331  0.45471  1.0000
  H   H47       1.0  0.21596  0.48743  0.31605  1.0000
  H   H48       1.0  0.24824  0.50716  0.33147  1.0000
  C   C32       1.0  0.24165  0.02607  0.51180  1.0000
  H   H49       1.0  0.04056  0.45459  0.24436  1.0000
  H   H50       1.0  0.25888  0.39311  0.41288  1.0000
  H   H51       1.0  0.23332  0.50908  0.26745  1.0000
  H   H52       1.0  0.27423  0.19568  0.41460  1.0000
  S   S16       1.0  0.08772  0.27014  0.51773  1.0000
  H   H53       1.0  0.27748  0.23634  0.48036  1.0000
  C   C33       1.0  0.05746  0.23967  0.51500  1.0000
  H   H54       1.0  0.25160  0.43196  0.42562  1.0000
  H   H55       1.0  0.27648  0.46547  0.41664  1.0000
  H   H56       1.0  0.25819  0.02552  0.50265  1.0000
  C   C34       1.0  0.20386  0.34028  0.63283  1.0000
  C   C35       1.0  0.21093  0.26339  0.59171  1.0000
  H   H57       1.0  0.23147  0.26978  0.58593  1.0000
  H   H58       1.0  0.23710  0.25564  0.63579  1.0000
  H   H59       1.0  0.19359  0.20074  0.61538  1.0000
  H   H60       1.0  0.16441  0.21683  0.63604  1.0000
  C   C36       1.0  0.21644  0.24979  0.64033  1.0000
  C   C37       1.0  0.20854  0.34563  0.66331  1.0000
  H   H61       1.0  0.19177  0.38878  0.71732  1.0000
  Fe  Fe9       1.0  0.17404  0.29953  0.57123  1.0000
  S   S17       1.0  0.18221  0.30714  0.62049  1.0000
  S   S18       1.0  0.14375  0.25746  0.55785  1.0000
  H   H62       1.0  0.17195  0.25075  0.62915  1.0000
  H   H63       1.0  0.22091  0.22309  0.59314  1.0000
  H   H64       1.0  0.20893  0.23350  0.65700  1.0000
  H   H65       1.0  0.18816  0.21031  0.57943  1.0000
  H   H66       1.0  0.16041  0.22655  0.59950  1.0000
  N   N3        1.0  0.20030  0.24106  0.61293  1.0000
  H   H67       1.0  0.19914  0.25739  0.57082  1.0000
  C   C38       1.0  0.17306  0.23342  0.61979  1.0000
  H   H68       1.0  0.21079  0.28130  0.60081  1.0000
  C   C39       1.0  0.20078  0.21779  0.59973  1.0000
  H   H69       1.0  0.19916  0.32936  0.67886  1.0000
  H   H70       1.0  0.21659  0.26749  0.65059  1.0000
  C   C40       1.0  0.25164  0.22198  0.53591  1.0000
  Fe  Fe10      1.0  0.26487  0.48946  0.74523  1.0000
  C   C41       1.0  0.17263  0.37333  0.70761  1.0000
  H   H71       1.0  0.04978  0.48787  0.01354  1.0000
  Fe  Fe11      1.0  0.27565  0.44923  0.77732  1.0000
  C   C42       1.0  0.21632  0.36135  0.61286  1.0000
  C   C43       1.0  0.03657  0.37892  0.98873  1.0000
  C   C44       1.0  0.05801  0.52039  0.88264  1.0000
  H   H72       1.0  0.15898  0.36399  0.72634  1.0000
  H   H73       1.0  0.23249  0.41624  0.81543  1.0000
  H   H74       1.0  0.17557  0.35758  0.69717  1.0000
  H   H75       1.0  0.21293  0.35745  0.58931  1.0000
  H   H76       1.0  0.19959  0.43696  0.87039  1.0000
  H   H77       1.0  0.04585  0.43419  0.00394  1.0000
  H   H78       1.0  0.06810  0.38197  0.01606  1.0000
  Fe  Fe12      1.0  0.06981  0.42011  0.85734  1.0000
  S   S19       1.0  0.28036  0.22100  0.54482  1.0000
  S   S20       1.0  0.11030  0.44742  0.83922  1.0000
  H   H79       1.0  0.20137  0.41445  0.67210  1.0000
  H   H80       1.0  0.05406  0.48137  0.87608  1.0000
  S   S21       1.0  0.06020  0.43158  0.90110  1.0000
  H   H81       1.0  0.22447  0.39141  0.89224  1.0000
  Fe  Fe13      1.0  0.25731  0.43995  0.71274  1.0000
  S   S22       1.0  0.24330  0.41386  0.75286  1.0000
  S   S23       1.0  0.25853  0.42642  0.66602  1.0000
  S   S24       1.0  0.05002  0.37508  0.95567  1.0000
  S   S25       1.0  0.25066  0.46724  0.78783  1.0000
  H   H82       1.0  0.18303  0.40879  0.84542  1.0000
  S   S26       1.0  0.27469  0.15211  0.57714  1.0000
  Fe  Fe14      1.0  0.21944  0.43363  0.76093  1.0000
  S   S27       1.0  0.17813  0.40500  0.77570  1.0000
  S   S28       1.0  0.23109  0.45730  0.71896  1.0000
  H   H83       1.0  0.18567  0.38444  0.65002  1.0000
  C   C45       1.0  0.12866  0.43517  0.82129  1.0000
  C   C46       1.0  0.11887  0.40768  0.81692  1.0000
  C   C47       1.0  0.13416  0.39871  0.80266  1.0000
  C   C48       1.0  0.15929  0.41713  0.79267  1.0000
  C   C49       1.0  0.16910  0.44460  0.79698  1.0000
  C   C50       1.0  0.15382  0.45355  0.81126  1.0000
  H   H84       1.0  0.09950  0.39338  0.82446  1.0000
  H   H85       1.0  0.12645  0.37742  0.79944  1.0000
  H   H86       1.0  0.18843  0.45899  0.78935  1.0000
  H   H87       1.0  0.16148  0.47485  0.81453  1.0000
  C   C51       1.0  0.21085  0.39854  0.88546  1.0000
  C   C52       1.0  0.13799  0.36385  0.67245  1.0000
  H   H88       1.0  0.19160  0.38055  0.87983  1.0000
  H   H89       1.0  0.14300  0.39531  0.71927  1.0000
  S   S29       1.0  0.22536  0.08277  0.54194  1.0000
  C   C53       1.0  0.05514  0.44947  0.98632  1.0000
  C   C54       1.0  0.23782  0.39302  0.65384  1.0000
  C   C55       1.0  0.23337  0.38759  0.62335  1.0000
  C   C56       1.0  0.04969  0.38173  0.01577  1.0000
  H   H90       1.0  0.24301  0.40380  0.60777  1.0000
  H   H91       1.0  0.07059  0.49838  0.96395  1.0000
  N   N4        1.0  0.16258  0.38528  0.68600  1.0000
  H   H92       1.0  0.17559  0.42118  0.71204  1.0000
  S   S30       1.0  0.05360  0.37705  0.86957  1.0000
  H   H93       1.0  0.22899  0.37586  0.69731  1.0000
  C   C57       1.0  0.15751  0.40490  0.70131  1.0000
  C   C58       1.0  0.18213  0.39891  0.66265  1.0000
  H   H94       1.0  0.05662  0.47377  0.93480  1.0000
  H   H95       1.0  0.20551  0.38525  0.82736  1.0000
  H   H96       1.0  0.14999  0.41447  0.68578  1.0000
  C   C59       1.0  0.24673  0.44048  0.86842  1.0000
  H   H97       1.0  0.20800  0.40855  0.90500  1.0000
  H   H98       1.0  0.17572  0.40904  0.64649  1.0000
  S   S31       1.0  0.20376  0.30358  0.53797  1.0000
  H   H99       1.0  0.14118  0.34871  0.66070  1.0000
  H   H100      1.0  0.03693  0.33381  0.91209  1.0000
  N   N5        1.0  0.22115  0.41698  0.86013  1.0000
  Fe  Fe15      1.0  0.04112  0.38791  0.91178  1.0000
  H   H101      1.0  0.24513  0.45158  0.88770  1.0000
  C   C60       1.0  0.22447  0.40281  0.83472  1.0000
  C   C61       1.0  0.22537  0.37194  0.67382  1.0000
  C   C62       1.0  0.20254  0.42601  0.85189  1.0000
  H   H102      1.0  0.20955  0.43975  0.83264  1.0000
  H   H103      1.0  0.12985  0.37216  0.65600  1.0000
  H   H104      1.0  0.23845  0.39575  0.84002  1.0000
  H   H105      1.0  0.07425  0.46558  0.99531  1.0000
  H   H106      1.0  0.26144  0.43445  0.87405  1.0000
  Fe  Fe16      1.0  0.26344  0.12268  0.53926  1.0000
  H   H107      1.0  0.12285  0.35308  0.68950  1.0000
  H   H108      1.0  0.25502  0.45491  0.84985  1.0000
  H   H109      1.0  0.05928  0.43963  0.96758  1.0000
  S   S32       1.0  0.15663  0.31784  0.54196  1.0000
  H   H110      1.0  0.27112  0.26503  0.54074  1.0000
  C   C63       1.0  0.05190  0.48160  0.95491  1.0000
  C   C64       1.0  0.23057  0.24877  0.52817  1.0000
  N   N6        1.0  0.03816  0.46020  0.97690  1.0000
  C   C65       1.0  0.25283  0.24696  0.53549  1.0000
  C   C66       1.0  0.22300  0.05193  0.53168  1.0000
  C   C67       1.0  0.04409  0.49217  0.88162  1.0000
  H   H111      1.0  0.03968  0.49025  0.94741  1.0000
  H   H112      1.0  0.23180  0.26814  0.52768  1.0000
  C   C68       1.0  0.22803  0.19879  0.52869  1.0000
  H   H113      1.0  0.22689  0.17944  0.52882  1.0000
  C   C69       1.0  0.19918  0.02785  0.53531  1.0000
  H   H114      1.0  0.18259  0.02851  0.54418  1.0000
  Fe  Fe17      1.0  0.12849  0.27604  0.52554  1.0000
  H   H115      1.0  0.03400  0.83874  0.47048  1.0000
  H   H116      1.0  0.18736  0.71321  0.31395  1.0000
  H   H117      1.0  0.24999  0.54503  0.26467  1.0000
  S   S33       1.0  0.05999  0.61959  0.17252  1.0000
  Fe  Fe18      1.0  0.05501  0.64402  0.20806  1.0000
  H   H118      1.0  0.27114  0.55694  0.32851  1.0000
  C   C70       1.0  0.06111  0.53209  0.17769  1.0000
  H   H119      1.0  0.25623  0.57296  0.30908  1.0000
  H   H120      1.0  0.27169  0.88645  0.33042  1.0000
  C   C71       1.0  0.27638  0.74835  0.34694  1.0000
  H   H121      1.0  0.19714  0.73693  0.28438  1.0000
  Fe  Fe19      1.0  0.04418  0.63870  0.14161  1.0000
  C   C72       1.0  0.05638  0.84651  0.51100  1.0000
  H   H122      1.0  0.26296  0.94559  0.32517  1.0000
  N   N7        1.0  0.27865  0.92198  0.30745  1.0000
  H   H123      1.0  0.08380  0.58785  0.06814  1.0000
  S   S34       1.0  0.08294  0.66416  0.24690  1.0000
  H   H124      1.0  0.11431  0.69168  0.19547  1.0000
  H   H125      1.0  0.24938  0.92048  0.27748  1.0000
  C   C73       1.0  0.11368  0.79567  0.43209  1.0000
  H   H126      1.0  0.07282  0.61060  0.07839  1.0000
  Fe  Fe20      1.0  0.27633  0.83691  0.28884  1.0000
  S   S35       1.0  0.04284  0.66588  0.17645  1.0000
  H   H127      1.0  0.17109  0.69808  0.24919  1.0000
  H   H128      1.0  0.28071  0.76218  0.30209  1.0000
  S   S36       1.0  0.06316  0.65293  0.09708  1.0000
  H   H129      1.0  0.05262  0.54477  0.11319  1.0000
  C   C74       1.0  0.07164  0.59125  0.08423  1.0000
  C   C75       1.0  0.12164  0.84066  0.43885  1.0000
  H   H130      1.0  0.08123  0.54262  0.18549  1.0000
  H   H131      1.0  0.16262  0.67572  0.27977  1.0000
  C   C76       1.0  0.21248  0.68809  0.29318  1.0000
  S   S37       1.0  0.21619  0.97134  0.50591  1.0000
  C   C77       1.0  0.22282  0.71915  0.25286  1.0000
  C   C78       1.0  0.04361  0.54352  0.09101  1.0000
  H   H132      1.0  0.25328  0.91481  0.34426  1.0000
  C   C79       1.0  0.04599  0.54459  0.17953  1.0000
  H   H133      1.0  0.23984  0.88984  0.29680  1.0000
  C   C80       1.0  0.17776  0.68647  0.26273  1.0000
  C   C81       1.0  0.20229  0.72352  0.29659  1.0000
  H   H134      1.0  0.05445  0.56465  0.18872  1.0000
  H   H135      1.0  0.22132  0.73654  0.30803  1.0000
  C   C82       1.0  0.05798  0.64755  0.03675  1.0000
  H   H136      1.0  0.21411  0.67341  0.27863  1.0000
  H   H137      1.0  0.17794  0.67117  0.24783  1.0000
  H   H138      1.0  0.21696  0.73187  0.24002  1.0000
  H   H139      1.0  0.11492  0.85374  0.44896  1.0000
  C   C83       1.0  0.04485  0.64106  0.06379  1.0000
  Fe  Fe21      1.0  0.17198  0.87126  0.50544  1.0000
  S   S38       1.0  0.18077  0.84171  0.48224  1.0000
  S   S39       1.0  0.15971  0.89734  0.48196  1.0000
  Fe  Fe22      1.0  0.23109  0.82953  0.32720  1.0000
  S   S40       1.0  0.23935  0.83718  0.27855  1.0000
  S   S41       1.0  0.21913  0.85704  0.34918  1.0000
  Fe  Fe23      1.0  0.24855  0.78784  0.32828  1.0000
  S   S42       1.0  0.25819  0.79266  0.28018  1.0000
  S   S43       1.0  0.25467  0.75945  0.35733  1.0000
  C   C84       1.0  0.25666  0.90737  0.28622  1.0000
  Fe  Fe24      1.0  0.22013  0.79221  0.27444  1.0000
  S   S44       1.0  0.19475  0.76877  0.23501  1.0000
  H   H140      1.0  0.05448  0.53862  0.07458  1.0000
  S   S45       1.0  0.20908  0.78453  0.32230  1.0000
  S   S46       1.0  0.26945  0.83213  0.33773  1.0000
  H   H141      1.0  0.03733  0.57563  0.12858  1.0000
  C   C85       1.0  0.16259  0.74124  0.23846  1.0000
  C   C86       1.0  0.15079  0.73296  0.26604  1.0000
  H   H142      1.0  0.23200  0.70107  0.30394  1.0000
  H   H143      1.0  0.06991  0.81593  0.44730  1.0000
  H   H144      1.0  0.22435  0.70530  0.23689  1.0000
  C   C87       1.0  0.14918  0.72636  0.21303  1.0000
  H   H145      1.0  0.16056  0.74453  0.28573  1.0000
  C   C88       1.0  0.12627  0.70942  0.26824  1.0000
  H   H146      1.0  0.15811  0.73267  0.19159  1.0000
  C   C89       1.0  0.19210  0.84668  0.44550  1.0000
  C   C90       1.0  0.19569  0.86879  0.42910  1.0000
  C   C91       1.0  0.20391  0.87165  0.39958  1.0000
  C   C92       1.0  0.20886  0.85260  0.38632  1.0000
  C   C93       1.0  0.20541  0.83055  0.40273  1.0000
  C   C94       1.0  0.19695  0.82757  0.43219  1.0000
  H   H147      1.0  0.19220  0.88374  0.43916  1.0000
  H   H148      1.0  0.20655  0.88877  0.38703  1.0000
  H   H149      1.0  0.20915  0.81575  0.39274  1.0000
  H   H150      1.0  0.19424  0.81042  0.44476  1.0000
  H   H151      1.0  0.26254  0.89959  0.26698  1.0000
  N   N8        1.0  0.20382  0.70425  0.27632  1.0000
  H   H152      1.0  0.12461  0.81531  0.48740  1.0000
  H   H153      1.0  0.14198  0.84797  0.44687  1.0000
  H   H154      1.0  0.11395  0.79767  0.40759  1.0000
  C   C95       1.0  0.12437  0.70312  0.21517  1.0000
  H   H155      1.0  0.27618  0.73212  0.38993  1.0000
  H   H156      1.0  0.10117  0.77406  0.43747  1.0000
  H   H157      1.0  0.06359  0.78228  0.44193  1.0000
  H   H158      1.0  0.19856  0.67670  0.31111  1.0000
  H   H159      1.0  0.24363  0.55729  0.34412  1.0000
  C   C96       1.0  0.25202  0.55535  0.32297  1.0000
  C   C97       1.0  0.26985  0.93177  0.33261  1.0000
  H   H160      1.0  0.09154  0.78793  0.48567  1.0000
  H   H161      1.0  0.24268  0.73275  0.26235  1.0000
  H   H162      1.0  0.11744  0.70289  0.28970  1.0000
  H   H163      1.0  0.07633  0.80595  0.41211  1.0000
  H   H164      1.0  0.09789  0.82158  0.49065  1.0000
  H   H165      1.0  0.12242  0.84374  0.41453  1.0000
  H   H166      1.0  0.13406  0.80195  0.43951  1.0000
  C   C98       1.0  0.11297  0.69439  0.24285  1.0000
  S   S47       1.0  0.08673  0.86480  0.49285  1.0000
  N   N9        1.0  0.10427  0.81222  0.44655  1.0000
  H   H167      1.0  0.08080  0.59402  0.10660  1.0000
  C   C99       1.0  0.21787  0.00200  0.51547  1.0000
  C   C100      1.0  0.07731  0.80364  0.43644  1.0000
  C   C101      1.0  0.10457  0.80910  0.47897  1.0000
  Fe  Fe25      1.0  0.18358  0.92904  0.51612  1.0000
  N   N10       1.0  0.04426  0.56885  0.08374  1.0000
  H   H168      1.0  0.21157  0.54488  0.28647  1.0000
  H   H169      1.0  0.07910  0.65972  0.03655  1.0000
  Fe  Fe26      1.0  0.12689  0.88133  0.51481  1.0000
  H   H170      1.0  0.04346  0.56277  0.03660  1.0000
  H   H171      1.0  0.03907  0.70814  0.09483  1.0000
  C   C102      1.0  0.24623  0.52820  0.27963  1.0000
  C   C103      1.0  0.20897  0.52812  0.30090  1.0000
  H   H172      1.0  0.26526  0.52917  0.28382  1.0000
  H   H173      1.0  0.19926  0.52900  0.32148  1.0000
  N   N11       1.0  0.23425  0.52972  0.30756  1.0000
  Fe  Fe27      1.0  0.05684  0.65310  0.88590  1.0000
  S   S48       1.0  0.05969  0.63023  0.92479  1.0000
  C   C104      1.0  0.27369  0.80317  0.60738  1.0000
  S   S49       1.0  0.04440  0.61886  0.85413  1.0000
  H   H174      1.0  0.22605  0.61553  0.71166  1.0000
  C   C105      1.0  0.27537  0.62694  0.72195  1.0000
  H   H175      1.0  0.06794  0.71257  0.81125  1.0000
  H   H176      1.0  0.22054  0.93651  0.59379  1.0000
  C   C106      1.0  0.27515  0.72109  0.70639  1.0000
  H   H177      1.0  0.26379  0.62212  0.74254  1.0000
  H   H178      1.0  0.26035  0.57647  0.70386  1.0000
  N   N12       1.0  0.25865  0.61240  0.69602  1.0000
  S   S50       1.0  0.06369  0.57009  0.89136  1.0000
  H   H179      1.0  0.26120  0.01076  0.60354  1.0000
  H   H180      1.0  0.14399  0.67827  0.81439  1.0000
  H   H181      1.0  0.23278  0.57155  0.68203  1.0000
  H   H182      1.0  0.23367  0.57723  0.72131  1.0000
  H   H183      1.0  0.23336  0.96023  0.56415  1.0000
  H   H184      1.0  0.26185  0.83038  0.64702  1.0000
  H   H185      1.0  0.07271  0.85085  0.55483  1.0000
  C   C107      1.0  0.26684  0.81552  0.65607  1.0000
  H   H186      1.0  0.10697  0.66559  0.84836  1.0000
  C   C108      1.0  0.04528  0.53472  0.88943  1.0000
  H   H187      1.0  0.18916  0.97836  0.60174  1.0000
  H   H188      1.0  0.24137  0.00613  0.57128  1.0000
  H   H189      1.0  0.24786  0.64236  0.68813  1.0000
  H   H190      1.0  0.26288  0.60875  0.64924  1.0000
  C   C109      1.0  0.23090  0.77921  0.62919  1.0000
  H   H191      1.0  0.05852  0.66599  0.81706  1.0000
  N   N13       1.0  0.25937  0.79288  0.63528  1.0000
  H   H192      1.0  0.18293  0.94453  0.59914  1.0000
  Fe  Fe28      1.0  0.04367  0.59480  0.89341  1.0000
  C   C110      1.0  0.11721  0.68558  0.83920  1.0000
  H   H193      1.0  0.19581  0.96646  0.56810  1.0000
  C   C111      1.0  0.04394  0.63851  0.00982  1.0000
  S   S51       1.0  0.08437  0.69636  0.87218  1.0000
  C   C112      1.0  0.20201  0.78703  0.89825  1.0000
  Fe  Fe29      1.0  0.16417  0.88939  0.56640  1.0000
  S   S52       1.0  0.17131  0.89120  0.61598  1.0000
  S   S53       1.0  0.14975  0.91572  0.54687  1.0000
  Fe  Fe30      1.0  0.21785  0.80837  0.71622  1.0000
  S   S54       1.0  0.20041  0.80345  0.76158  1.0000
  S   S55       1.0  0.20468  0.81068  0.66950  1.0000
  H   H194      1.0  0.25344  0.96432  0.59608  1.0000
  S   S56       1.0  0.24757  0.79211  0.78487  1.0000
  C   C113      1.0  0.22351  0.97114  0.63557  1.0000
  Fe  Fe31      1.0  0.20661  0.76824  0.76636  1.0000
  S   S57       1.0  0.17925  0.72726  0.78563  1.0000
  Fe  Fe32      1.0  0.24251  0.82776  0.77777  1.0000
  H   H195      1.0  0.20656  0.80730  0.90606  1.0000
  S   S58       1.0  0.22058  0.77090  0.71986  1.0000
  S   S59       1.0  0.25445  0.85684  0.81667  1.0000
  H   H196      1.0  0.11789  0.74486  0.84091  1.0000
  Fe  Fe33      1.0  0.26084  0.79795  0.73789  1.0000
  H   H197      1.0  0.06147  0.70688  0.77222  1.0000
  H   H198      1.0  0.25081  0.79863  0.88465  1.0000
  H   H199      1.0  0.21045  0.77901  0.91466  1.0000
  C   C114      1.0  0.04305  0.65978  0.79961  1.0000
  C   C115      1.0  0.15193  0.71875  0.80811  1.0000
  C   C116      1.0  0.14423  0.73735  0.81534  1.0000
  C   C117      1.0  0.12351  0.73027  0.83505  1.0000
  H   H200      1.0  0.25781  0.70165  0.70904  1.0000
  H   H201      1.0  0.22449  0.76208  0.61348  1.0000
  H   H202      1.0  0.15432  0.75717  0.80582  1.0000
  C   C118      1.0  0.18104  0.86917  0.63086  1.0000
  C   C119      1.0  0.18707  0.87039  0.66121  1.0000
  C   C120      1.0  0.19463  0.85280  0.67351  1.0000
  C   C121      1.0  0.19602  0.83381  0.65546  1.0000
  C   C122      1.0  0.19014  0.83276  0.62512  1.0000
  C   C123      1.0  0.18277  0.85040  0.61282  1.0000
  H   H203      1.0  0.18573  0.88484  0.67530  1.0000
  H   H204      1.0  0.19909  0.85375  0.69691  1.0000
  H   H205      1.0  0.19111  0.81809  0.61102  1.0000
  H   H206      1.0  0.17817  0.84929  0.58943  1.0000
  H   H207      1.0  0.24964  0.80741  0.84682  1.0000
  C   C124      1.0  0.27485  0.61927  0.66925  1.0000
  S   S60       1.0  0.27615  0.53320  0.74726  1.0000
  H   H208      1.0  0.24348  0.97764  0.64438  1.0000
  H   H209      1.0  0.21609  0.98299  0.64717  1.0000
  S   S61       1.0  0.13843  0.85398  0.53713  1.0000
  H   H210      1.0  0.26899  0.81772  0.59684  1.0000
  N   N14       1.0  0.22358  0.97458  0.60317  1.0000
  C   C125      1.0  0.23863  0.62033  0.69188  1.0000
  C   C126      1.0  0.23319  0.95822  0.58869  1.0000
  C   C127      1.0  0.24076  0.00314  0.59566  1.0000
  C   C128      1.0  0.19668  0.96562  0.59263  1.0000
  C   C129      1.0  0.20578  0.76094  0.85878  1.0000
  C   C130      1.0  0.13820  0.69281  0.81993  1.0000
  H   H211      1.0  0.21956  0.77123  0.64987  1.0000
  H   H212      1.0  0.18426  0.74688  0.85855  1.0000
  H   H213      1.0  0.22505  0.79326  0.61963  1.0000
  C   C131      1.0  0.10999  0.70438  0.84713  1.0000
  H   H214      1.0  0.05224  0.66044  0.77807  1.0000
  H   H215      1.0  0.23374  0.01607  0.60554  1.0000
  H   H216      1.0  0.05422  0.64378  0.98907  1.0000
  H   H217      1.0  0.25737  0.74286  0.72436  1.0000
  S   S62       1.0  0.25915  0.83575  0.73209  1.0000
  C   C132      1.0  0.20073  0.79902  0.84745  1.0000
  C   C133      1.0  0.05493  0.84263  0.54161  1.0000
  H   H218      1.0  0.20629  0.82007  0.85321  1.0000
  H   H219      1.0  0.21478  0.75233  0.87359  1.0000
  H   H220      1.0  0.20759  0.79940  0.82458  1.0000
  H   H221      1.0  0.22571  0.60995  0.67240  1.0000
  C   C134      1.0  0.24575  0.58315  0.70102  1.0000
  N   N15       1.0  0.21244  0.78823  0.86839  1.0000
  H   H222      1.0  0.18033  0.77372  0.89842  1.0000
  H   H223      1.0  0.24688  0.82689  0.87571  1.0000
  C   C135      1.0  0.24118  0.80599  0.86907  1.0000
  H   H224      1.0  0.21265  0.76090  0.83594  1.0000
  H   H225      1.0  0.17902  0.78673  0.84704  1.0000
  H   H226      1.0  0.21068  0.94965  0.64168  1.0000
  S   S63       1.0  0.19875  0.90402  0.53694  1.0000
  H   H227      1.0  0.17805  0.98464  0.52978  1.0000
  H   H228      1.0  0.25628  0.80838  0.67720  1.0000
  H   H229      1.0  0.25570  0.76575  0.66985  1.0000
  H   H230      1.0  0.07869  0.53120  0.87790  1.0000
  C   C136      1.0  0.27486  0.74440  0.71510  1.0000
  H   H231      1.0  0.04422  0.71911  0.79395  1.0000
  C   C137      1.0  0.05214  0.70523  0.79396  1.0000
  H   H232      1.0  0.28228  0.89784  0.86121  1.0000
  C   C138      1.0  0.26607  0.77368  0.64861  1.0000
  H   H233      1.0  0.26072  0.75620  0.63374  1.0000
  H   H234      1.0  0.26858  0.78660  0.59120  1.0000
  C   C139      1.0  0.19658  0.00297  0.52724  1.0000
  H   H235      1.0  0.03504  0.68303  0.84698  1.0000
  H   H236      1.0  0.50706  0.11887  0.23723  1.0000
  Fe  Fe34      1.0  0.31118  0.16181  0.50352  1.0000
  S   S64       1.0  0.32439  0.16918  0.45569  1.0000
  Fe  Fe35      1.0  0.43344  0.05434  0.18858  1.0000
  H   H237      1.0  0.29024  0.40026  0.26463  1.0000
  S   S65       1.0  0.45482  0.09758  0.20533  1.0000
  H   H238      1.0  0.32275  0.44391  0.18463  1.0000
  S   S66       1.0  0.46082  0.04629  0.16229  1.0000
  Fe  Fe36      1.0  0.44664  0.22865  0.35561  1.0000
  S   S67       1.0  0.41583  0.22013  0.32118  1.0000
  S   S68       1.0  0.43908  0.22031  0.40469  1.0000
  Fe  Fe37      1.0  0.48968  0.24717  0.30932  1.0000
  S   S69       1.0  0.46152  0.23912  0.27127  1.0000
  C   C140      1.0  0.51302  0.02801  0.16949  1.0000
  Fe  Fe38      1.0  0.44551  0.25898  0.30061  1.0000
  S   S70       1.0  0.43685  0.29260  0.29182  1.0000
  Fe  Fe39      1.0  0.43473  0.20101  0.29534  1.0000
  S   S71       1.0  0.40819  0.15873  0.27753  1.0000
  S   S72       1.0  0.47525  0.26904  0.33724  1.0000
  S   S73       1.0  0.46401  0.20750  0.33099  1.0000
  C   C141      1.0  0.44222  0.33717  0.20579  1.0000
  H   H239      1.0  0.32911  0.27395  0.22546  1.0000
  C   C142      1.0  0.43785  0.33285  0.25915  1.0000
  C   C143      1.0  0.43939  0.30933  0.25827  1.0000
  C   C144      1.0  0.44273  0.29991  0.23106  1.0000
  C   C145      1.0  0.44413  0.31382  0.20491  1.0000
  H   H240      1.0  0.38729  0.30460  0.21230  1.0000
  H   H241      1.0  0.44370  0.28167  0.23009  1.0000
  H   H242      1.0  0.44624  0.30620  0.18382  1.0000
  C   C146      1.0  0.52409  0.11586  0.24110  1.0000
  C   C147      1.0  0.44128  0.11382  0.22579  1.0000
  C   C148      1.0  0.45792  0.14031  0.23573  1.0000
  C   C149      1.0  0.44806  0.15420  0.25177  1.0000
  C   C150      1.0  0.42137  0.14173  0.25786  1.0000
  C   C151      1.0  0.40473  0.11516  0.24813  1.0000
  C   C152      1.0  0.41463  0.10120  0.23220  1.0000
  H   H243      1.0  0.47854  0.15027  0.23081  1.0000
  H   H244      1.0  0.46106  0.17465  0.25911  1.0000
  H   H245      1.0  0.38405  0.10540  0.25268  1.0000
  H   H246      1.0  0.40163  0.08084  0.22460  1.0000
  C   C153      1.0  0.35688  0.18537  0.44308  1.0000
  C   C154      1.0  0.37787  0.18922  0.46114  1.0000
  C   C155      1.0  0.40316  0.20062  0.44933  1.0000
  C   C156      1.0  0.40765  0.20852  0.41957  1.0000
  C   C157      1.0  0.38677  0.20550  0.40190  1.0000
  C   C158      1.0  0.36147  0.19365  0.41350  1.0000
  H   H247      1.0  0.37452  0.18289  0.48397  1.0000
  H   H248      1.0  0.41924  0.20301  0.46321  1.0000
  H   H249      1.0  0.39003  0.21195  0.37916  1.0000
  H   H250      1.0  0.34534  0.19079  0.39940  1.0000
  S   S74       1.0  0.28521  0.49523  0.35817  1.0000
  H   H251      1.0  0.31238  0.43024  0.43959  1.0000
  S   S75       1.0  0.53211  0.26252  0.29809  1.0000
  H   H252      1.0  0.37407  0.14006  0.41251  1.0000
  H   H253      1.0  0.36561  0.10759  0.33821  1.0000
  H   H254      1.0  0.30686  0.45742  0.44853  1.0000
  N   N16       1.0  0.52171  0.09335  0.22290  1.0000
  H   H255      1.0  0.30835  0.20697  0.48698  1.0000
  H   H256      1.0  0.38860  0.33511  0.25287  1.0000
  C   C159      1.0  0.29748  0.43663  0.43931  1.0000
  H   H257      1.0  0.43547  0.34037  0.28017  1.0000
  C   C160      1.0  0.37399  0.30960  0.19980  1.0000
  C   C161      1.0  0.37534  0.33900  0.23879  1.0000
  C   C162      1.0  0.30731  0.24658  0.43236  1.0000
  C   C163      1.0  0.52216  0.49087  0.16833  1.0000
  H   H258      1.0  0.36397  0.34474  0.25357  1.0000
  H   H259      1.0  0.36890  0.15803  0.36567  1.0000
  H   H260      1.0  0.40896  0.15968  0.41047  1.0000
  C   C164      1.0  0.53361  0.33396  0.29973  1.0000
  C   C165      1.0  0.34240  0.29207  0.23893  1.0000
  H   H261      1.0  0.32833  0.32667  0.21691  1.0000
  H   H262      1.0  0.30125  0.45267  0.36651  1.0000
  N   N17       1.0  0.38995  0.13682  0.37103  1.0000
  C   C166      1.0  0.30855  0.45306  0.38940  1.0000
  H   H263      1.0  0.38505  0.15634  0.33302  1.0000
  H   H264      1.0  0.49804  0.06295  0.25435  1.0000
  H   H265      1.0  0.32373  0.44711  0.38810  1.0000
  H   H266      1.0  0.50328  0.48732  0.07452  1.0000
  C   C167      1.0  0.48982  0.48294  0.09333  1.0000
  H   H267      1.0  0.47994  0.07038  0.22767  1.0000
  H   H268      1.0  0.41713  0.12238  0.36920  1.0000
  H   H269      1.0  0.33018  0.29597  0.25446  1.0000
  S   S76       1.0  0.44216  0.35302  0.17237  1.0000
  C   C168      1.0  0.38672  0.15829  0.35757  1.0000
  H   H270      1.0  0.38774  0.35685  0.22511  1.0000
  H   H271      1.0  0.34867  0.10862  0.37055  1.0000
  H   H272      1.0  0.41400  0.13714  0.33545  1.0000
  H   H273      1.0  0.40380  0.17832  0.36298  1.0000
  H   H274      1.0  0.36903  0.09372  0.37246  1.0000
  C   C169      1.0  0.36729  0.11047  0.36273  1.0000
  C   C170      1.0  0.28906  0.19852  0.43176  1.0000
  C   C171      1.0  0.41424  0.13862  0.36009  1.0000
  C   C172      1.0  0.34032  0.32151  0.20241  1.0000
  H   H275      1.0  0.43172  0.15815  0.36652  1.0000
  C   C173      1.0  0.49758  0.06844  0.23087  1.0000
  H   H276      1.0  0.39343  0.12397  0.41470  1.0000
  N   N18       1.0  0.35799  0.31552  0.21997  1.0000
  H   H277      1.0  0.38649  0.32714  0.18563  1.0000
  H   H278      1.0  0.33406  0.22767  0.46258  1.0000
  H   H279      1.0  0.35155  0.33913  0.18787  1.0000
  C   C174      1.0  0.39163  0.14017  0.40360  1.0000
  H   H280      1.0  0.52477  0.11209  0.26514  1.0000
  H   H281      1.0  0.49478  0.05126  0.21698  1.0000
  C   C175      1.0  0.43939  0.34678  0.23308  1.0000
  S   S77       1.0  0.40038  0.03220  0.15545  1.0000
  H   H282      1.0  0.39536  0.03088  0.07008  1.0000
  H   H283      1.0  0.45330  0.48981  0.06595  1.0000
  H   H284      1.0  0.35528  0.28713  0.25248  1.0000
  H   H285      1.0  0.29291  0.24518  0.41533  1.0000
  H   H286      1.0  0.32149  0.24240  0.48833  1.0000
  C   C176      1.0  0.50355  0.30692  0.26085  1.0000
  H   H287      1.0  0.36163  0.29236  0.18479  1.0000
  H   H288      1.0  0.51327  0.29463  0.25963  1.0000
  H   H289      1.0  0.32004  0.38167  0.26167  1.0000
  C   C177      1.0  0.51361  0.50357  0.18792  1.0000
  H   H290      1.0  0.50330  0.10155  0.18629  1.0000
  H   H291      1.0  0.47156  0.46367  0.08824  1.0000
  H   H292      1.0  0.51029  0.46952  0.16428  1.0000
  H   H293      1.0  0.51881  0.08263  0.17683  1.0000
  H   H294      1.0  0.51833  0.32371  0.31676  1.0000
  C   C178      1.0  0.31599  0.22511  0.47306  1.0000
  H   H295      1.0  0.48697  0.29678  0.27634  1.0000
  H   H296      1.0  0.49185  0.33987  0.29068  1.0000
  N   N19       1.0  0.29626  0.22224  0.45074  1.0000
  N   N20       1.0  0.48433  0.50497  0.09851  1.0000
  C   C179      1.0  0.50765  0.34945  0.27403  1.0000
  H   H297      1.0  0.49502  0.30645  0.23863  1.0000
  Fe  Fe40      1.0  0.43332  0.38715  0.17118  1.0000
  S   S78       1.0  0.43087  0.40860  0.21137  1.0000
  Fe  Fe41      1.0  0.41954  0.41972  0.12889  1.0000
  S   S79       1.0  0.41531  0.44303  0.16648  1.0000
  S   S80       1.0  0.41612  0.43444  0.08330  1.0000
  Fe  Fe42      1.0  0.45222  0.44597  0.18442  1.0000
  S   S81       1.0  0.48263  0.48581  0.20431  1.0000
  Fe  Fe43      1.0  0.39415  0.40381  0.19004  1.0000
  S   S82       1.0  0.35870  0.38783  0.21979  1.0000
  S   S83       1.0  0.45784  0.42515  0.14559  1.0000
  S   S84       1.0  0.39519  0.37987  0.15109  1.0000
  H   H298      1.0  0.28892  0.40031  0.39586  1.0000
  H   H299      1.0  0.43823  0.36489  0.23413  1.0000
  C   C180      1.0  0.41744  0.41988  0.04931  1.0000
  C   C181      1.0  0.41609  0.39497  0.04791  1.0000
  H   H300      1.0  0.35301  0.42584  0.18211  1.0000
  H   H301      1.0  0.41454  0.38422  0.06807  1.0000
  C   C182      1.0  0.32082  0.39543  0.24495  1.0000
  H   H302      1.0  0.32509  0.24969  0.42068  1.0000
  H   H303      1.0  0.32680  0.30427  0.18800  1.0000
  C   C183      1.0  0.33866  0.40254  0.22172  1.0000
  C   C184      1.0  0.33945  0.42030  0.20016  1.0000
  C   C185      1.0  0.32223  0.43047  0.20162  1.0000
  C   C186      1.0  0.30444  0.42341  0.22489  1.0000
  C   C187      1.0  0.30394  0.40599  0.24670  1.0000
  H   H304      1.0  0.49809  0.34981  0.25277  1.0000
  H   H305      1.0  0.31824  0.47436  0.39708  1.0000
  H   H306      1.0  0.49916  0.03272  0.15970  1.0000
  H   H307      1.0  0.49902  0.47951  0.11313  1.0000
  H   H308      1.0  0.30643  0.20024  0.42038  1.0000
  C   C188      1.0  0.52051  0.09914  0.19126  1.0000
  H   H309      1.0  0.31304  0.26482  0.44614  1.0000
  C   C189      1.0  0.47192  0.50858  0.07170  1.0000
  C   C190      1.0  0.46645  0.49822  0.12371  1.0000
  H   H310      1.0  0.52088  0.37059  0.28129  1.0000
  N   N21       1.0  0.52193  0.33465  0.27088  1.0000
  H   H311      1.0  0.44724  0.47999  0.11893  1.0000
  H   H312      1.0  0.48490  0.51381  0.05225  1.0000
  H   H313      1.0  0.46266  0.51479  0.12913  1.0000
  H   H314      1.0  0.30410  0.51989  0.30097  1.0000
  H   H315      1.0  0.47462  0.49414  0.14400  1.0000
  N   N22       1.0  0.28700  0.43522  0.40908  1.0000
  H   H316      1.0  0.46711  0.52475  0.07494  1.0000
  H   H317      1.0  0.44438  0.13331  0.69533  1.0000
  Fe  Fe44      1.0  0.31526  0.15897  0.57076  1.0000
  S   S85       1.0  0.33412  0.15595  0.61358  1.0000
  Fe  Fe45      1.0  0.43400  0.04453  0.87161  1.0000
  S   S86       1.0  0.45955  0.08825  0.85920  1.0000
  H   H318      1.0  0.41133  0.11771  0.95558  1.0000
  Fe  Fe46      1.0  0.45385  0.23456  0.71799  1.0000
  S   S87       1.0  0.42316  0.21570  0.75230  1.0000
  S   S88       1.0  0.44446  0.23887  0.67029  1.0000
  Fe  Fe47      1.0  0.49763  0.24987  0.76326  1.0000
  S   S89       1.0  0.46971  0.23239  0.80144  1.0000
  S   S90       1.0  0.32655  0.19332  0.53953  1.0000
  Fe  Fe48      1.0  0.44635  0.19769  0.77028  1.0000
  S   S91       1.0  0.42112  0.15328  0.78015  1.0000
  Fe  Fe49      1.0  0.44915  0.25206  0.78001  1.0000
  S   S92       1.0  0.42694  0.27040  0.80059  1.0000
  S   S93       1.0  0.47541  0.21383  0.73337  1.0000
  S   S94       1.0  0.47879  0.27224  0.74453  1.0000
  H   H319      1.0  0.46352  0.31579  0.91145  1.0000
  C   C191      1.0  0.43872  0.34272  0.82742  1.0000
  C   C192      1.0  0.42709  0.31558  0.81903  1.0000
  C   C193      1.0  0.44255  0.30457  0.81082  1.0000
  C   C194      1.0  0.46977  0.32090  0.81081  1.0000
  H   H320      1.0  0.50252  0.36054  0.81990  1.0000
  C   C195      1.0  0.48143  0.34804  0.81954  1.0000
  H   H321      1.0  0.40599  0.30309  0.81875  1.0000
  H   H322      1.0  0.48185  0.31258  0.80444  1.0000
  H   H323      1.0  0.46238  0.50471  0.82583  1.0000
  H   H324      1.0  0.42179  0.12076  0.72554  1.0000
  H   H325      1.0  0.42659  0.35106  0.83320  1.0000
  C   C196      1.0  0.44843  0.10596  0.83726  1.0000
  C   C197      1.0  0.42295  0.09356  0.82565  1.0000
  C   C198      1.0  0.41483  0.10838  0.80830  1.0000
  C   C199      1.0  0.43205  0.13566  0.80254  1.0000
  C   C200      1.0  0.45746  0.14811  0.81435  1.0000
  C   C201      1.0  0.46560  0.13327  0.83165  1.0000
  H   H326      1.0  0.40957  0.07254  0.82982  1.0000
  H   H327      1.0  0.39512  0.09863  0.79925  1.0000
  H   H328      1.0  0.47090  0.16909  0.81001  1.0000
  H   H329      1.0  0.48536  0.14298  0.84052  1.0000
  C   C202      1.0  0.36394  0.18124  0.62911  1.0000
  C   C203      1.0  0.38366  0.20103  0.61188  1.0000
  C   C204      1.0  0.40818  0.21900  0.62485  1.0000
  C   C205      1.0  0.41299  0.21741  0.65508  1.0000
  C   C206      1.0  0.39289  0.19836  0.67248  1.0000
  C   C207      1.0  0.36858  0.18019  0.65947  1.0000
  H   H330      1.0  0.38030  0.20190  0.58842  1.0000
  H   H331      1.0  0.42363  0.23376  0.61125  1.0000
  H   H332      1.0  0.39617  0.19722  0.69581  1.0000
  H   H333      1.0  0.35326  0.16509  0.67291  1.0000
  N   N23       1.0  0.42343  0.29349  0.70805  1.0000
  C   C208      1.0  0.43694  0.31098  0.73397  1.0000
  C   C209      1.0  0.40345  0.29940  0.69639  1.0000
  C   C210      1.0  0.41064  0.26511  0.71710  1.0000
  C   C211      1.0  0.44267  0.29829  0.68482  1.0000
  H   H334      1.0  0.45183  0.30666  0.74364  1.0000
  H   H335      1.0  0.42296  0.30783  0.75193  1.0000
  H   H336      1.0  0.44711  0.33260  0.72810  1.0000
  H   H337      1.0  0.39296  0.28651  0.67679  1.0000
  H   H338      1.0  0.38855  0.29574  0.71339  1.0000
  H   H339      1.0  0.41240  0.32072  0.68948  1.0000
  H   H340      1.0  0.39990  0.25120  0.69828  1.0000
  H   H341      1.0  0.39666  0.26079  0.73542  1.0000
  H   H342      1.0  0.42536  0.26003  0.72518  1.0000
  H   H343      1.0  0.43321  0.28490  0.66522  1.0000
  H   H344      1.0  0.45808  0.29405  0.69298  1.0000
  H   H345      1.0  0.45262  0.31942  0.67714  1.0000
  S   S95       1.0  0.44273  0.03513  0.91717  1.0000
  N   N24       1.0  0.41103  0.13873  0.69043  1.0000
  C   C212      1.0  0.39547  0.11333  0.67370  1.0000
  C   C213      1.0  0.39352  0.14324  0.70964  1.0000
  C   C214      1.0  0.42408  0.16123  0.66951  1.0000
  C   C215      1.0  0.43096  0.13706  0.70891  1.0000
  H   H346      1.0  0.40803  0.10928  0.65891  1.0000
  H   H347      1.0  0.38019  0.11394  0.65960  1.0000
  H   H348      1.0  0.38536  0.09598  0.68889  1.0000
  H   H349      1.0  0.40452  0.16255  0.72206  1.0000
  H   H350      1.0  0.37776  0.14383  0.69661  1.0000
  H   H351      1.0  0.38410  0.12719  0.72649  1.0000
  H   H352      1.0  0.40966  0.16252  0.65455  1.0000
  H   H353      1.0  0.43814  0.15902  0.65533  1.0000
  H   H354      1.0  0.43521  0.18088  0.68137  1.0000
  H   H355      1.0  0.44315  0.15598  0.72165  1.0000
  H   H356      1.0  0.42970  0.29023  0.90683  1.0000
  C   C216      1.0  0.50837  0.52170  0.87018  1.0000
  C   C217      1.0  0.46595  0.35898  0.82807  1.0000
  H   H357      1.0  0.40997  0.32635  0.88399  1.0000
  C   C218      1.0  0.40995  0.32308  0.90826  1.0000
  C   C219      1.0  0.44401  0.31191  0.90359  1.0000
  H   H358      1.0  0.39487  0.30185  0.91248  1.0000
  C   C220      1.0  0.43501  0.32436  0.95137  1.0000
  H   H359      1.0  0.42889  0.33713  0.96356  1.0000
  H   H360      1.0  0.42051  0.06987  0.90946  1.0000
  N   N25       1.0  0.43606  0.32922  0.91918  1.0000
  H   H361      1.0  0.42076  0.30307  0.95657  1.0000
  H   H362      1.0  0.40352  0.33608  0.91929  1.0000
  C   C221      1.0  0.46292  0.11343  0.92997  1.0000
  H   H363      1.0  0.46675  0.09692  0.92410  1.0000
  H   H364      1.0  0.53190  0.50225  0.94253  1.0000
  H   H365      1.0  0.44544  0.31556  0.87930  1.0000
  H   H366      1.0  0.45446  0.32915  0.96046  1.0000
  H   H367      1.0  0.39708  0.46217  0.79155  1.0000
  H   H368      1.0  0.41101  0.07693  0.97454  1.0000
  H   H369      1.0  0.46672  0.12571  0.90966  1.0000
  N   N26       1.0  0.43584  0.10271  0.94022  1.0000
  C   C222      1.0  0.45529  0.35767  0.91347  1.0000
  C   C223      1.0  0.44644  0.49642  0.80870  1.0000
  H   H370      1.0  0.47544  0.36288  0.92029  1.0000
  H   H371      1.0  0.45576  0.36231  0.88961  1.0000
  C   C224      1.0  0.43140  0.08575  0.96648  1.0000
  H   H372      1.0  0.41980  0.09856  0.89618  1.0000
  Fe  Fe50      1.0  0.45603  0.40765  0.86117  1.0000
  S   S96       1.0  0.44870  0.43830  0.83975  1.0000
  C   C225      1.0  0.43167  0.12519  0.94798  1.0000
  Fe  Fe51      1.0  0.42627  0.40536  0.91672  1.0000
  S   S97       1.0  0.41544  0.43528  0.89970  1.0000
  S   S98       1.0  0.41658  0.38182  0.95947  1.0000
  Fe  Fe52      1.0  0.40758  0.41359  0.85596  1.0000
  S   S99       1.0  0.37717  0.40517  0.82011  1.0000
  Fe  Fe53      1.0  0.45716  0.45806  0.88432  1.0000
  S   S100      1.0  0.47941  0.50312  0.89020  1.0000
  S   S101      1.0  0.41436  0.38129  0.87423  1.0000
  S   S102      1.0  0.46859  0.42991  0.90467  1.0000
  S   S103      1.0  0.48108  0.39266  0.84041  1.0000
  H   H373      1.0  0.45044  0.37139  0.92559  1.0000
  H   H374      1.0  0.43492  0.13832  0.92855  1.0000
  H   H375      1.0  0.50448  0.48814  0.84479  1.0000
  C   C226      1.0  0.35465  0.41678  0.82044  1.0000
  C   C227      1.0  0.35005  0.42733  0.84606  1.0000
  C   C228      1.0  0.33211  0.43660  0.84527  1.0000
  C   C229      1.0  0.31875  0.43546  0.81889  1.0000
  C   C230      1.0  0.32353  0.42514  0.79323  1.0000
  C   C231      1.0  0.34132  0.41570  0.79408  1.0000
  H   H376      1.0  0.35997  0.42793  0.86656  1.0000
  H   H377      1.0  0.32841  0.44446  0.86524  1.0000
  H   H378      1.0  0.31330  0.42412  0.77282  1.0000
  H   H379      1.0  0.34476  0.40749  0.77419  1.0000
  C   C232      1.0  0.41772  0.39722  0.99384  1.0000
  C   C233      1.0  0.41971  0.42242  0.99531  1.0000
  H   H380      1.0  0.42090  0.43302  0.97515  1.0000
  H   H381      1.0  0.40962  0.45904  0.84314  1.0000
  C   C234      1.0  0.40150  0.48296  0.79692  1.0000
  H   H382      1.0  0.47756  0.12612  0.94721  1.0000
  N   N27       1.0  0.42261  0.49571  0.81956  1.0000
  H   H383      1.0  0.44529  0.13790  0.96602  1.0000
  S   S104      1.0  0.29226  0.47403  0.73638  1.0000
  H   H384      1.0  0.38294  0.48130  0.80473  1.0000
  H   H385      1.0  0.40692  0.49445  0.77595  1.0000
  S   S105      1.0  0.29597  0.44673  0.81911  1.0000
  H   H386      1.0  0.39659  0.07715  0.92343  1.0000
  H   H387      1.0  0.45407  0.50900  0.78863  1.0000
  H   H388      1.0  0.42952  0.48888  0.86468  1.0000
  H   H389      1.0  0.39617  0.47897  0.85591  1.0000
  C   C235      1.0  0.41412  0.48000  0.84705  1.0000
  H   H390      1.0  0.44248  0.47594  0.80274  1.0000
  C   C236      1.0  0.41729  0.08644  0.91632  1.0000
  C   C237      1.0  0.51650  0.50937  0.84954  1.0000
  H   H391      1.0  0.43436  0.06856  0.96133  1.0000
  H   H392      1.0  0.44497  0.09727  0.98508  1.0000
  S   S106      1.0  0.30343  0.12787  0.53431  1.0000
  C   C238      1.0  0.42837  0.52336  0.82574  1.0000
  Fe  Fe54      1.0  0.28477  0.18389  0.54293  1.0000
  H   H393      1.0  0.41442  0.36408  0.01928  1.0000
  H   H394      1.0  0.37330  0.02914  0.02210  1.0000
  C   C239      1.0  0.41602  0.38360  0.02023  1.0000
  H   H395      1.0  0.41080  0.52350  0.83411  1.0000
  C   C240      1.0  0.41936  0.43358  0.02293  1.0000
  H   H396      1.0  0.42023  0.45277  0.02381  1.0000
  H   H397      1.0  0.29444  0.52504  0.69060  1.0000
  Fe  Fe55      1.0  0.34448  0.67070  0.40835  1.0000
  H   H398      1.0  0.39469  0.61709  0.30027  1.0000
  Fe  Fe56      1.0  0.35207  0.65032  0.34922  1.0000
  S   S107      1.0  0.34508  0.61682  0.31737  1.0000
  H   H399      1.0  0.42410  0.61848  0.31351  1.0000
  S   S108      1.0  0.37268  0.65807  0.39310  1.0000
  H   H400      1.0  0.42594  0.67832  0.34733  1.0000
  C   C241      1.0  0.32209  0.56261  0.30850  1.0000
  C   C242      1.0  0.32870  0.58324  0.32932  1.0000
  C   C243      1.0  0.32211  0.57670  0.35897  1.0000
  H   H401      1.0  0.35347  0.96529  0.04770  1.0000
  H   H402      1.0  0.32728  0.56755  0.28556  1.0000
  C   C244      1.0  0.30907  0.54965  0.36769  1.0000
  C   C245      1.0  0.50563  0.01002  0.19296  1.0000
  H   H403      1.0  0.46463  0.66272  0.32107  1.0000
  H   H404      1.0  0.38387  0.66771  0.47206  1.0000
  C   C246      1.0  0.50906  0.53006  0.10537  1.0000
  H   H405      1.0  0.46229  0.67236  0.28387  1.0000
  H   H406      1.0  0.43610  0.73592  0.45360  1.0000
  C   C247      1.0  0.33812  0.67435  0.48418  1.0000
  C   C248      1.0  0.45571  0.67189  0.30695  1.0000
  C   C249      1.0  0.41648  0.62879  0.29919  1.0000
  S   S109      1.0  0.32152  0.65934  0.36533  1.0000
  H   H407      1.0  0.39752  0.64585  0.34191  1.0000
  C   C250      1.0  0.33306  0.66232  0.51212  1.0000
  H   H408      1.0  0.42330  0.69090  0.29593  1.0000
  N   N28       1.0  0.42684  0.65695  0.30877  1.0000
  H   H409      1.0  0.42114  0.66943  0.26585  1.0000
  C   C251      1.0  0.43554  0.68978  0.45912  1.0000
  C   C252      1.0  0.41590  0.66962  0.28937  1.0000
  H   H410      1.0  0.32711  0.59247  0.37520  1.0000
  H   H411      1.0  0.42191  0.62755  0.27598  1.0000
  H   H412      1.0  0.35781  0.93718  0.13396  1.0000
  H   H413      1.0  0.42754  0.64868  0.35509  1.0000
  S   S110      1.0  0.32559  0.65395  0.45224  1.0000
  H   H414      1.0  0.39414  0.65894  0.29045  1.0000
  C   C253      1.0  0.41915  0.65747  0.33964  1.0000
  H   H415      1.0  0.53005  0.76113  0.35474  1.0000
  H   H416      1.0  0.45997  0.73135  0.49751  1.0000
  H   H417      1.0  0.46412  0.69310  0.31454  1.0000
  H   H418      1.0  0.43996  0.67533  0.47031  1.0000
  H   H419      1.0  0.35619  0.97863  0.12835  1.0000
  H   H420      1.0  0.28618  0.88004  0.23840  1.0000
  S   S111      1.0  0.41475  0.98356  0.15810  1.0000
  H   H421      1.0  0.31402  0.81588  0.30461  1.0000
  Fe  Fe57      1.0  0.39025  0.99589  0.18369  1.0000
  S   S112      1.0  0.34753  0.96482  0.19062  1.0000
  H   H422      1.0  0.36733  0.91221  0.26101  1.0000
  C   C254      1.0  0.50992  0.75468  0.34892  1.0000
  H   H423      1.0  0.43225  0.72208  0.52069  1.0000
  C   C255      1.0  0.41803  0.71943  0.46356  1.0000
  S   S113      1.0  0.37041  0.71418  0.39703  1.0000
  H   H424      1.0  0.51050  0.79856  0.24779  1.0000
  C   C256      1.0  0.34803  0.85650  0.34026  1.0000
  S   S114      1.0  0.33884  0.72688  0.32330  1.0000
  C   C257      1.0  0.42116  0.01897  0.05087  1.0000
  S   S115      1.0  0.44016  0.72016  0.39064  1.0000
  H   H425      1.0  0.37937  0.95073  0.22767  1.0000
  Fe  Fe58      1.0  0.34967  0.70200  0.35269  1.0000
  N   N29       1.0  0.35212  0.95207  0.09255  1.0000
  S   S116      1.0  0.52696  0.77088  0.29188  1.0000
  H   H426      1.0  0.37334  0.81547  0.33094  1.0000
  C   C258      1.0  0.31370  0.73345  0.33258  1.0000
  C   C259      1.0  0.30281  0.72829  0.36077  1.0000
  H   H427      1.0  0.44556  0.70024  0.51747  1.0000
  H   H428      1.0  0.52359  0.53531  0.08751  1.0000
  C   C260      1.0  0.30529  0.74534  0.31138  1.0000
  H   H429      1.0  0.30913  0.71908  0.37726  1.0000
  H   H430      1.0  0.33965  0.81895  0.38038  1.0000
  H   H431      1.0  0.35480  0.91695  0.10207  1.0000
  C   C261      1.0  0.33130  0.81132  0.35790  1.0000
  H   H432      1.0  0.47192  0.75129  0.29019  1.0000
  C   C262      1.0  0.49040  0.74340  0.37049  1.0000
  C   C263      1.0  0.46422  0.73492  0.36319  1.0000
  C   C264      1.0  0.45766  0.73791  0.33419  1.0000
  C   C265      1.0  0.47713  0.74904  0.31259  1.0000
  H   H433      1.0  0.49565  0.74124  0.39290  1.0000
  H   H434      1.0  0.43764  0.73193  0.32849  1.0000
  H   H435      1.0  0.33058  0.79178  0.35478  1.0000
  C   C266      1.0  0.35403  0.70220  0.48212  1.0000
  S   S117      1.0  0.31815  0.86681  0.27670  1.0000
  H   H436      1.0  0.30782  0.93817  0.27365  1.0000
  H   H437      1.0  0.38216  0.96486  0.05989  1.0000
  H   H438      1.0  0.35932  0.87143  0.32288  1.0000
  Fe  Fe59      1.0  0.42697  0.02100  0.13199  1.0000
  H   H439      1.0  0.51827  0.52820  0.12614  1.0000
  C   C267      1.0  0.33963  0.93749  0.21430  1.0000
  C   C268      1.0  0.31331  0.91746  0.21753  1.0000
  C   C269      1.0  0.30644  0.89555  0.23640  1.0000
  C   C270      1.0  0.32587  0.89361  0.25224  1.0000
  C   C271      1.0  0.35216  0.91359  0.24893  1.0000
  C   C272      1.0  0.35903  0.93545  0.23004  1.0000
  H   H440      1.0  0.29822  0.91882  0.20525  1.0000
  C   C273      1.0  0.36042  0.95403  0.06146  1.0000
  H   H441      1.0  0.42244  0.67929  0.43975  1.0000
  H   H442      1.0  0.35760  0.71171  0.46079  1.0000
  C   C274      1.0  0.36270  0.93793  0.11007  1.0000
  H   H443      1.0  0.31658  0.93544  0.11720  1.0000
  C   C275      1.0  0.37363  0.83472  0.33506  1.0000
  S   S118      1.0  0.47442  0.99658  0.20885  1.0000
  H   H444      1.0  0.31489  0.91641  0.08478  1.0000
  C   C276      1.0  0.50331  0.75746  0.31987  1.0000
  H   H445      1.0  0.35285  0.93387  0.05114  1.0000
  C   C277      1.0  0.36219  0.97930  0.10496  1.0000
  H   H446      1.0  0.30407  0.54472  0.39067  1.0000
  C   C278      1.0  0.44112  0.71408  0.50489  1.0000
  H   H447      1.0  0.50579  0.54728  0.10865  1.0000
  C   C279      1.0  0.39851  0.67770  0.49035  1.0000
  C   C280      1.0  0.30883  0.53559  0.31716  1.0000
  N   N30       1.0  0.42331  0.70024  0.47948  1.0000
  H   H448      1.0  0.37791  0.73934  0.50607  1.0000
  H   H449      1.0  0.33413  0.80096  0.29990  1.0000
  C   C281      1.0  0.52367  0.00324  0.20454  1.0000
  H   H450      1.0  0.32810  0.85400  0.34003  1.0000
  H   H451      1.0  0.31073  0.80711  0.35774  1.0000
  H   H452      1.0  0.31351  0.74914  0.28945  1.0000
  C   C282      1.0  0.51670  0.81684  0.23415  1.0000
  H   H453      1.0  0.40151  0.66217  0.50127  1.0000
  H   H454      1.0  0.31469  0.94736  0.08104  1.0000
  H   H455      1.0  0.34517  0.83451  0.28744  1.0000
  C   C283      1.0  0.36544  0.71781  0.50779  1.0000
  H   H456      1.0  0.40358  0.70936  0.44519  1.0000
  C   C284      1.0  0.33452  0.81997  0.30539  1.0000
  H   H457      1.0  0.53333  0.99107  0.04272  1.0000
  H   H458      1.0  0.38587  0.84909  0.31769  1.0000
  N   N31       1.0  0.34687  0.83063  0.33467  1.0000
  H   H459      1.0  0.38441  0.94824  0.10861  1.0000
  H   H460      1.0  0.38953  0.68472  0.50696  1.0000
  H   H461      1.0  0.41009  0.72883  0.47854  1.0000
  C   C285      1.0  0.32326  0.93713  0.09391  1.0000
  S   S119      1.0  0.37878  0.69217  0.33320  1.0000
  H   H462      1.0  0.35732  0.86529  0.36210  1.0000
  H   H463      1.0  0.35493  0.99077  0.09215  1.0000
  H   H464      1.0  0.38358  0.84278  0.35683  1.0000
  H   H465      1.0  0.31739  0.95659  0.30790  1.0000
  C   C286      1.0  0.52958  0.53114  0.19375  1.0000
  H   H466      1.0  0.51808  0.98923  0.22262  1.0000
  H   H467      1.0  0.38391  0.99099  0.10464  1.0000
  H   H468      1.0  0.50323  0.82454  0.23903  1.0000
  Fe  Fe60      1.0  0.39712  0.70072  0.37842  1.0000
  C   C287      1.0  0.28669  0.75274  0.31849  1.0000
  H   H469      1.0  0.32065  0.64078  0.51387  1.0000
  H   H470      1.0  0.51384  0.81043  0.21050  1.0000
  H   H471      1.0  0.45415  0.70631  0.45015  1.0000
  C   C288      1.0  0.30052  0.94497  0.29249  1.0000
  S   S120      1.0  0.42150  0.01885  0.21832  1.0000
  H   H472      1.0  0.29362  0.89538  0.30006  1.0000
  C   C289      1.0  0.28753  0.90373  0.31850  1.0000
  H   H473      1.0  0.52738  0.98029  0.09650  1.0000
  H   H474      1.0  0.29447  0.95900  0.28343  1.0000
  S   S121      1.0  0.43672  0.01831  0.08418  1.0000
  H   H475      1.0  0.52313  0.54104  0.20905  1.0000
  H   H476      1.0  0.30445  0.91416  0.33410  1.0000
  C   C290      1.0  0.30227  0.52902  0.34678  1.0000
  H   H477      1.0  0.28582  0.94265  0.34928  1.0000
  Fe  Fe61      1.0  0.44703  0.00965  0.18980  1.0000
  C   C291      1.0  0.40112  0.02517  0.04997  1.0000
  C   C292      1.0  0.28416  0.73569  0.36788  1.0000
  H   H478      1.0  0.44447  0.00757  0.02497  1.0000
  H   H479      1.0  0.41970  0.68519  0.74071  1.0000
  Fe  Fe62      1.0  0.35367  0.65746  0.64962  1.0000
  S   S122      1.0  0.34651  0.61504  0.64886  1.0000
  H   H480      1.0  0.43542  0.68051  0.67772  1.0000
  H   H481      1.0  0.52242  0.83053  0.76704  1.0000
  H   H482      1.0  0.43345  0.62943  0.72930  1.0000
  H   H483      1.0  0.42244  0.62332  0.69131  1.0000
  C   C293      1.0  0.32307  0.60156  0.70338  1.0000
  C   C294      1.0  0.32788  0.59242  0.67683  1.0000
  C   C295      1.0  0.31796  0.56481  0.67258  1.0000
  C   C296      1.0  0.43198  0.63920  0.70873  1.0000
  H   H484      1.0  0.33102  0.62277  0.70711  1.0000
  N   N32       1.0  0.41710  0.65313  0.71365  1.0000
  H   H485      1.0  0.43488  0.53588  0.80550  1.0000
  H   H486      1.0  0.39045  0.62363  0.74412  1.0000
  H   H487      1.0  0.40517  0.65044  0.66796  1.0000
  H   H488      1.0  0.32181  0.55760  0.65219  1.0000
  C   C297      1.0  0.43039  0.67416  0.73669  1.0000
  H   H489      1.0  0.49769  0.80289  0.70698  1.0000
  C   C298      1.0  0.53390  0.82637  0.75071  1.0000
  H   H490      1.0  0.45055  0.68939  0.73000  1.0000
  H   H491      1.0  0.34141  0.66835  0.55909  1.0000
  S   S123      1.0  0.43514  0.00977  0.85078  1.0000
  Fe  Fe63      1.0  0.43971  0.99826  0.89669  1.0000
  C   C299      1.0  0.34473  0.67791  0.53777  1.0000
  S   S124      1.0  0.35454  0.67867  0.69140  1.0000
  S   S125      1.0  0.39217  0.69063  0.63340  1.0000
  H   H492      1.0  0.37855  0.64353  0.72674  1.0000
  H   H493      1.0  0.45226  0.65346  0.70144  1.0000
  C   C300      1.0  0.52408  0.54927  0.87597  1.0000
  H   H494      1.0  0.40488  0.67665  0.68911  1.0000
  C   C301      1.0  0.41564  0.66567  0.68582  1.0000
  H   H495      1.0  0.43190  0.66554  0.75812  1.0000
  S   S126      1.0  0.32993  0.67147  0.62423  1.0000
  C   C302      1.0  0.42896  0.01235  0.02448  1.0000
  C   C303      1.0  0.39032  0.63360  0.72313  1.0000
  H   H496      1.0  0.37971  0.61759  0.70605  1.0000
  C   C304      1.0  0.36126  0.70568  0.53559  1.0000
  H   H497      1.0  0.28812  0.82610  0.66171  1.0000
  C   C305      1.0  0.30254  0.54635  0.69433  1.0000
  S   S127      1.0  0.37050  0.95692  0.82147  1.0000
  S   S128      1.0  0.37130  0.73222  0.65125  1.0000
  S   S129      1.0  0.37875  0.72548  0.56654  1.0000
  S   S130      1.0  0.39034  0.02191  0.87642  1.0000
  C   C306      1.0  0.32005  0.74808  0.69103  1.0000
  C   C307      1.0  0.33841  0.92884  0.82150  1.0000
  C   C308      1.0  0.32986  0.91142  0.79687  1.0000
  C   C309      1.0  0.30435  0.88915  0.79541  1.0000
  C   C310      1.0  0.29773  0.72286  0.69431  1.0000
  C   C311      1.0  0.29559  0.90146  0.84330  1.0000
  C   C312      1.0  0.32127  0.92365  0.84491  1.0000
  H   H498      1.0  0.34293  0.91531  0.77862  1.0000
  H   H499      1.0  0.32762  0.93698  0.86394  1.0000
  H   H500      1.0  0.33754  0.74968  0.68179  1.0000
  H   H501      1.0  0.29804  0.87604  0.77621  1.0000
  Fe  Fe64      1.0  0.39187  0.98583  0.85959  1.0000
  C   C313      1.0  0.31974  0.77137  0.69962  1.0000
  H   H502      1.0  0.33703  0.79083  0.69683  1.0000
  H   H503      1.0  0.51767  0.55901  0.89154  1.0000
  C   C314      1.0  0.50649  0.82498  0.70991  1.0000
  C   C315      1.0  0.28699  0.88421  0.81846  1.0000
  H   H504      1.0  0.29523  0.81366  0.61134  1.0000
  C   C316      1.0  0.29718  0.76962  0.71164  1.0000
  Fe  Fe65      1.0  0.36858  0.70674  0.61187  1.0000
  S   S131      1.0  0.39660  0.97269  0.90486  1.0000
  H   H505      1.0  0.30406  0.59028  0.74566  1.0000
  H   H506      1.0  0.44786  0.73519  0.64997  1.0000
  H   H507      1.0  0.28740  0.78337  0.65372  1.0000
  C   C317      1.0  0.49560  0.99304  0.89195  1.0000
  H   H508      1.0  0.51655  0.75915  0.72740  1.0000
  H   H509      1.0  0.50498  0.96685  0.91640  1.0000
  C   C318      1.0  0.41677  0.01165  0.99738  1.0000
  S   S132      1.0  0.29719  0.79947  0.72036  1.0000
  N   N33       1.0  0.42737  0.93424  0.82644  1.0000
  H   H510      1.0  0.41723  0.92616  0.87241  1.0000
  H   H511      1.0  0.42291  0.00631  0.97727  1.0000
  H   H512      1.0  0.50555  0.83316  0.68794  1.0000
  H   H513      1.0  0.43562  0.90787  0.80103  1.0000
  H   H514      1.0  0.41343  0.95248  0.85696  1.0000
  S   S133      1.0  0.29728  0.69323  0.68329  1.0000
  C   C319      1.0  0.46273  0.74026  0.66692  1.0000
  H   H515      1.0  0.39007  0.91857  0.84757  1.0000
  C   C320      1.0  0.29718  0.55552  0.72052  1.0000
  H   H516      1.0  0.49303  0.74783  0.63582  1.0000
  C   C321      1.0  0.48832  0.74748  0.65894  1.0000
  S   S134      1.0  0.42497  0.73193  0.70753  1.0000
  Fe  Fe66      1.0  0.33402  0.69581  0.66509  1.0000
  C   C322      1.0  0.47617  0.74717  0.71847  1.0000
  H   H517      1.0  0.39810  0.93023  0.79479  1.0000
  C   C323      1.0  0.41923  0.94376  0.80028  1.0000
  H   H518      1.0  0.42187  0.96408  0.80432  1.0000
  C   C324      1.0  0.52802  0.02146  0.85617  1.0000
  C   C325      1.0  0.50405  0.01286  0.87029  1.0000
  H   H519      1.0  0.43074  0.94506  0.78046  1.0000
  H   H520      1.0  0.42958  0.89965  0.83956  1.0000
  H   H521      1.0  0.47152  0.74707  0.74157  1.0000
  C   C326      1.0  0.45523  0.95325  0.83346  1.0000
  S   S135      1.0  0.46469  0.98008  0.90835  1.0000
  Fe  Fe67      1.0  0.39172  0.71296  0.67390  1.0000
  C   C327      1.0  0.41129  0.93262  0.85198  1.0000
  H   H522      1.0  0.40283  0.89263  0.81476  1.0000
  H   H523      1.0  0.46813  0.95514  0.81480  1.0000
  C   C328      1.0  0.45665  0.74030  0.69670  1.0000
  H   H524      1.0  0.45856  0.97367  0.83843  1.0000
  C   C329      1.0  0.42369  0.90738  0.82015  1.0000
  H   H525      1.0  0.46200  0.94691  0.85334  1.0000
  C   C330      1.0  0.50794  0.75465  0.68066  1.0000
  C   C331      1.0  0.50171  0.75417  0.71049  1.0000
  C   C332      1.0  0.51145  0.98225  0.89974  1.0000
  H   H526      1.0  0.28531  0.64907  0.71903  1.0000
  H   H527      1.0  0.49377  0.82830  0.72523  1.0000
  C   C333      1.0  0.30785  0.58317  0.72518  1.0000
  Fe  Fe68      1.0  0.39921  0.01085  0.92126  1.0000
  H   H528      1.0  0.28484  0.64117  0.66486  1.0000
  H   H529      1.0  0.44422  0.53334  0.84283  1.0000
  H   H530      1.0  0.29028  0.61373  0.67145  1.0000
  H   H531      1.0  0.29091  0.62181  0.72560  1.0000
  H   H532      1.0  0.52541  0.80422  0.74949  1.0000
  H   H533      1.0  0.49206  0.02141  0.86420  1.0000
  S   S136      1.0  0.38115  0.01683  0.96249  1.0000
  C   C334      1.0  0.39659  0.01754  0.99642  1.0000
  C   C335      1.0  0.38878  0.02433  0.02278  1.0000
  H   H534      1.0  0.53349  0.87193  0.73967  1.0000
  N   N34       1.0  0.53369  0.83753  0.72136  1.0000
  H   H535      1.0  0.59040  0.04323  0.08676  1.0000
  S   S137      1.0  0.69486  0.37510  0.41582  1.0000
  Fe  Fe69      1.0  0.66798  0.04019  0.17726  1.0000
  H   H536      1.0  0.69888  0.14246  0.22353  1.0000
  S   S138      1.0  0.70972  0.06639  0.19407  1.0000
  H   H537      1.0  0.60439  0.26616  0.47335  1.0000
  C   C336      1.0  0.75339  0.36040  0.28816  1.0000
  C   C337      1.0  0.69983  0.34208  0.50615  1.0000
  S   S139      1.0  0.64829  0.04376  0.13601  1.0000
  S   S140      1.0  0.74680  0.18067  0.25229  1.0000
  Fe  Fe70      1.0  0.70735  0.32803  0.36549  1.0000
  S   S141      1.0  0.71631  0.30374  0.33296  1.0000
  H   H538      1.0  0.60899  0.29415  0.41425  1.0000
  C   C338      1.0  0.73579  0.47387  0.35126  1.0000
  C   C339      1.0  0.63572  0.33220  0.45535  1.0000
  S   S142      1.0  0.68964  0.32137  0.47443  1.0000
  C   C340      1.0  0.62126  0.28660  0.46957  1.0000
  S   S143      1.0  0.67186  0.31199  0.39411  1.0000
  H   H539      1.0  0.54614  0.08556  0.25199  1.0000
  H   H540      1.0  0.75649  0.34290  0.28975  1.0000
  H   H541      1.0  0.78231  0.22653  0.38103  1.0000
  H   H542      1.0  0.54301  0.07278  0.21503  1.0000
  H   H543      1.0  0.69080  0.51032  0.21816  1.0000
  C   C341      1.0  0.60207  0.32052  0.35658  1.0000
  C   C342      1.0  0.60526  0.30615  0.33365  1.0000
  C   C343      1.0  0.58355  0.28809  0.31619  1.0000
  C   C344      1.0  0.55843  0.28373  0.32202  1.0000
  C   C345      1.0  0.55512  0.29748  0.34558  1.0000
  C   C346      1.0  0.57693  0.31612  0.36247  1.0000
  H   H544      1.0  0.62454  0.30942  0.32889  1.0000
  H   H545      1.0  0.58626  0.27755  0.29797  1.0000
  H   H546      1.0  0.54762  0.35450  0.30818  1.0000
  H   H547      1.0  0.57433  0.32726  0.38010  1.0000
  H   H548      1.0  0.54441  0.32280  0.29802  1.0000
  C   C347      1.0  0.77509  0.37748  0.33529  1.0000
  C   C348      1.0  0.74216  0.29705  0.33865  1.0000
  C   C349      1.0  0.75926  0.30747  0.36305  1.0000
  S   S144      1.0  0.58810  0.04857  0.15520  1.0000
  H   H549      1.0  0.73279  0.27307  0.29884  1.0000
  H   H550      1.0  0.75650  0.31950  0.37939  1.0000
  H   H551      1.0  0.66780  0.49599  0.24767  1.0000
  H   H552      1.0  0.64808  0.34030  0.47576  1.0000
  C   C350      1.0  0.76659  0.27593  0.32114  1.0000
  C   C351      1.0  0.59636  0.30759  0.48352  1.0000
  C   C352      1.0  0.71934  0.09763  0.21119  1.0000
  C   C353      1.0  0.74410  0.11191  0.22498  1.0000
  C   C354      1.0  0.75251  0.13707  0.23841  1.0000
  C   C355      1.0  0.73630  0.14826  0.23778  1.0000
  C   C356      1.0  0.71153  0.13393  0.22409  1.0000
  C   C357      1.0  0.70298  0.10862  0.21099  1.0000
  H   H553      1.0  0.75684  0.10349  0.22522  1.0000
  C   C358      1.0  0.75843  0.49750  0.34281  1.0000
  H   H554      1.0  0.68387  0.09779  0.20042  1.0000
  N   N35       1.0  0.61258  0.30549  0.46022  1.0000
  Fe  Fe71      1.0  0.66852  0.34728  0.37964  1.0000
  Fe  Fe72      1.0  0.69930  0.34012  0.42913  1.0000
  C   C359      1.0  0.76895  0.40660  0.30205  1.0000
  C   C360      1.0  0.71577  0.02999  0.27064  1.0000
  H   H555      1.0  0.60397  0.02918  0.06176  1.0000
  C   C361      1.0  0.55647  0.03320  0.16995  1.0000
  H   H556      1.0  0.77159  0.14786  0.24900  1.0000
  H   H557      1.0  0.63384  0.28488  0.45254  1.0000
  H   H558      1.0  0.77917  0.36071  0.33772  1.0000
  H   H559      1.0  0.55217  0.02630  0.05146  1.0000
  H   H560      1.0  0.63317  0.29355  0.49039  1.0000
  C   C362      1.0  0.72073  0.36849  0.50549  1.0000
  H   H561      1.0  0.57868  0.28779  0.48778  1.0000
  S   S145      1.0  0.62894  0.34474  0.37784  1.0000
  N   N36       1.0  0.77431  0.38419  0.30393  1.0000
  H   H562      1.0  0.76606  0.19171  0.13819  1.0000
  C   C363      1.0  0.74597  0.28130  0.31772  1.0000
  C   C364      1.0  0.68877  0.50470  0.24196  1.0000
  C   C365      1.0  0.59715  0.29567  0.43238  1.0000
  H   H563      1.0  0.75224  0.36449  0.26433  1.0000
  H   H564      1.0  0.69383  0.48861  0.24444  1.0000
  H   H565      1.0  0.60755  0.31504  0.50477  1.0000
  H   H566      1.0  0.70720  0.50395  0.29632  1.0000
  H   H567      1.0  0.65398  0.03504  0.07100  1.0000
  H   H568      1.0  0.63010  0.34701  0.44774  1.0000
  C   C366      1.0  0.73720  0.45137  0.36067  1.0000
  H   H569      1.0  0.64827  0.33112  0.43801  1.0000
  Fe  Fe73      1.0  0.61291  0.02981  0.16459  1.0000
  H   H570      1.0  0.59051  0.30960  0.42456  1.0000
  H   H571      1.0  0.53829  0.11796  0.18455  1.0000
  H   H572      1.0  0.68187  0.51238  0.29954  1.0000
  H   H573      1.0  0.54208  0.13505  0.23577  1.0000
  H   H574      1.0  0.57951  0.27551  0.43502  1.0000
  H   H575      1.0  0.75604  0.37106  0.34584  1.0000
  H   H576      1.0  0.76861  0.17165  0.18543  1.0000
  H   H577      1.0  0.73046  0.37696  0.48486  1.0000
  H   H578      1.0  0.58962  0.32180  0.47709  1.0000
  H   H579      1.0  0.76810  0.41225  0.27874  1.0000
  H   H580      1.0  0.55721  0.36897  0.25589  1.0000
  H   H581      1.0  0.77287  0.22367  0.21205  1.0000
  H   H582      1.0  0.71969  0.43336  0.36741  1.0000
  H   H583      1.0  0.56314  0.10816  0.22224  1.0000
  S   S146      1.0  0.73507  0.35296  0.40186  1.0000
  H   H584      1.0  0.73981  0.52394  0.25709  1.0000
  Fe  Fe74      1.0  0.72779  0.38536  0.38459  1.0000
  S   S147      1.0  0.76408  0.42491  0.37433  1.0000
  H   H585      1.0  0.55255  0.49594  0.13858  1.0000
  H   H586      1.0  0.71711  0.47305  0.35083  1.0000
  C   C367      1.0  0.54616  0.50582  0.15397  1.0000
  S   S148      1.0  0.70122  0.36081  0.34709  1.0000
  H   H587      1.0  0.53587  0.29424  0.35034  1.0000
  C   C368      1.0  0.53845  0.03990  0.15837  1.0000
  C   C369      1.0  0.76135  0.45246  0.36193  1.0000
  H   H588      1.0  0.53463  0.34895  0.22689  1.0000
  H   H589      1.0  0.54405  0.05408  0.14045  1.0000
  H   H590      1.0  0.74965  0.20086  0.18553  1.0000
  H   H591      1.0  0.67968  0.03909  0.24551  1.0000
  S   S149      1.0  0.63395  0.03029  0.20643  1.0000
  H   H592      1.0  0.72400  0.04637  0.25396  1.0000
  H   H593      1.0  0.74997  0.40131  0.31244  1.0000
  C   C370      1.0  0.54282  0.34804  0.24890  1.0000
  H   H594      1.0  0.76915  0.26362  0.30494  1.0000
  C   C371      1.0  0.70231  0.52002  0.29232  1.0000
  H   H595      1.0  0.67275  0.03222  0.28404  1.0000
  H   H596      1.0  0.76942  0.23602  0.17697  1.0000
  C   C372      1.0  0.78251  0.49842  0.34356  1.0000
  H   H597      1.0  0.76569  0.21386  0.41530  1.0000
  C   C373      1.0  0.76957  0.21886  0.18796  1.0000
  C   C374      1.0  0.78003  0.30230  0.36634  1.0000
  H   H598      1.0  0.73387  0.35388  0.29786  1.0000
  H   H599      1.0  0.55370  0.33708  0.24591  1.0000
  C   C375      1.0  0.54454  0.08988  0.22832  1.0000
  H   H600      1.0  0.71734  0.03949  0.29261  1.0000
  S   S150      1.0  0.75584  0.52547  0.33170  1.0000
  C   C376      1.0  0.78377  0.28649  0.34542  1.0000
  H   H601      1.0  0.67291  0.37639  0.74640  1.0000
  S   S151      1.0  0.64082  0.04681  0.88222  1.0000
  C   C377      1.0  0.65224  0.03667  0.02333  1.0000
  H   H602      1.0  0.66270  0.05837  0.02283  1.0000
  S   S152      1.0  0.70150  0.05304  0.83603  1.0000
  H   H603      1.0  0.72454  0.25730  0.73951  1.0000
  S   S153      1.0  0.68811  0.33591  0.71136  1.0000
  N   N37       1.0  0.71942  0.22275  0.76327  1.0000
  S   S154      1.0  0.68606  0.32620  0.63958  1.0000
  N   N38       1.0  0.71456  0.10208  0.92178  1.0000
  Fe  Fe75      1.0  0.66500  0.33743  0.67241  1.0000
  S   S155      1.0  0.62140  0.32104  0.66760  1.0000
  Fe  Fe76      1.0  0.71167  0.32836  0.67784  1.0000
  S   S156      1.0  0.71984  0.29386  0.67642  1.0000
  C   C378      1.0  0.59909  0.30479  0.69641  1.0000
  C   C379      1.0  0.60716  0.30006  0.72381  1.0000
  C   C380      1.0  0.58919  0.28891  0.74695  1.0000
  C   C381      1.0  0.56292  0.28185  0.74263  1.0000
  H   H604      1.0  0.70156  0.30505  0.58389  1.0000
  C   C382      1.0  0.57281  0.29762  0.69207  1.0000
  H   H605      1.0  0.62722  0.30497  0.72720  1.0000
  H   H606      1.0  0.59554  0.28547  0.76820  1.0000
  H   H607      1.0  0.67432  0.09015  0.92934  1.0000
  H   H608      1.0  0.56641  0.30114  0.67089  1.0000
  H   H609      1.0  0.73488  0.22284  0.72042  1.0000
  C   C383      1.0  0.71413  0.11102  0.89128  1.0000
  H   H610      1.0  0.73739  0.33445  0.55008  1.0000
  H   H611      1.0  0.75272  0.22421  0.78479  1.0000
  H   H612      1.0  0.68568  0.33845  0.57945  1.0000
  H   H613      1.0  0.69739  0.12402  0.94040  1.0000
  C   C384      1.0  0.76410  0.31695  0.71232  1.0000
  C   C385      1.0  0.74780  0.29586  0.69316  1.0000
  C   C386      1.0  0.75306  0.27501  0.68802  1.0000
  H   H614      1.0  0.54714  0.51484  0.81988  1.0000
  H   H615      1.0  0.76017  0.33310  0.71640  1.0000
  C   C387      1.0  0.71328  0.29574  0.59084  1.0000
  C   C388      1.0  0.71289  0.08530  0.82100  1.0000
  C   C389      1.0  0.69674  0.09648  0.81884  1.0000
  C   C390      1.0  0.70688  0.12287  0.80860  1.0000
  C   C391      1.0  0.73312  0.13818  0.80006  1.0000
  C   C392      1.0  0.74918  0.12687  0.80181  1.0000
  C   C393      1.0  0.73909  0.10052  0.81229  1.0000
  H   H616      1.0  0.67647  0.08488  0.82526  1.0000
  H   H617      1.0  0.69428  0.13142  0.80720  1.0000
  H   H618      1.0  0.75172  0.09203  0.81387  1.0000
  C   C394      1.0  0.72091  0.20857  0.73670  1.0000
  C   C395      1.0  0.70072  0.20292  0.78423  1.0000
  H   H619      1.0  0.70682  0.18827  0.79101  1.0000
  C   C396      1.0  0.71048  0.24160  0.75461  1.0000
  S   S157      1.0  0.74505  0.17153  0.78820  1.0000
  H   H620      1.0  0.77800  0.25869  0.69850  1.0000
  S   S158      1.0  0.65091  0.03947  0.96297  1.0000
  C   C397      1.0  0.74782  0.32383  0.55745  1.0000
  H   H621      1.0  0.74535  0.24917  0.79742  1.0000
  H   H622      1.0  0.72406  0.07230  0.90755  1.0000
  C   C398      1.0  0.70939  0.07418  0.92099  1.0000
  C   C399      1.0  0.69579  0.34674  0.55908  1.0000
  C   C400      1.0  0.55474  0.28604  0.71503  1.0000
  H   H623      1.0  0.68991  0.06039  0.91095  1.0000
  H   H624      1.0  0.72917  0.11024  0.87739  1.0000
  H   H625      1.0  0.77007  0.35387  0.60571  1.0000
  H   H626      1.0  0.76941  0.13848  0.79529  1.0000
  H   H627      1.0  0.70931  0.06655  0.94363  1.0000
  C   C401      1.0  0.69417  0.10330  0.93921  1.0000
  H   H628      1.0  0.65086  0.35584  0.71744  1.0000
  H   H629      1.0  0.71786  0.13196  0.89078  1.0000
  H   H630      1.0  0.76909  0.33808  0.55471  1.0000
  C   C402      1.0  0.74050  0.11974  0.93556  1.0000
  C   C403      1.0  0.74556  0.23786  0.77756  1.0000
  H   H631      1.0  0.69928  0.21281  0.80472  1.0000
  H   H632      1.0  0.70153  0.19689  0.72536  1.0000
  H   H633      1.0  0.75627  0.11920  0.92287  1.0000
  H   H634      1.0  0.74141  0.11344  0.95862  1.0000
  H   H635      1.0  0.76032  0.25258  0.76219  1.0000
  H   H636      1.0  0.73750  0.34816  0.60227  1.0000
  H   H637      1.0  0.64095  0.34932  0.75531  1.0000
  N   N39       1.0  0.74164  0.31488  0.58844  1.0000
  H   H638      1.0  0.69481  0.09795  0.88029  1.0000
  H   H639      1.0  0.74507  0.14097  0.93643  1.0000
  H   H640      1.0  0.69118  0.23109  0.74289  1.0000
  H   H641      1.0  0.70854  0.25219  0.77419  1.0000
  H   H642      1.0  0.72765  0.19423  0.74249  1.0000
  H   H643      1.0  0.68076  0.19120  0.77419  1.0000
  H   H644      1.0  0.69357  0.09619  0.96225  1.0000
  H   H645      1.0  0.74056  0.25869  0.67311  1.0000
  C   C404      1.0  0.65678  0.40493  0.71487  1.0000
  H   H646      1.0  0.75139  0.28381  0.58365  1.0000
  H   H647      1.0  0.55130  0.51579  0.97575  1.0000
  C   C405      1.0  0.74907  0.33839  0.60781  1.0000
  C   C406      1.0  0.78012  0.47664  0.69297  1.0000
  C   C407      1.0  0.64340  0.39643  0.76585  1.0000
  H   H648      1.0  0.74192  0.30660  0.54198  1.0000
  H   H649      1.0  0.67100  0.31096  0.53355  1.0000
  H   H650      1.0  0.63208  0.38101  0.78278  1.0000
  H   H651      1.0  0.70699  0.27763  0.57670  1.0000
  H   H652      1.0  0.66412  0.40807  0.77379  1.0000
  C   C408      1.0  0.65202  0.36556  0.73912  1.0000
  H   H653      1.0  0.75186  0.29458  0.62113  1.0000
  Fe  Fe77      1.0  0.71557  0.37975  0.70169  1.0000
  S   S159      1.0  0.72797  0.41094  0.73826  1.0000
  S   S160      1.0  0.69088  0.38160  0.66493  1.0000
  H   H654      1.0  0.65485  0.39612  0.69238  1.0000
  H   H655      1.0  0.74651  0.46128  0.76915  1.0000
  C   C409      1.0  0.68731  0.33131  0.53295  1.0000
  C   C410      1.0  0.75010  0.44435  0.72808  1.0000
  C   C411      1.0  0.76213  0.45002  0.70053  1.0000
  Fe  Fe78      1.0  0.66132  0.02981  0.85653  1.0000
  C   C412      1.0  0.75592  0.46555  0.74788  1.0000
  H   H656      1.0  0.75775  0.43386  0.68509  1.0000
  S   S161      1.0  0.73020  0.39131  0.59189  1.0000
  H   H657      1.0  0.65010  0.41982  0.71323  1.0000
  H   H658      1.0  0.53435  0.03661  0.83922  1.0000
  C   C413      1.0  0.55187  0.51007  0.95235  1.0000
  C   C414      1.0  0.77410  0.27484  0.70255  1.0000
  H   H659      1.0  0.70785  0.28889  0.61404  1.0000
  C   C415      1.0  0.61376  0.36848  0.72682  1.0000
  C   C416      1.0  0.71734  0.37277  0.55877  1.0000
  N   N40       1.0  0.64146  0.38387  0.73667  1.0000
  Fe  Fe79      1.0  0.71385  0.37025  0.63524  1.0000
  H   H660      1.0  0.61180  0.35929  0.70451  1.0000
  H   H661      1.0  0.63566  0.41048  0.76488  1.0000
  H   H662      1.0  0.60178  0.35168  0.74214  1.0000
  H   H663      1.0  0.67805  0.41603  0.72084  1.0000
  H   H664      1.0  0.60485  0.38145  0.72540  1.0000
  S   S162      1.0  0.74115  0.37205  0.67148  1.0000
  H   H665      1.0  0.74617  0.40395  0.53141  1.0000
  C   C417      1.0  0.77364  0.49229  0.74010  1.0000
  H   H666      1.0  0.77772  0.50855  0.75523  1.0000
  H   H667      1.0  0.74558  0.33259  0.63147  1.0000
  H   H668      1.0  0.77785  0.31559  0.59672  1.0000
  C   C418      1.0  0.54070  0.52450  0.83552  1.0000
  C   C419      1.0  0.75637  0.30161  0.59782  1.0000
  C   C420      1.0  0.72959  0.38373  0.53184  1.0000
  H   H669      1.0  0.57724  0.50895  0.90317  1.0000
  H   H670      1.0  0.55594  0.49320  0.95240  1.0000
  S   S163      1.0  0.54111  0.26870  0.77240  1.0000
  H   H671      1.0  0.55200  0.51633  0.89414  1.0000
  H   H672      1.0  0.53454  0.28063  0.71149  1.0000
  C   C421      1.0  0.57169  0.52471  0.90458  1.0000
  C   C422      1.0  0.73337  0.53878  0.25281  1.0000
  H   H673      1.0  0.66689  0.98300  0.22716  1.0000
  Fe  Fe80      1.0  0.66757  0.63261  0.18738  1.0000
  S   S164      1.0  0.62455  0.61489  0.19649  1.0000
  S   S165      1.0  0.69405  0.63557  0.22574  1.0000
  Fe  Fe81      1.0  0.66146  0.64590  0.12337  1.0000
  S   S166      1.0  0.61835  0.62873  0.12767  1.0000
  S   S167      1.0  0.68105  0.66739  0.08113  1.0000
  Fe  Fe82      1.0  0.62827  0.65043  0.17158  1.0000
  Fe  Fe83      1.0  0.61879  0.59513  0.15192  1.0000
  S   S168      1.0  0.59068  0.55189  0.13899  1.0000
  S   S169      1.0  0.67160  0.66967  0.16590  1.0000
  S   S170      1.0  0.66160  0.61062  0.14427  1.0000
  C   C423      1.0  0.66465  0.65190  0.04770  1.0000
  C   C424      1.0  0.64262  0.62619  0.04756  1.0000
  H   H674      1.0  0.67770  0.54159  0.26122  1.0000
  H   H675      1.0  0.63570  0.61537  0.06808  1.0000
  S   S171      1.0  0.60864  0.67525  0.17840  1.0000
  H   H676      1.0  0.53989  0.87090  0.22776  1.0000
  H   H677      1.0  0.56565  0.56744  0.18373  1.0000
  C   C425      1.0  0.55366  0.54611  0.17948  1.0000
  C   C426      1.0  0.75520  0.60913  0.22105  1.0000
  C   C427      1.0  0.74796  0.61496  0.24815  1.0000
  C   C428      1.0  0.72893  0.62267  0.24917  1.0000
  C   C429      1.0  0.71673  0.62436  0.22314  1.0000
  C   C430      1.0  0.72351  0.61798  0.19601  1.0000
  C   C431      1.0  0.74278  0.61048  0.19499  1.0000
  H   H678      1.0  0.55563  0.80763  0.24625  1.0000
  H   H679      1.0  0.72360  0.62741  0.27023  1.0000
  H   H680      1.0  0.71425  0.61929  0.17579  1.0000
  H   H681      1.0  0.74826  0.60600  0.17388  1.0000
  C   C432      1.0  0.63785  0.72946  0.08062  1.0000
  H   H682      1.0  0.65918  0.79453  0.49334  1.0000
  H   H683      1.0  0.67089  0.71580  0.10651  1.0000
  H   H684      1.0  0.62782  0.66609  0.07517  1.0000
  C   C433      1.0  0.67241  0.02292  0.26233  1.0000
  H   H685      1.0  0.71546  0.53714  0.30720  1.0000
  C   C434      1.0  0.54712  0.84480  0.27239  1.0000
  N   N41       1.0  0.56442  0.00185  0.07461  1.0000
  H   H686      1.0  0.69869  0.98723  0.23370  1.0000
  H   H687      1.0  0.73671  0.54443  0.22904  1.0000
  H   H688      1.0  0.67836  0.99658  0.30801  1.0000
  C   C435      1.0  0.56601  0.97741  0.06910  1.0000
  C   C436      1.0  0.56188  0.53350  0.15933  1.0000
  H   H689      1.0  0.65713  0.97301  0.28032  1.0000
  H   H690      1.0  0.77190  0.66324  0.28735  1.0000
  H   H691      1.0  0.63725  0.74236  0.09864  1.0000
  H   H692      1.0  0.62380  0.72771  0.06294  1.0000
  H   H693      1.0  0.65782  0.74016  0.07112  1.0000
  H   H694      1.0  0.70032  0.86672  0.51091  1.0000
  N   N42       1.0  0.70578  0.52818  0.26094  1.0000
  N   N43       1.0  0.63145  0.70281  0.09185  1.0000
  H   H695      1.0  0.68042  0.76643  0.32635  1.0000
  Fe  Fe84      1.0  0.75647  0.87177  0.48428  1.0000
  S   S172      1.0  0.73541  0.84681  0.44349  1.0000
  S   S173      1.0  0.59668  0.98594  0.15600  1.0000
  Fe  Fe85      1.0  0.62116  0.98730  0.19511  1.0000
  S   S174      1.0  0.60839  0.95838  0.23359  1.0000
  C   C437      1.0  0.63390  0.99547  0.05153  1.0000
  Fe  Fe86      1.0  0.57045  0.78897  0.30180  1.0000
  S   S175      1.0  0.59468  0.79142  0.26253  1.0000
  C   C438      1.0  0.54898  0.01458  0.19284  1.0000
  Fe  Fe87      1.0  0.61880  0.82077  0.34142  1.0000
  S   S176      1.0  0.64628  0.82578  0.30512  1.0000
  S   S177      1.0  0.63446  0.84157  0.38584  1.0000
  Fe  Fe88      1.0  0.62055  0.83459  0.27608  1.0000
  S   S178      1.0  0.63715  0.86615  0.24036  1.0000
  Fe  Fe89      1.0  0.61813  0.78222  0.29467  1.0000
  S   S179      1.0  0.63606  0.75586  0.28738  1.0000
  S   S180      1.0  0.59491  0.83291  0.31301  1.0000
  S   S181      1.0  0.59206  0.77643  0.33338  1.0000
  C   C439      1.0  0.54747  0.99756  0.10024  1.0000
  H   H696      1.0  0.72847  0.02086  0.27122  1.0000
  C   C440      1.0  0.56129  0.82627  0.23367  1.0000
  C   C441      1.0  0.60989  0.73081  0.23513  1.0000
  C   C442      1.0  0.62827  0.73373  0.25676  1.0000
  C   C443      1.0  0.64093  0.71872  0.25416  1.0000
  C   C444      1.0  0.65063  0.70616  0.11514  1.0000
  C   C445      1.0  0.61665  0.69769  0.20874  1.0000
  H   H697      1.0  0.60000  0.74222  0.23691  1.0000
  H   H698      1.0  0.65509  0.72076  0.27084  1.0000
  H   H699      1.0  0.61833  0.68331  0.04925  1.0000
  S   S182      1.0  0.62667  0.97815  0.08542  1.0000
  C   C446      1.0  0.63002  0.89243  0.23926  1.0000
  C   C447      1.0  0.63463  0.90726  0.21320  1.0000
  C   C448      1.0  0.62820  0.92763  0.21121  1.0000
  C   C449      1.0  0.61718  0.93334  0.23534  1.0000
  C   C450      1.0  0.61290  0.91877  0.26156  1.0000
  C   C451      1.0  0.61941  0.89846  0.26357  1.0000
  H   H700      1.0  0.64290  0.90274  0.19432  1.0000
  H   H701      1.0  0.63148  0.93863  0.19084  1.0000
  H   H702      1.0  0.60454  0.92323  0.28040  1.0000
  H   H703      1.0  0.61634  0.88755  0.28395  1.0000
  H   H704      1.0  0.72711  0.78507  0.31240  1.0000
  C   C452      1.0  0.60490  0.68930  0.10437  1.0000
  C   C453      1.0  0.70772  0.84621  0.42763  1.0000
  C   C454      1.0  0.70103  0.86566  0.43441  1.0000
  C   C455      1.0  0.67852  0.86410  0.42143  1.0000
  C   C456      1.0  0.66294  0.84347  0.40115  1.0000
  C   C457      1.0  0.66971  0.82407  0.39438  1.0000
  C   C458      1.0  0.69185  0.82532  0.40785  1.0000
  H   H705      1.0  0.71323  0.88196  0.44948  1.0000
  H   H706      1.0  0.67335  0.87916  0.42675  1.0000
  H   H707      1.0  0.65742  0.80775  0.37940  1.0000
  H   H708      1.0  0.69660  0.80987  0.40333  1.0000
  H   H709      1.0  0.74842  0.82083  0.31014  1.0000
  H   H710      1.0  0.73078  0.85148  0.32104  1.0000
  H   H711      1.0  0.69118  0.82368  0.49053  1.0000
  H   H712      1.0  0.73787  0.80529  0.34559  1.0000
  H   H713      1.0  0.58984  0.68650  0.08755  1.0000
  H   H714      1.0  0.69554  0.01348  0.21640  1.0000
  N   N44       1.0  0.70848  0.80827  0.32022  1.0000
  C   C459      1.0  0.55176  0.86140  0.22248  1.0000
  C   C460      1.0  0.67787  0.98838  0.28555  1.0000
  C   C461      1.0  0.60411  0.71283  0.21123  1.0000
  C   C462      1.0  0.63519  0.70079  0.23023  1.0000
  S   S183      1.0  0.65607  0.99711  0.16774  1.0000
  S   S184      1.0  0.75554  0.90747  0.50287  1.0000
  H   H715      1.0  0.65033  0.71830  0.13421  1.0000
  Fe  Fe90      1.0  0.63300  0.99973  0.12932  1.0000
  H   H716      1.0  0.62277  0.79955  0.51463  1.0000
  H   H717      1.0  0.58970  0.71050  0.19474  1.0000
  H   H718      1.0  0.54180  0.82713  0.28672  1.0000
  H   H719      1.0  0.60357  0.70096  0.12332  1.0000
  H   H720      1.0  0.64616  0.68646  0.12414  1.0000
  H   H721      1.0  0.75714  0.61384  0.26833  1.0000
  H   H722      1.0  0.54645  0.95973  0.06403  1.0000
  H   H723      1.0  0.59951  0.66913  0.11311  1.0000
  H   H724      1.0  0.56277  0.00926  0.20187  1.0000
  C   C463      1.0  0.70073  0.80734  0.28881  1.0000
  H   H725      1.0  0.68342  0.80999  0.28651  1.0000
  H   H726      1.0  0.71674  0.82332  0.27569  1.0000
  H   H727      1.0  0.69504  0.78758  0.27831  1.0000
  H   H728      1.0  0.54931  0.85643  0.19842  1.0000
  C   C464      1.0  0.73152  0.80472  0.32215  1.0000
  H   H729      1.0  0.66906  0.78887  0.33609  1.0000
  H   H730      1.0  0.65234  0.69575  0.05764  1.0000
  C   C465      1.0  0.68660  0.78645  0.33645  1.0000
  H   H731      1.0  0.69193  0.78585  0.35995  1.0000
  C   C466      1.0  0.71508  0.83448  0.33345  1.0000
  H   H732      1.0  0.69779  0.83733  0.33356  1.0000
  H   H733      1.0  0.72202  0.83631  0.35681  1.0000
  H   H734      1.0  0.57265  0.87687  0.22626  1.0000
  H   H735      1.0  0.56570  0.01100  0.02834  1.0000
  N   N45       1.0  0.66332  0.83025  0.51388  1.0000
  H   H736      1.0  0.70251  0.55700  0.23365  1.0000
  H   H737      1.0  0.68920  0.97774  0.28652  1.0000
  H   H738      1.0  0.74661  0.55710  0.26586  1.0000
  H   H739      1.0  0.57430  0.97235  0.08866  1.0000
  H   H740      1.0  0.63015  0.82675  0.48986  1.0000
  H   H741      1.0  0.64491  0.68918  0.22859  1.0000
  H   H742      1.0  0.54576  0.01560  0.10488  1.0000
  C   C467      1.0  0.63247  0.68631  0.06736  1.0000
  H   H743      1.0  0.65159  0.00828  0.25666  1.0000
  H   H744      1.0  0.58206  0.84075  0.23944  1.0000
  H   H745      1.0  0.67470  0.86587  0.48840  1.0000
  C   C468      1.0  0.66984  0.81667  0.49049  1.0000
  H   H746      1.0  0.56042  0.82130  0.20974  1.0000
  C   C469      1.0  0.69873  0.54921  0.25670  1.0000
  C   C470      1.0  0.67902  0.85963  0.51002  1.0000
  H   H747      1.0  0.55556  0.99360  0.12076  1.0000
  C   C471      1.0  0.68736  0.99786  0.23382  1.0000
  H   H748      1.0  0.66460  0.82074  0.46812  1.0000
  H   H749      1.0  0.57893  0.98010  0.05012  1.0000
  H   H750      1.0  0.78330  0.66878  0.23346  1.0000
  H   H751      1.0  0.56762  0.86021  0.27814  1.0000
  C   C472      1.0  0.63522  0.82163  0.51179  1.0000
  N   N46       1.0  0.68837  0.00979  0.26313  1.0000
  H   H752      1.0  0.71030  0.56661  0.27184  1.0000
  N   N47       1.0  0.54421  0.83735  0.24066  1.0000
  C   C473      1.0  0.55340  0.00781  0.04812  1.0000
  C   C474      1.0  0.64728  0.02350  0.05066  1.0000
  S   S185      1.0  0.78017  0.60092  0.21909  1.0000
  S   S186      1.0  0.78357  0.59678  0.30546  1.0000
  H   H753      1.0  0.60015  0.02031  0.10009  1.0000
  C   C475      1.0  0.59090  0.02468  0.08101  1.0000
  H   H754      1.0  0.61524  0.95902  0.02539  1.0000
  H   H755      1.0  0.53444  0.85314  0.27853  1.0000
  C   C476      1.0  0.62555  0.98073  0.02488  1.0000
  H   H756      1.0  0.73577  0.65093  0.00466  1.0000
  C   C477      1.0  0.59787  0.54294  0.94906  1.0000
  Fe  Fe91      1.0  0.65148  0.66561  0.86314  1.0000
  S   S187      1.0  0.65685  0.63811  0.83210  1.0000
  Fe  Fe92      1.0  0.63671  0.62702  0.91510  1.0000
  S   S188      1.0  0.64105  0.59697  0.88792  1.0000
  S   S189      1.0  0.62157  0.61174  0.96102  1.0000
  Fe  Fe93      1.0  0.67764  0.63173  0.87036  1.0000
  S   S190      1.0  0.71547  0.63049  0.87281  1.0000
  Fe  Fe94      1.0  0.61972  0.60560  0.85239  1.0000
  S   S191      1.0  0.58846  0.56948  0.82719  1.0000
  S   S192      1.0  0.67491  0.66141  0.90041  1.0000
  S   S193      1.0  0.61273  0.63349  0.88057  1.0000
  H   H757      1.0  0.61318  0.56024  0.93663  1.0000
  H   H758      1.0  0.57669  0.69149  0.81579  1.0000
  C   C478      1.0  0.73536  0.62704  0.95292  1.0000
  C   C479      1.0  0.55710  0.55177  0.84263  1.0000
  H   H759      1.0  0.57877  0.57192  0.92157  1.0000
  H   H760      1.0  0.56086  0.58528  0.86784  1.0000
  C   C480      1.0  0.63843  0.62794  0.99397  1.0000
  C   C481      1.0  0.66038  0.65375  0.99406  1.0000
  H   H761      1.0  0.70183  0.64129  0.00351  1.0000
  H   H762      1.0  0.66705  0.66457  0.97352  1.0000
  C   C482      1.0  0.75270  0.61527  0.79164  1.0000
  C   C483      1.0  0.72941  0.61605  0.78852  1.0000
  C   C484      1.0  0.71777  0.62063  0.81316  1.0000
  C   C485      1.0  0.72939  0.62455  0.84122  1.0000
  C   C486      1.0  0.75267  0.62374  0.84442  1.0000
  C   C487      1.0  0.76430  0.61910  0.81974  1.0000
  H   H763      1.0  0.72031  0.61310  0.76687  1.0000
  H   H764      1.0  0.69985  0.62117  0.81040  1.0000
  H   H765      1.0  0.76183  0.62680  0.86602  1.0000
  C   C488      1.0  0.53561  0.99117  0.88597  1.0000
  H   H766      1.0  0.70997  0.66832  0.95768  1.0000
  H   H767      1.0  0.67528  0.62089  0.95774  1.0000
  H   H768      1.0  0.72063  0.98196  0.85426  1.0000
  H   H769      1.0  0.67529  0.87061  0.52787  1.0000
  H   H770      1.0  0.63448  0.71663  0.76974  1.0000
  N   N48       1.0  0.65593  0.73927  0.73203  1.0000
  H   H771      1.0  0.65796  0.80114  0.54701  1.0000
  Fe  Fe95      1.0  0.60354  0.01211  0.86417  1.0000
  H   H772      1.0  0.66451  0.83304  0.56140  1.0000
  N   N49       1.0  0.57173  0.53316  0.93550  1.0000
  H   H773      1.0  0.54923  0.83925  0.67801  1.0000
  H   H774      1.0  0.71747  0.00232  0.79276  1.0000
  S   S194      1.0  0.76644  0.60960  0.75973  1.0000
  H   H775      1.0  0.72422  0.66174  0.92625  1.0000
  C   C489      1.0  0.54391  0.01071  0.86400  1.0000
  H   H776      1.0  0.68950  0.61356  0.92698  1.0000
  H   H777      1.0  0.60689  0.67767  0.83755  1.0000
  Fe  Fe96      1.0  0.63729  0.01847  0.91833  1.0000
  H   H778      1.0  0.68335  0.59478  0.96041  1.0000
  N   N50       1.0  0.71639  0.63495  0.96271  1.0000
  C   C490      1.0  0.71627  0.63584  0.99541  1.0000
  C   C491      1.0  0.68997  0.61515  0.95154  1.0000
  H   H779      1.0  0.71094  0.61602  0.00508  1.0000
  H   H780      1.0  0.75553  0.64154  0.96091  1.0000
  C   C492      1.0  0.66924  0.82314  0.54324  1.0000
  H   H781      1.0  0.60324  0.52701  0.94936  1.0000
  H   H782      1.0  0.54756  0.98260  0.89200  1.0000
  H   H783      1.0  0.56542  0.87681  0.73291  1.0000
  C   C493      1.0  0.72393  0.66175  0.95091  1.0000
  H   H784      1.0  0.71253  0.00765  0.84671  1.0000
  H   H785      1.0  0.69036  0.68573  0.02095  1.0000
  H   H786      1.0  0.64433  0.72066  0.68892  1.0000
  H   H787      1.0  0.56729  0.56333  0.95864  1.0000
  C   C494      1.0  0.59724  0.70614  0.81864  1.0000
  H   H788      1.0  0.54536  0.87607  0.70242  1.0000
  H   H789      1.0  0.69436  0.93663  0.82932  1.0000
  H   H790      1.0  0.55420  0.83521  0.75983  1.0000
  H   H791      1.0  0.67701  0.99899  0.81172  1.0000
  Fe  Fe97      1.0  0.74928  0.88608  0.54646  1.0000
  S   S195      1.0  0.71715  0.88445  0.57485  1.0000
  Fe  Fe98      1.0  0.62178  0.97221  0.87394  1.0000
  H   H792      1.0  0.66724  0.93042  0.80551  1.0000
  S   S196      1.0  0.61532  0.92987  0.87165  1.0000
  C   C495      1.0  0.67898  0.94201  0.82529  1.0000
  C   C496      1.0  0.61429  0.69826  0.83099  1.0000
  S   S197      1.0  0.59835  0.98478  0.90217  1.0000
  Fe  Fe99      1.0  0.63251  0.80423  0.70819  1.0000
  S   S198      1.0  0.63437  0.81524  0.75649  1.0000
  S   S199      1.0  0.66716  0.80645  0.68434  1.0000
  Fe  Fe100     1.0  0.57331  0.78244  0.70336  1.0000
  S   S200      1.0  0.57052  0.79171  0.75084  1.0000
  H   H793      1.0  0.66564  0.93476  0.84456  1.0000
  Fe  Fe101     1.0  0.60751  0.83086  0.74318  1.0000
  S   S201      1.0  0.61044  0.87140  0.75043  1.0000
  Fe  Fe102     1.0  0.59728  0.77515  0.76011  1.0000
  S   S202      1.0  0.58480  0.74149  0.79313  1.0000
  S   S203      1.0  0.60852  0.82258  0.69458  1.0000
  S   S204      1.0  0.59732  0.76316  0.71290  1.0000
  C   C497      1.0  0.60668  0.73272  0.80956  1.0000
  C   C498      1.0  0.63320  0.75158  0.81361  1.0000
  C   C499      1.0  0.65019  0.74378  0.82630  1.0000
  C   C500      1.0  0.64087  0.71708  0.83480  1.0000
  C   C501      1.0  0.63044  0.99390  0.99752  1.0000
  C   C502      1.0  0.54859  0.56417  0.86267  1.0000
  H   H794      1.0  0.64053  0.77221  0.80727  1.0000
  H   H795      1.0  0.67068  0.75849  0.82952  1.0000
  C   C503      1.0  0.63128  0.71929  0.74600  1.0000
  C   C504      1.0  0.61128  0.91235  0.83800  1.0000
  C   C505      1.0  0.60907  0.92270  0.81089  1.0000
  C   C506      1.0  0.60856  0.90969  0.78432  1.0000
  C   C507      1.0  0.60977  0.88596  0.78460  1.0000
  C   C508      1.0  0.61111  0.87507  0.81170  1.0000
  C   C509      1.0  0.61191  0.88829  0.83831  1.0000
  H   H796      1.0  0.60809  0.94094  0.81038  1.0000
  H   H797      1.0  0.60742  0.91819  0.76342  1.0000
  H   H798      1.0  0.61200  0.85677  0.81218  1.0000
  H   H799      1.0  0.61350  0.88007  0.85923  1.0000
  H   H800      1.0  0.62288  0.69922  0.73521  1.0000
  S   S205      1.0  0.66022  0.00359  0.89369  1.0000
  C   C510      1.0  0.78160  0.74242  0.57096  1.0000
  H   H801      1.0  0.61619  0.72546  0.74491  1.0000
  C   C511      1.0  0.70402  0.86293  0.60552  1.0000
  C   C512      1.0  0.71277  0.84541  0.61398  1.0000
  C   C513      1.0  0.70132  0.82819  0.63819  1.0000
  C   C514      1.0  0.68099  0.82825  0.65395  1.0000
  C   C515      1.0  0.67214  0.84562  0.64525  1.0000
  C   C516      1.0  0.68362  0.86288  0.62117  1.0000
  H   H802      1.0  0.72845  0.84527  0.60206  1.0000
  H   H803      1.0  0.70834  0.81487  0.64480  1.0000
  H   H804      1.0  0.65662  0.84598  0.65724  1.0000
  H   H805      1.0  0.67673  0.87636  0.61474  1.0000
  H   H806      1.0  0.78225  0.61861  0.82239  1.0000
  C   C517      1.0  0.64388  0.02194  0.99669  1.0000
  H   H807      1.0  0.65506  0.97045  0.83312  1.0000
  H   H808      1.0  0.69083  0.97882  0.86791  1.0000
  S   S206      1.0  0.62442  0.99736  0.83482  1.0000
  H   H809      1.0  0.57031  0.84164  0.70811  1.0000
  H   H810      1.0  0.63635  0.74641  0.69591  1.0000
  H   H811      1.0  0.66960  0.71129  0.72676  1.0000
  S   S207      1.0  0.57350  0.02143  0.84519  1.0000
  C   C518      1.0  0.66522  0.76602  0.74554  1.0000
  H   H812      1.0  0.59880  0.55008  0.97222  1.0000
  H   H813      1.0  0.69877  0.96981  0.77543  1.0000
  C   C519      1.0  0.66925  0.97711  0.81474  1.0000
  H   H814      1.0  0.65821  0.96667  0.79420  1.0000
  H   H815      1.0  0.65009  0.77204  0.74383  1.0000
  H   H816      1.0  0.66942  0.75555  0.68879  1.0000
  S   S208      1.0  0.66324  0.70805  0.84926  1.0000
  C   C520      1.0  0.67595  0.73140  0.73661  1.0000
  H   H817      1.0  0.72513  0.97641  0.80061  1.0000
  C   C521      1.0  0.67346  0.66571  0.02091  1.0000
  H   H818      1.0  0.73015  0.60678  0.96106  1.0000
  H   H819      1.0  0.54507  0.54769  0.92806  1.0000
  C   C522      1.0  0.70429  0.98557  0.84873  1.0000
  H   H820      1.0  0.67028  0.76638  0.76936  1.0000
  N   N51       1.0  0.69037  0.97124  0.82128  1.0000
  C   C523      1.0  0.65129  0.74040  0.69999  1.0000
  H   H821      1.0  0.62396  0.98237  0.97711  1.0000
  H   H822      1.0  0.67978  0.73030  0.76067  1.0000
  C   C524      1.0  0.70880  0.98035  0.79642  1.0000
  H   H823      1.0  0.74379  0.67724  0.95878  1.0000
  H   H824      1.0  0.68296  0.78185  0.73436  1.0000
  H   H825      1.0  0.69486  0.74611  0.72650  1.0000
  S   S209      1.0  0.54008  0.76486  0.66967  1.0000
  C   C525      1.0  0.56541  0.55493  0.93595  1.0000
  H   H826      1.0  0.54223  0.81002  0.69878  1.0000
  C   C526      1.0  0.54953  0.83189  0.70065  1.0000
  S   S210      1.0  0.74786  0.84944  0.52722  1.0000
  H   H827      1.0  0.62975  0.83162  0.52912  1.0000
  H   H828      1.0  0.58561  0.54188  0.89073  1.0000
  H   H829      1.0  0.73601  0.62634  0.92830  1.0000
  H   H830      1.0  0.76298  0.72922  0.55870  1.0000
  C   C527      1.0  0.62956  0.61429  0.02079  1.0000
  C   C528      1.0  0.54492  0.86688  0.72418  1.0000
  H   H831      1.0  0.69041  0.82980  0.54573  1.0000
  H   H832      1.0  0.77943  0.73481  0.59398  1.0000
  H   H833      1.0  0.78213  0.70158  0.54242  1.0000
  H   H834      1.0  0.61256  0.59435  0.02091  1.0000
  Fe  Fe103     1.0  0.90029  0.17884  0.49561  1.0000
  S   S211      1.0  0.89502  0.20888  0.46816  1.0000
  S   S212      1.0  0.90502  0.14413  0.48080  1.0000
  Fe  Fe104     1.0  0.81430  0.25287  0.31777  1.0000
  S   S213      1.0  0.80736  0.25049  0.26858  1.0000
  H   H835      1.0  0.02822  0.45635  0.27994  1.0000
  Fe  Fe105     1.0  0.82861  0.20921  0.31744  1.0000
  S   S214      1.0  0.82185  0.20264  0.26843  1.0000
  S   S215      1.0  0.84099  0.18269  0.34072  1.0000
  Fe  Fe106     1.0  0.84389  0.24767  0.26578  1.0000
  S   S216      1.0  0.87287  0.26223  0.22826  1.0000
  H   H836      1.0  0.81595  0.41002  0.30201  1.0000
  S   S217      1.0  0.85295  0.25397  0.31453  1.0000
  N   N52       1.0  0.78984  0.21387  0.17572  1.0000
  H   H837      1.0  0.94309  0.28106  0.29949  1.0000
  H   H838      1.0  0.87680  0.22729  0.27739  1.0000
  C   C529      1.0  0.90172  0.29407  0.22748  1.0000
  C   C530      1.0  0.91871  0.30035  0.20352  1.0000
  C   C531      1.0  0.94204  0.32533  0.20223  1.0000
  S   S218      1.0  0.01808  0.36687  0.15576  1.0000
  C   C532      1.0  0.93168  0.33785  0.24908  1.0000
  C   C533      1.0  0.90830  0.31291  0.25032  1.0000
  H   H839      1.0  0.91381  0.28589  0.18575  1.0000
  H   H840      1.0  0.95491  0.32999  0.18360  1.0000
  H   H841      1.0  0.89535  0.30837  0.26884  1.0000
  H   H842      1.0  0.91024  0.27322  0.29086  1.0000
  C   C534      1.0  0.88029  0.20126  0.43259  1.0000
  C   C535      1.0  0.86968  0.17562  0.42005  1.0000
  C   C536      1.0  0.85773  0.17023  0.39182  1.0000
  C   C537      1.0  0.85615  0.19032  0.37605  1.0000
  C   C538      1.0  0.86701  0.21606  0.38841  1.0000
  C   C539      1.0  0.87900  0.22147  0.41662  1.0000
  H   H843      1.0  0.87063  0.15993  0.43213  1.0000
  H   H844      1.0  0.84953  0.15030  0.38228  1.0000
  H   H845      1.0  0.86631  0.23177  0.37618  1.0000
  H   H846      1.0  0.88746  0.24141  0.42616  1.0000
  H   H847      1.0  0.88149  0.06512  0.50732  1.0000
  H   H848      1.0  0.78424  0.42481  0.31402  1.0000
  S   S219      1.0  0.00089  0.38635  0.07540  1.0000
  H   H849      1.0  0.83306  0.27077  0.40720  1.0000
  Fe  Fe107     1.0  0.87958  0.12212  0.51965  1.0000
  C   C540      1.0  0.03104  0.19095  0.51498  1.0000
  H   H850      1.0  0.90110  0.21163  0.32810  1.0000
  H   H851      1.0  0.92965  0.21113  0.28840  1.0000
  H   H852      1.0  0.92593  0.24529  0.33803  1.0000
  H   H853      1.0  0.89681  0.22615  0.24886  1.0000
  H   H854      1.0  0.89323  0.23773  0.32918  1.0000
  H   H855      1.0  0.95433  0.24486  0.29818  1.0000
  S   S220      1.0  0.81007  0.28039  0.35028  1.0000
  H   H856      1.0  0.79996  0.39748  0.26671  1.0000
  C   C541      1.0  0.94860  0.34422  0.22501  1.0000
  H   H857      1.0  0.80437  0.37568  0.29156  1.0000
  H   H858      1.0  0.93056  0.27279  0.26215  1.0000
  H   H859      1.0  0.02978  0.17160  0.51663  1.0000
  H   H860      1.0  0.94206  0.23687  0.26076  1.0000
  Fe  Fe108     1.0  0.93860  0.16064  0.51401  1.0000
  H   H861      1.0  0.01717  0.45416  0.19922  1.0000
  H   H862      1.0  0.84909  0.25160  0.41300  1.0000
  H   H863      1.0  0.80488  0.19934  0.38667  1.0000
  H   H864      1.0  0.01072  0.42668  0.25714  1.0000
  Fe  Fe109     1.0  0.02098  0.39611  0.12069  1.0000
  N   N53       1.0  0.91577  0.23907  0.29157  1.0000
  C   C542      1.0  0.89238  0.22248  0.27285  1.0000
  C   C543      1.0  0.92540  0.26779  0.28584  1.0000
  C   C544      1.0  0.93638  0.23270  0.28441  1.0000
  C   C545      1.0  0.90881  0.23325  0.32309  1.0000
  H   H865      1.0  0.88403  0.20065  0.27705  1.0000
  C   C546      1.0  0.98372  0.45304  0.26003  1.0000
  C   C547      1.0  0.78806  0.18987  0.18971  1.0000
  H   H866      1.0  0.93661  0.35237  0.26677  1.0000
  H   H867      1.0  0.01555  0.47213  0.14776  1.0000
  H   H868      1.0  0.83086  0.24764  0.37936  1.0000
  C   C548      1.0  0.00806  0.19214  0.51060  1.0000
  S   S221      1.0  0.79071  0.20833  0.32464  1.0000
  H   H869      1.0  0.81964  0.24136  0.20605  1.0000
  H   H870      1.0  0.98875  0.46084  0.28315  1.0000
  H   H871      1.0  0.97089  0.43079  0.26103  1.0000
  H   H872      1.0  0.98897  0.45824  0.20077  1.0000
  H   H873      1.0  0.02979  0.49908  0.26419  1.0000
  H   H874      1.0  0.99245  0.21840  0.50437  1.0000
  H   H875      1.0  0.98671  0.42745  0.21229  1.0000
  C   C549      1.0  0.83117  0.25072  0.40372  1.0000
  H   H876      1.0  0.79125  0.21765  0.46095  1.0000
  H   H877      1.0  0.79321  0.31054  0.38520  1.0000
  C   C550      1.0  0.80486  0.20284  0.41092  1.0000
  C   C551      1.0  0.02239  0.44905  0.25677  1.0000
  H   H878      1.0  0.82139  0.20134  0.42088  1.0000
  H   H879      1.0  0.79058  0.19246  0.21412  1.0000
  S   S222      1.0  0.00637  0.41677  0.15088  1.0000
  Fe  Fe110     1.0  0.00680  0.38994  0.18662  1.0000
  C   C552      1.0  0.81600  0.23739  0.18185  1.0000
  C   C553      1.0  0.02409  0.49225  0.15674  1.0000
  H   H880      1.0  0.97201  0.46128  0.24987  1.0000
  C   C554      1.0  0.99971  0.44963  0.21243  1.0000
  N   N54       1.0  0.00745  0.46046  0.24279  1.0000
  C   C555      1.0  0.79980  0.39220  0.29040  1.0000
  H   H881      1.0  0.80006  0.51652  0.33711  1.0000
  C   C556      1.0  0.01520  0.38363  0.04245  1.0000
  C   C557      1.0  0.00992  0.21723  0.50828  1.0000
  H   H882      1.0  0.80332  0.18567  0.18150  1.0000
  C   C558      1.0  0.80896  0.23356  0.44984  1.0000
  H   H883      1.0  0.80270  0.47698  0.35419  1.0000
  H   H884      1.0  0.98854  0.49378  0.15191  1.0000
  H   H885      1.0  0.01362  0.49927  0.23029  1.0000
  H   H886      1.0  0.82624  0.23331  0.45962  1.0000
  S   S223      1.0  0.84284  0.08078  0.52235  1.0000
  S   S224      1.0  0.97766  0.37592  0.22440  1.0000
  C   C559      1.0  0.78395  0.47598  0.35320  1.0000
  C   C560      1.0  0.00886  0.50457  0.15900  1.0000
  H   H887      1.0  0.80060  0.20529  0.13357  1.0000
  S   S225      1.0  0.97746  0.16197  0.50856  1.0000
  H   H888      1.0  0.83193  0.23432  0.17338  1.0000
  C   C561      1.0  0.78571  0.20929  0.14343  1.0000
  C   C562      1.0  0.86282  0.04712  0.51064  1.0000
  N   N55       1.0  0.80727  0.22918  0.41746  1.0000
  Fe  Fe111     1.0  0.78614  0.20573  0.27519  1.0000
  C   C563      1.0  0.02397  0.49003  0.24166  1.0000
  C   C564      1.0  0.84102  0.04922  0.51806  1.0000
  H   H889      1.0  0.81818  0.25594  0.17166  1.0000
  H   H890      1.0  0.79015  0.39507  0.34826  1.0000
  H   H891      1.0  0.78704  0.22705  0.13209  1.0000
  H   H892      1.0  0.81088  0.25329  0.45554  1.0000
  H   H893      1.0  0.78646  0.18601  0.41981  1.0000
  H   H894      1.0  0.78557  0.24947  0.40952  1.0000
  C   C565      1.0  0.81688  0.02558  0.52219  1.0000
  C   C566      1.0  0.78416  0.22970  0.40542  1.0000
  S   S226      1.0  0.93562  0.19669  0.52608  1.0000
  S   S227      1.0  0.99320  0.33618  0.81776  1.0000
  H   H895      1.0  0.02624  0.20804  0.60672  1.0000
  C   C567      1.0  0.79003  0.29555  0.72230  1.0000
  C   C568      1.0  0.87468  0.30714  0.79168  1.0000
  C   C569      1.0  0.02029  0.22080  0.59429  1.0000
  Fe  Fe112     1.0  0.90798  0.17099  0.56123  1.0000
  S   S228      1.0  0.91350  0.18554  0.60898  1.0000
  S   S229      1.0  0.91336  0.13587  0.55153  1.0000
  C   C570      1.0  0.82825  0.49306  0.79358  1.0000
  Fe  Fe113     1.0  0.82368  0.21170  0.71865  1.0000
  S   S230      1.0  0.81941  0.19122  0.76257  1.0000
  S   S231      1.0  0.82333  0.19523  0.67277  1.0000
  Fe  Fe114     1.0  0.81571  0.25579  0.74520  1.0000
  S   S232      1.0  0.81058  0.23862  0.79052  1.0000
  C   C571      1.0  0.01852  0.52062  0.89539  1.0000
  Fe  Fe115     1.0  0.84490  0.23358  0.78038  1.0000
  S   S233      1.0  0.87281  0.24724  0.82004  1.0000
  H   H896      1.0  0.86254  0.34473  0.77716  1.0000
  C   C572      1.0  0.88281  0.35225  0.78587  1.0000
  S   S234      1.0  0.85177  0.25345  0.73593  1.0000
  C   C573      1.0  0.78521  0.31679  0.72682  1.0000
  H   H897      1.0  0.82750  0.13487  0.58022  1.0000
  C   C574      1.0  0.01269  0.37841  0.98858  1.0000
  H   H898      1.0  0.81591  0.06532  0.57903  1.0000
  C   C575      1.0  0.95926  0.31308  0.81810  1.0000
  C   C576      1.0  0.94392  0.31071  0.84248  1.0000
  C   C577      1.0  0.91738  0.29049  0.84276  1.0000
  C   C578      1.0  0.90581  0.27318  0.81829  1.0000
  C   C579      1.0  0.92087  0.27636  0.79341  1.0000
  C   C580      1.0  0.94759  0.29595  0.79354  1.0000
  H   H899      1.0  0.89557  0.37245  0.77630  1.0000
  H   H900      1.0  0.90576  0.28817  0.86203  1.0000
  H   H901      1.0  0.91217  0.26304  0.77451  1.0000
  H   H902      1.0  0.95936  0.29768  0.77460  1.0000
  S   S235      1.0  0.87244  0.15589  0.53202  1.0000
  C   C581      1.0  0.88900  0.18950  0.62636  1.0000
  C   C582      1.0  0.86700  0.18590  0.61055  1.0000
  C   C583      1.0  0.84723  0.18800  0.62513  1.0000
  C   C584      1.0  0.84942  0.19412  0.65551  1.0000
  C   C585      1.0  0.87164  0.19819  0.67127  1.0000
  C   C586      1.0  0.89132  0.19578  0.65672  1.0000
  H   H903      1.0  0.86528  0.18165  0.58707  1.0000
  H   H904      1.0  0.83017  0.18503  0.61278  1.0000
  H   H905      1.0  0.87347  0.20283  0.69470  1.0000
  H   H906      1.0  0.90831  0.19864  0.66911  1.0000
  H   H907      1.0  0.02139  0.45564  0.01994  1.0000
  H   H908      1.0  0.99130  0.26026  0.91018  1.0000
  H   H909      1.0  0.82098  0.47935  0.81284  1.0000
  H   H910      1.0  0.01889  0.47948  0.99652  1.0000
  C   C587      1.0  0.98565  0.23001  0.58253  1.0000
  C   C588      1.0  0.99003  0.31443  0.93799  1.0000
  C   C589      1.0  0.81252  0.07211  0.60083  1.0000
  H   H911      1.0  0.97791  0.18254  0.56438  1.0000
  S   S236      1.0  0.03261  0.41312  0.83504  1.0000
  H   H912      1.0  0.85395  0.29914  0.78472  1.0000
  H   H913      1.0  0.02404  0.21921  0.57049  1.0000
  H   H914      1.0  0.99637  0.29243  0.87028  1.0000
  N   N56       1.0  0.84032  0.52148  0.80298  1.0000
  H   H915      1.0  0.78952  0.48078  0.67170  1.0000
  C   C590      1.0  0.81735  0.11257  0.57920  1.0000
  H   H916      1.0  0.96472  0.22396  0.58549  1.0000
  C   C591      1.0  0.98566  0.27162  0.92547  1.0000
  N   N57       1.0  0.99250  0.21225  0.59911  1.0000
  H   H917      1.0  0.88251  0.35480  0.81027  1.0000
  C   C592      1.0  0.98805  0.21384  0.63098  1.0000
  C   C593      1.0  0.97589  0.18429  0.58855  1.0000
  H   H918      1.0  0.81917  0.06321  0.61828  1.0000
  H   H919      1.0  0.00031  0.23465  0.63977  1.0000
  H   H920      1.0  0.92672  0.33060  0.78427  1.0000
  C   C594      1.0  0.99007  0.30235  0.88677  1.0000
  H   H921      1.0  0.99143  0.26932  0.94834  1.0000
  H   H922      1.0  0.99265  0.20041  0.64414  1.0000
  H   H923      1.0  0.01778  0.42890  0.94437  1.0000
  N   N58       1.0  0.89213  0.33353  0.77836  1.0000
  H   H924      1.0  0.96844  0.30579  0.93756  1.0000
  N   N59       1.0  0.99817  0.30020  0.91724  1.0000
  C   C595      1.0  0.85493  0.11227  0.60016  1.0000
  H   H925      1.0  0.87174  0.32215  0.73638  1.0000
  H   H926      1.0  0.86610  0.13457  0.60091  1.0000
  H   H927      1.0  0.82802  0.10205  0.65072  1.0000
  H   H928      1.0  0.95262  0.32400  0.86137  1.0000
  H   H929      1.0  0.00093  0.44603  0.95497  1.0000
  H   H930      1.0  0.98109  0.17037  0.59967  1.0000
  H   H931      1.0  0.84249  0.48925  0.78173  1.0000
  C   C596      1.0  0.02692  0.31240  0.91877  1.0000
  N   N60       1.0  0.82656  0.10174  0.60311  1.0000
  H   H932      1.0  0.96846  0.29296  0.88458  1.0000
  S   S237      1.0  0.81549  0.29494  0.74232  1.0000
  H   H933      1.0  0.98873  0.22929  0.55839  1.0000
  C   C597      1.0  0.89185  0.33040  0.74584  1.0000
  H   H934      1.0  0.81387  0.51324  0.83895  1.0000
  H   H935      1.0  0.81132  0.48724  0.77820  1.0000
  H   H936      1.0  0.88010  0.29211  0.78482  1.0000
  H   H937      1.0  0.80036  0.10287  0.63499  1.0000
  H   H938      1.0  0.99907  0.33602  0.93236  1.0000
  C   C598      1.0  0.82152  0.11004  0.63213  1.0000
  H   H939      1.0  0.87555  0.30814  0.81630  1.0000
  H   H940      1.0  0.82105  0.10684  0.55696  1.0000
  C   C599      1.0  0.03178  0.47134  0.00290  1.0000
  H   H941      1.0  0.95486  0.17686  0.59264  1.0000
  H   H942      1.0  0.89873  0.31633  0.73941  1.0000
  S   S238      1.0  0.78806  0.21586  0.72477  1.0000
  C   C600      1.0  0.78593  0.49785  0.71266  1.0000
  Fe  Fe116     1.0  0.78565  0.19810  0.76957  1.0000
  H   H943      1.0  0.90468  0.34993  0.73495  1.0000
  H   H944      1.0  0.86275  0.10505  0.61818  1.0000
  H   H945      1.0  0.93281  0.36424  0.78073  1.0000
  H   H946      1.0  0.80349  0.52048  0.80436  1.0000
  H   H947      1.0  0.79987  0.02695  0.52781  1.0000
  H   H948      1.0  0.96393  0.26183  0.92459  1.0000
  S   S239      1.0  0.00156  0.37754  0.89380  1.0000
  Fe  Fe117     1.0  0.01546  0.37053  0.85045  1.0000
  H   H949      1.0  0.98402  0.48161  0.89970  1.0000
  Fe  Fe118     1.0  0.02167  0.42082  0.87990  1.0000
  C   C601      1.0  0.01741  0.47810  0.88795  1.0000
  H   H950      1.0  0.00229  0.37598  0.96792  1.0000
  S   S240      1.0  0.99985  0.44275  0.88921  1.0000
  H   H951      1.0  0.92000  0.34622  0.81453  1.0000
  C   C602      1.0  0.91908  0.34416  0.78997  1.0000
  C   C603      1.0  0.00196  0.38052  0.01540  1.0000
  H   H952      1.0  0.99627  0.31373  0.96117  1.0000
  H   H953      1.0  0.85937  0.10590  0.57880  1.0000
  H   H954      1.0  0.83221  0.13232  0.63465  1.0000
  C   C604      1.0  0.00467  0.49239  0.89481  1.0000
  H   H955      1.0  0.79598  0.10489  0.58057  1.0000
  H   H956      1.0  0.99880  0.32367  0.87998  1.0000
  H   H957      1.0  0.99769  0.25127  0.58997  1.0000
  H   H958      1.0  0.98327  0.37968  0.01526  1.0000
  H   H959      1.0  0.00228  0.42237  0.97971  1.0000
  C   C605      1.0  0.01371  0.43840  0.96350  1.0000
  H   H960      1.0  0.96721  0.20766  0.63512  1.0000
  H   H961      1.0  0.79103  0.06338  0.60295  1.0000
  H   H962      1.0  0.79754  0.33294  0.74200  1.0000
  H   H963      1.0  0.85714  0.51556  0.84274  1.0000
  H   H964      1.0  0.03347  0.24203  0.60130  1.0000
  H   H965      1.0  0.03389  0.31209  0.94169  1.0000
  H   H966      1.0  0.03381  0.30193  0.90384  1.0000
  C   C606      1.0  0.89824  0.65413  0.32582  1.0000
  H   H967      1.0  0.89053  0.60669  0.34505  1.0000
  S   S241      1.0  0.86388  0.73444  0.50910  1.0000
  Fe  Fe119     1.0  0.00173  0.63233  0.18439  1.0000
  H   H968      1.0  0.93948  0.66861  0.38487  1.0000
  S   S242      1.0  0.96899  0.64212  0.18581  1.0000
  Fe  Fe120     1.0  0.79852  0.92501  0.51288  1.0000
  S   S243      1.0  0.00234  0.60708  0.14686  1.0000
  Fe  Fe121     1.0  0.82504  0.62438  0.31995  1.0000
  S   S244      1.0  0.84129  0.62800  0.27443  1.0000
  S   S245      1.0  0.83569  0.66400  0.34181  1.0000
  Fe  Fe122     1.0  0.79104  0.56290  0.31460  1.0000
  S   S246      1.0  0.80517  0.56236  0.26897  1.0000
  Fe  Fe123     1.0  0.84498  0.59242  0.28717  1.0000
  S   S247      1.0  0.88125  0.58871  0.28376  1.0000
  Fe  Fe124     1.0  0.79997  0.59789  0.26093  1.0000
  S   S248      1.0  0.83114  0.59054  0.33394  1.0000
  H   H969      1.0  0.90924  0.67373  0.31443  1.0000
  N   N61       1.0  0.99852  0.68152  0.10497  1.0000
  H   H970      1.0  0.00721  0.62024  0.08439  1.0000
  C   C607      1.0  0.94455  0.62710  0.21300  1.0000
  C   C608      1.0  0.94555  0.61016  0.23439  1.0000
  C   C609      1.0  0.92594  0.59851  0.25578  1.0000
  C   C610      1.0  0.90504  0.60354  0.25593  1.0000
  C   C611      1.0  0.90402  0.62058  0.23464  1.0000
  C   C612      1.0  0.92375  0.63234  0.21327  1.0000
  H   H971      1.0  0.96141  0.60594  0.23444  1.0000
  H   H972      1.0  0.92688  0.58536  0.27217  1.0000
  H   H973      1.0  0.88801  0.62459  0.23453  1.0000
  H   H974      1.0  0.92280  0.64540  0.19678  1.0000
  H   H975      1.0  0.88963  0.63823  0.30840  1.0000
  H   H976      1.0  0.88364  0.62320  0.37436  1.0000
  N   N62       1.0  0.91530  0.64965  0.34633  1.0000
  H   H977      1.0  0.97801  0.64181  0.08569  1.0000
  C   C613      1.0  0.83620  0.99797  0.51100  1.0000
  H   H978      1.0  0.88177  0.65401  0.33764  1.0000
  C   C614      1.0  0.85084  0.67252  0.37712  1.0000
  C   C615      1.0  0.85630  0.65493  0.39266  1.0000
  C   C616      1.0  0.86975  0.66291  0.41999  1.0000
  H   H979      1.0  0.85010  0.63520  0.38367  1.0000
  H   H980      1.0  0.02317  0.52634  0.09167  1.0000
  C   C617      1.0  0.92684  0.67154  0.36867  1.0000
  H   H981      1.0  0.84287  0.70882  0.29993  1.0000
  S   S249      1.0  0.80011  0.89099  0.48999  1.0000
  C   C618      1.0  0.00352  0.61662  0.03686  1.0000
  H   H982      1.0  0.81679  0.68918  0.22297  1.0000
  C   C619      1.0  0.86037  0.02162  0.50704  1.0000
  S   S250      1.0  0.83419  0.96642  0.50569  1.0000
  H   H983      1.0  0.92821  0.63269  0.31262  1.0000
  H   H984      1.0  0.91141  0.67264  0.38147  1.0000
  H   H985      1.0  0.79747  0.68005  0.31479  1.0000
  C   C620      1.0  0.00083  0.69442  0.13405  1.0000
  C   C621      1.0  0.80575  0.71258  0.26823  1.0000
  N   N63       1.0  0.88094  0.93215  0.51919  1.0000
  H   H986      1.0  0.96043  0.64791  0.11415  1.0000
  H   H987      1.0  0.89267  0.94704  0.47505  1.0000
  H   H988      1.0  0.87418  0.64936  0.43185  1.0000
  C   C622      1.0  0.80386  0.67574  0.24053  1.0000
  H   H989      1.0  0.91196  0.61946  0.37677  1.0000
  H   H990      1.0  0.85129  0.71350  0.26135  1.0000
  H   H991      1.0  0.00884  0.68659  0.15126  1.0000
  S   S251      1.0  0.99944  0.54452  0.17519  1.0000
  C   C623      1.0  0.02919  0.57408  0.10591  1.0000
  C   C624      1.0  0.83767  0.69894  0.27769  1.0000
  S   S252      1.0  0.01360  0.61201  0.21841  1.0000
  H   H992      1.0  0.98706  0.64321  0.12401  1.0000
  H   H993      1.0  0.84149  0.68190  0.27876  1.0000
  C   C625      1.0  0.01756  0.62540  0.06377  1.0000
  H   H994      1.0  0.79549  0.65278  0.29384  1.0000
  C   C626      1.0  0.89969  0.62364  0.36131  1.0000
  C   C627      1.0  0.98019  0.65234  0.10715  1.0000
  C   C628      1.0  0.93636  0.64923  0.32943  1.0000
  C   C629      1.0  0.02451  0.68633  0.09610  1.0000
  H   H995      1.0  0.80627  0.65777  0.24102  1.0000
  H   H996      1.0  0.94976  0.64607  0.34416  1.0000
  N   N64       1.0  0.81005  0.68947  0.26968  1.0000
  H   H997      1.0  0.01181  0.55019  0.05291  1.0000
  Fe  Fe125     1.0  0.89870  0.73242  0.49346  1.0000
  C   C630      1.0  0.00850  0.82138  0.50772  1.0000
  S   S253      1.0  0.92361  0.77699  0.48619  1.0000
  H   H998      1.0  0.83617  0.81991  0.46552  1.0000
  H   H999      1.0  0.03237  0.67746  0.11218  1.0000
  H   H1000     1.0  0.96897  0.68967  0.08866  1.0000
  H   H1001     1.0  0.87707  0.72517  0.42631  1.0000
  H   H1002     1.0  0.78502  0.70599  0.26228  1.0000
  H   H1003     1.0  0.82381  0.75519  0.51461  1.0000
  S   S254      1.0  0.89553  0.69806  0.46566  1.0000
  H   H1004     1.0  0.99073  0.81340  0.49452  1.0000
  H   H1005     1.0  0.98650  0.68346  0.06043  1.0000
  C   C631      1.0  0.87125  0.70558  0.41705  1.0000
  Fe  Fe126     1.0  0.01776  0.58949  0.18009  1.0000
  C   C632      1.0  0.01967  0.53060  0.17076  1.0000
  H   H1006     1.0  0.94828  0.66832  0.31733  1.0000
  H   H1007     1.0  0.98143  0.69032  0.14205  1.0000
  H   H1008     1.0  0.01406  0.71654  0.13323  1.0000
  H   H1009     1.0  0.81384  0.84022  0.49252  1.0000
  S   S255      1.0  0.87077  0.80132  0.48427  1.0000
  C   C633      1.0  0.85818  0.69776  0.38946  1.0000
  H   H1010     1.0  0.00197  0.71492  0.08022  1.0000
  H   H1011     1.0  0.85391  0.71143  0.37762  1.0000
  C   C634      1.0  0.83945  0.82365  0.48910  1.0000
  C   C635      1.0  0.85610  0.81669  0.50416  1.0000
  C   C636      1.0  0.81447  0.00008  0.51876  1.0000
  H   H1012     1.0  0.93896  0.69144  0.35817  1.0000
  C   C637      1.0  0.87734  0.68827  0.43223  1.0000
  Fe  Fe127     1.0  0.88952  0.77919  0.50555  1.0000
  C   C638      1.0  0.87926  0.94615  0.49261  1.0000
  H   H1013     1.0  0.98238  0.60469  0.03694  1.0000
  H   H1014     1.0  0.81023  0.72334  0.28992  1.0000
  C   C639      1.0  0.82673  0.83511  0.50436  1.0000
  H   H1015     1.0  0.88424  0.96710  0.49797  1.0000
  H   H1016     1.0  0.85905  0.93589  0.48301  1.0000
  H   H1017     1.0  0.81834  0.72727  0.25131  1.0000
  C   C640      1.0  0.98854  0.69293  0.08258  1.0000
  C   C641      1.0  0.79290  0.67057  0.29235  1.0000
  H   H1018     1.0  0.87729  0.02025  0.50096  1.0000
  H   H1019     1.0  0.02960  0.59322  0.10143  1.0000
  H   H1020     1.0  0.02367  0.67726  0.07403  1.0000
  H   H1021     1.0  0.88681  0.90382  0.49405  1.0000
  H   H1022     1.0  0.00833  0.55776  0.10626  1.0000
  H   H1023     1.0  0.92216  0.94726  0.51489  1.0000
  H   H1024     1.0  0.85331  0.89297  0.50215  1.0000
  H   H1025     1.0  0.79575  0.98207  0.52181  1.0000
  H   H1026     1.0  0.78890  0.74008  0.51207  1.0000
  C   C642      1.0  0.87369  0.90436  0.51113  1.0000
  C   C643      1.0  0.03307  0.83573  0.49414  1.0000
  C   C644      1.0  0.03259  0.56666  0.05400  1.0000
  H   H1027     1.0  0.03288  0.58554  0.04791  1.0000
  S   S256      1.0  0.00135  0.57996  0.90256  1.0000
  S   S257      1.0  0.99811  0.61203  0.97659  1.0000
  C   C645      1.0  0.88274  0.69715  0.61406  1.0000
  Fe  Fe128     1.0  0.00322  0.60733  0.86596  1.0000
  S   S258      1.0  0.97642  0.59867  0.82574  1.0000
  C   C646      1.0  0.01663  0.62314  0.00978  1.0000
  Fe  Fe129     1.0  0.85242  0.62775  0.72048  1.0000
  S   S259      1.0  0.84487  0.63816  0.76602  1.0000
  S   S260      1.0  0.88052  0.65328  0.68485  1.0000
  Fe  Fe130     1.0  0.81823  0.56728  0.73000  1.0000
  S   S261      1.0  0.80737  0.57217  0.77606  1.0000
  Fe  Fe131     1.0  0.85004  0.60382  0.78149  1.0000
  S   S262      1.0  0.87185  0.60466  0.82364  1.0000
  S   S263      1.0  0.86097  0.59624  0.73687  1.0000
  Fe  Fe132     1.0  0.01733  0.61671  0.93205  1.0000
  Fe  Fe133     1.0  0.80288  0.60594  0.75748  1.0000
  C   C647      1.0  0.80596  0.56070  0.63582  1.0000
  C   C648      1.0  0.94818  0.60182  0.82566  1.0000
  C   C649      1.0  0.93552  0.60009  0.79856  1.0000
  C   C650      1.0  0.91266  0.60189  0.79750  1.0000
  C   C651      1.0  0.90199  0.60503  0.82364  1.0000
  C   C652      1.0  0.91474  0.60690  0.85074  1.0000
  C   C653      1.0  0.93786  0.60551  0.85176  1.0000
  H   H1028     1.0  0.94339  0.59725  0.77826  1.0000
  H   H1029     1.0  0.90323  0.60062  0.77647  1.0000
  H   H1030     1.0  0.90661  0.60926  0.87109  1.0000
  H   H1031     1.0  0.94742  0.60681  0.87278  1.0000
  H   H1032     1.0  0.00857  0.53147  0.90071  1.0000
  C   C654      1.0  0.83216  0.60824  0.62639  1.0000
  C   C655      1.0  0.82829  0.76074  0.57338  1.0000
  C   C656      1.0  0.87258  0.67137  0.65957  1.0000
  S   S264      1.0  0.01563  0.64276  0.89609  1.0000
  H   H1033     1.0  0.90517  0.68009  0.63167  1.0000
  H   H1034     1.0  0.89501  0.70561  0.59503  1.0000
  H   H1035     1.0  0.84581  0.76253  0.56231  1.0000
  H   H1036     1.0  0.86031  0.59308  0.59381  1.0000
  C   C657      1.0  0.84924  0.53875  0.77665  1.0000
  H   H1037     1.0  0.99494  0.64690  0.78086  1.0000
  H   H1038     1.0  0.82780  0.75284  0.59597  1.0000
  H   H1039     1.0  0.80551  0.54121  0.63794  1.0000
  H   H1040     1.0  0.82678  0.61364  0.64781  1.0000
  H   H1041     1.0  0.00144  0.68063  0.77624  1.0000
  H   H1042     1.0  0.87135  0.60193  0.64740  1.0000
  H   H1043     1.0  0.79875  0.70728  0.57767  1.0000
  S   S265      1.0  0.81040  0.59830  0.71069  1.0000
  C   C658      1.0  0.03035  0.82846  0.55522  1.0000
  H   H1044     1.0  0.83844  0.66577  0.68235  1.0000
  H   H1045     1.0  0.81795  0.60708  0.60928  1.0000
  C   C659      1.0  0.86024  0.82165  0.53461  1.0000
  C   C660      1.0  0.85083  0.67448  0.66336  1.0000
  C   C661      1.0  0.88846  0.68268  0.63485  1.0000
  H   H1046     1.0  0.94427  0.80034  0.60672  1.0000
  H   H1047     1.0  0.85829  0.56025  0.78307  1.0000
  H   H1048     1.0  0.98120  0.78423  0.66202  1.0000
  H   H1049     1.0  0.97606  0.81050  0.62151  1.0000
  S   S266      1.0  0.91424  0.73425  0.53954  1.0000
  C   C662      1.0  0.84536  0.68936  0.64278  1.0000
  H   H1050     1.0  0.85172  0.56636  0.65453  1.0000
  C   C663      1.0  0.83078  0.83994  0.53484  1.0000
  H   H1051     1.0  0.94162  0.73614  0.62466  1.0000
  C   C664      1.0  0.91708  0.76125  0.64572  1.0000
  H   H1052     1.0  0.86412  0.53640  0.76423  1.0000
  H   H1053     1.0  0.90534  0.75919  0.62539  1.0000
  H   H1054     1.0  0.96979  0.76579  0.61081  1.0000
  Fe  Fe134     1.0  0.88141  0.73978  0.55461  1.0000
  S   S267      1.0  0.85487  0.72062  0.59365  1.0000
  S   S268      1.0  0.90464  0.78470  0.55230  1.0000
  H   H1055     1.0  0.86739  0.95216  0.54829  1.0000
  H   H1056     1.0  0.95284  0.81409  0.64361  1.0000
  C   C665      1.0  0.90793  0.94650  0.53132  1.0000
  H   H1057     1.0  0.85106  0.83715  0.57338  1.0000
  H   H1058     1.0  0.93809  0.75554  0.59588  1.0000
  S   S269      1.0  0.97664  0.80083  0.55672  1.0000
  H   H1059     1.0  0.91393  0.96756  0.53759  1.0000
  C   C666      1.0  0.85119  0.58529  0.65194  1.0000
  C   C667      1.0  0.95991  0.77505  0.66637  1.0000
  Fe  Fe135     1.0  0.79156  0.87147  0.53434  1.0000
  S   S270      1.0  0.81595  0.85505  0.55495  1.0000
  H   H1060     1.0  0.86305  0.92072  0.56199  1.0000
  H   H1061     1.0  0.90912  0.74079  0.65513  1.0000
  H   H1062     1.0  0.82877  0.69211  0.64612  1.0000
  H   H1063     1.0  0.95759  0.78738  0.68376  1.0000
  C   C668      1.0  0.94883  0.75694  0.61675  1.0000
  N   N65       1.0  0.94520  0.77352  0.63908  1.0000
  H   H1064     1.0  0.84576  0.58982  0.67373  1.0000
  H   H1065     1.0  0.79933  0.56442  0.65736  1.0000
  N   N66       1.0  0.80410  0.74303  0.55633  1.0000
  H   H1066     1.0  0.95300  0.75471  0.67567  1.0000
  C   C669      1.0  0.00704  0.81785  0.53838  1.0000
  C   C670      1.0  0.95500  0.80083  0.62736  1.0000
  C   C671      1.0  0.84761  0.83321  0.54985  1.0000
  C   C672      1.0  0.86138  0.70084  0.61816  1.0000
  H   H1067     1.0  0.82933  0.54709  0.82573  1.0000
  H   H1068     1.0  0.91347  0.77348  0.66202  1.0000
  H   H1069     1.0  0.02797  0.63848  0.80363  1.0000
  H   H1070     1.0  0.82668  0.57488  0.58170  1.0000
  H   H1071     1.0  0.90977  0.93645  0.55146  1.0000
  N   N67       1.0  0.83240  0.58277  0.62852  1.0000
  H   H1072     1.0  0.85178  0.62524  0.62065  1.0000
  Fe  Fe136     1.0  0.93676  0.77897  0.53364  1.0000
  C   C673      1.0  0.01999  0.67612  0.82899  1.0000
  H   H1073     1.0  0.87331  0.81676  0.54635  1.0000
  H   H1074     1.0  0.01860  0.66839  0.75436  1.0000
  C   C674      1.0  0.84039  0.57685  0.59992  1.0000
  H   H1075     1.0  0.01090  0.68894  0.82990  1.0000
  C   C675      1.0  0.01074  0.66797  0.77671  1.0000
  H   H1076     1.0  0.83130  0.78130  0.57591  1.0000
  H   H1077     1.0  0.87192  0.54973  0.83102  1.0000
  N   N68       1.0  0.03148  0.67730  0.79978  1.0000
  C   C676      1.0  0.86277  0.93156  0.54176  1.0000
  H   H1078     1.0  0.00451  0.65529  0.83430  1.0000
  S   S271      1.0  0.79213  0.90635  0.55784  1.0000
  C   C677      1.0  0.80018  0.71560  0.55509  1.0000
  H   H1079     1.0  0.81690  0.71540  0.54432  1.0000
  H   H1080     1.0  0.87461  0.89317  0.53072  1.0000
  C   C678      1.0  0.86294  0.52860  0.82292  1.0000
  H   H1081     1.0  0.78398  0.76287  0.57221  1.0000
  H   H1082     1.0  0.84074  0.55771  0.60081  1.0000
  H   H1083     1.0  0.84234  0.92105  0.53315  1.0000
  S   S272      1.0  0.80918  0.53082  0.70230  1.0000
  H   H1084     1.0  0.80847  0.77371  0.52607  1.0000
  H   H1085     1.0  0.02945  0.82586  0.57894  1.0000
  H   H1086     1.0  0.79121  0.55813  0.61867  1.0000
  H   H1087     1.0  0.83272  0.53401  0.76107  1.0000
  C   C679      1.0  0.80638  0.75340  0.52596  1.0000
  C   C680      1.0  0.82086  0.52569  0.81871  1.0000
  H   H1088     1.0  0.87858  0.52679  0.81149  1.0000
