data_image0
_chemical_formula_structural       C3NH10C4FeHCH2CSCHSHCH5CHFeS2H2NH2CHCHCHCH3CH3FeCHCH2CSCH2CSC2H3C2HNC2HSFeCS2HSHNH3CSHNFeH2CHCHC2SCH4CH3CH3NH7C3H2CFeCNHSCHSCSH3C2HCH2CSCHSC2HCH3CSHFeCFeH3FeSFeS2Fe2S3CHNFeCSH2CSHC3H3C6H4C2HCH4C2HSC2H2CHSH3C2HS2HCNHSH2CH3C2FeCSC3H3CH4SHSH2CH2FeCHC2H2CNH2C2HCFeCNSHCH2CH7C2SH2CH3FeH2CSCSH2CSHSH6CHFeC2H3C2HCSFeNFeHSCFeHC3SH2NH2CHCH2CH3SH3CHSHCH2CH4C3H3FeCH4C3SCHC2H2SHCH6CSHCSH2FeHSCHCSCH2Fe2HSH6CFeCFeSHSHSHSCHSFeCH2C2HSH2SC2H2FeSCHCH2CHFeSCHCSC2FeH2FeH3CHCHSH2CSHC3NCHCH4CH2SH2C3FeHCHFe2SH2NHCNCHC2H5CHNC2H2CHS2H3CH6SCHFeH4FeSH2SFeCH2CHC2FeHSHNCSHFeCH7C2HSH3CSHCNCFe2CHC2SHNH4CSHCFeHCHC3HCHCSHCH5FeCH2SCSCS2HC2HNSCFeH3NHC2HFeC2HS3H4CHFeHCSH2C4H2C2H2CSHC2SFeS2HSHCH4C2SHFeHCSH3S2CHCH2C2NHC2H3CHFeC2SHCH2CH3CHC2HFe2C2SH4NSH3FeSCH2SHCHC2FeSC2H4CSHCH6CH5SCHN2H2SCHC3H7FeCSCFeH2C3HSCHCSH2C2HCFeNCH3CHCHSH2C2H5C2S3FeHSC4HFe2HN2H5C2NCHCSCHCSC2H5C2FeH3CH3CSFeCH5CH4FeSFeSHCHCFeS2CH2FeC2HC4H4CSHC3H2SFeSH4CSCSHSHSHS2CFeC3HSH10C2H5FeSCHCHCH3SH2CHFeS2FeS2Fe2S3H4C2SHCH2C2FeHSC2HCHC7H3CH6FeHCSHC3HFeHCNH2CH3CNH2FeHC2S2CH11CH3CHCH3CFeHFeHSH2C2H2CFeHSHCHCH2SCHCSH2CHC2H2C2HC2HCH3NHFeH5SCS2H3CH2NS2HCSFeH3C4H4FeHC3H3CH2SCHCHCNC5H12CH2SCNC2HFeHCH2C2HCHSC2SH2S2FeSH2CSNSC3HCH2C2H2CHCSCHNHCSCHNC2SH3CSHNH2C2NH3CNHFeCH2CH3NHCHCFeSFeSFeHCH3CH2FeC2SC2H3CSC4H2C2H6CHCSHCH3C2S2CH3CHS2HC2HCH3CH2C2H8CHFeCH2SCS2CH2CFeC2SHS2HC2HC2FeC3SH2C2H2CH2CH3CHNH4C2H2C2FeH2SH3CH2CNCH2CH5CHCFeH3CH2CH3CHCS2C2SC2HC2SH2CH2CHNSHFeH4SH2CNC2H2SH2C2H5SH2CH2SNHC2HCH5C2H2FeCSCH2CHNHFeSCH2C3HCSH2SCHSC2H2CH2SH2CHSH2SNCH2C2HC2H2NFeH3C2SC2H5SH3CH2FeHC4HFeH2CHFeHCSHFeCHC2HSCHNHCH2C3H3FeHC2H4CH2SH6NH2CFeCHSHFeHCFeHSHSHCSC2NH6C2SC2SFeSFeHCH2SHFeHSHCHCSCHC4HSH3C3HCH3CH4CFeH5CHC2SH3CHFeH2SHSHFeH2C2HCSHC2H2SCH2SH3C4NCH2C2H2CSNC2H2C2HS2CSHCSH2CH4C2HFeCFe2CH2CFeH2NC2H2C2FeHSH2CHSHSHCHCHFeSCH3SC3H7C2H2C2H2NFeCSCH3CFeC3FeH3SH2SHSH3C3H2CHCH3C2HCFeH3S2H2CHSH3CHSHNH2SNH2SCFeH7CHC2H4CH2C7H3CNC4HCH2CH6NHS2CH2CH3FeC2H3SH3CSNCSH6CHCH3CH2CH2C2HCHC2H2CH2C3HNHCFeH2S2CHCHC2H2SCHFeC2H3C2HNSCH2CHCH5C3SHSHFeSHSC4H3FeCH2CH2SCSCFeHFeSH6CHCHNCHC2H4NH3CH3C2SHC2HCHC2H2CH2FeC2H2NCSCSHCH3C2H3SFeSH3S2CHCFeH3FeCSH2C2SCH4CHFeS3NHC3HCHCH2SCHSFeC5H2SCSHN2HCHFeHSC2H2FeH4SHSHCH2SH3SFeSFeH3FeS2FeCHFeSFeS2CFeHCH2SHCHCH3CHCHFeCHC6H4C3HCHCSFeHCHCHC2HSC3SFeHNH2S2C3NH2SHCHNCSH5CHCHCHS2H3SH6NCNH2SHCH2CFeHS2H2C4HCHC2HFeCHC2HC3H3CSCH2FeH3SH6C2NC2HSH7SFeC2H2SHCHFeC3H2SH2SH2C2NHC2H4CH2CSHCHCFeC2H4C3H7C2HCNH2CH4CH2NHCH2CHCHSH7CHCFeH8CFeSCSHSCHCSCHSH2CHSNCSFeH2CSNH3C4H2C2HFeH5CSCNCH2CH3SH2NHC2FeHCFeH3SH2SC2HSHCHCFeH4C2H4CH2CH2SCSCHCH2SC2H2CH4CSC2H5C5SHC4HCSHNHCHC2HSCH14NC2H2SHSC2H3CHFeCHCFeHSH5CH2SCHCH5SNH2CHCHNHC2S2H2SFeSC3HSHC4H3CHCFeC2SHCHFeSH2CFeHCHCH7CH2CH3C2FeHSFeSNH2CSHS3CH2C2FeHCHCHCH2SHSCHCH3SHNC2HCH2C3H7Fe2CSH2SCHCNHCSH3S2H3CHNH2FeH2CHCH2FeCH3NH2SHCHCSHCHFeCSHC2H3C2FeH3SCHSHC2H2Fe2NHCFeHSCH2SCH2CFeS2FeSFe2S2H3FeHSHCHCH2CHC2H2C2HCSC6H3C3HSCHNC2HCHFeH2CHSC2H3CNSHSH7NH4CHS2CSH2CHFeC3HCH3SCHCH3SHC2NS3H2CHCH2FeCH2CSH2FeC4FeSC4HCSH2CH6C4NCH4SH4CH3CHC2HCHSC2HNHS2C2HCHSHCFeH3CH2SH6C4H3CNCHCHCHSCSH2FeCH2FeH4CSFeCH3CHCH2FeS2Fe2S2HFeSHCH2C3H3C6H7CHCHNC2HS2CH3CHCHSH4SFeCHFeC2Fe2H3C2H2CH2C3SNHSH2SCHC2HCFeSHC2H4SH2C3SC2H2CH3CNCHSHCSH2CH2CH3CS2HCNHFe2H2SFeH2CH2CHSCH4C4H4FeC2HCH5CSCH2FeH3C2HSNSFeHS2H4FeSH3FeS2CSC3HFeH4CHC2H2CH2CH2C2SNHCNCH2FeH2CHSCH2CHSCSCH3CH3SFeCFeSHSCH2FeS2HCHC4H4CHSH2SCH2CH4SHC2H2NH2CHCH6CH4NH3CHC2H3SCH3C2HCHC2H3CH2CNH2C2NH4CFeHFeHCHSC2FeHFeH3SH2SH2NH3CHCFeHSFeHFeHCHCS2HSCFeH2CHC2SH3C3HS2HC2HNH4CHSCFeH3SFeCS2H2CHSCHSC2H2CHNCFeC6H3FeH2S2C2HC2FeS2CHFeC2H2CS2CH5SHNHC2SCSHSCHCFeSH2CH4C2HC2H4CH2CH2CNCSCH2SCHC3SFe2HC2SCFeH2SC2HCSNCH5C2FeSHCH3C2SHCFeSHFeSHFe2S2NSCHSHFeS2H2C8H5NH2C3H2SH4CH7CH5CHC3HCHCH3CHSH3CHCFeHNHSH2CH2CH6CHCHCHSCH2FeCH3SC3SHC2HFeH2SCFeH2CH3CHSCH2SH2CHFeCHSCHSC3SCH6SHC2HC2H2SCHSH3CHCH4FeHNSHCHC2NH2C2NFeHSCFeH5C2HCNH3C3HCHSHSCSCHSH3CH2C2HFeS2Fe2HFeS2CH3CHFeS2H5NHC2SH3CHCSC6H6FeHCH4C3SC2NHSNCHCHC2H3CH4CFeHCSHCSFeH
_chemical_formula_sum              "C1280 N128 H2048 Fe256 S512"
_cell_length_a       111.946
_cell_length_b       110.374
_cell_length_c       35.2453
_cell_angle_alpha    77.2857
_cell_angle_beta     77.2366
_cell_angle_gamma    101.064

_space_group_name_H-M_alt    "P 1"
_space_group_IT_number       1

loop_
  _space_group_symop_operation_xyz
  'x, y, z'

loop_
  _atom_site_type_symbol
  _atom_site_label
  _atom_site_symmetry_multiplicity
  _atom_site_fract_x
  _atom_site_fract_y
  _atom_site_fract_z
  _atom_site_occupancy
  C   C1        1.0  0.01207  0.31893  0.15589  1.0000
  C   C2        1.0  0.01637  0.30704  0.21547  1.0000
  C   C3        1.0  0.00566  0.32390  0.21956  1.0000
  N   N1        1.0  0.00726  0.31348  0.20027  1.0000
  H   H1        1.0  0.01783  0.29914  0.20147  1.0000
  H   H2        1.0  0.99885  0.32893  0.20874  1.0000
  H   H3        1.0  0.02139  0.32607  0.14699  1.0000
  H   H4        1.0  0.00545  0.32393  0.14350  1.0000
  H   H5        1.0  0.01475  0.33121  0.21288  1.0000
  H   H6        1.0  0.01326  0.31137  0.14009  1.0000
  H   H7        1.0  0.00181  0.32014  0.25307  1.0000
  H   H8        1.0  0.01296  0.30282  0.24889  1.0000
  H   H9        1.0  0.02577  0.31390  0.20857  1.0000
  H   H10       1.0  0.99578  0.29585  0.19724  1.0000
  C   C4        1.0  0.10996  0.39361  0.08754  1.0000
  C   C5        1.0  0.10881  0.37932  0.04483  1.0000
  C   C6        1.0  0.04234  0.47968  0.15691  1.0000
  C   C7        1.0  0.04072  0.47851  0.11953  1.0000
  Fe  Fe1       1.0  0.07863  0.39063  0.99446  1.0000
  H   H11       1.0  0.12038  0.37376  0.10296  1.0000
  C   C8        1.0  0.14948  0.48202  0.98630  1.0000
  H   H12       1.0  0.15410  0.48702  0.23848  1.0000
  H   H13       1.0  0.03392  0.39484  0.96777  1.0000
  C   C9        1.0  0.05420  0.48609  0.15938  1.0000
  S   S1        1.0  0.11292  0.49496  0.09441  1.0000
  C   C10       1.0  0.09088  0.37692  0.10094  1.0000
  H   H14       1.0  0.02870  0.40346  0.08179  1.0000
  S   S2        1.0  0.02567  0.47217  0.11372  1.0000
  H   H15       1.0  0.10654  0.40061  0.06739  1.0000
  C   C11       1.0  0.02679  0.34936  0.05389  1.0000
  H   H16       1.0  0.00414  0.38561  0.55331  1.0000
  H   H17       1.0  0.10518  0.38590  0.02415  1.0000
  H   H18       1.0  0.02743  0.41960  0.51510  1.0000
  H   H19       1.0  0.08751  0.37742  0.13256  1.0000
  H   H20       1.0  0.04881  0.42801  0.07932  1.0000
  C   C12       1.0  0.03665  0.43115  0.43551  1.0000
  H   H21       1.0  0.11932  0.38206  0.03263  1.0000
  Fe  Fe2       1.0  0.09083  0.50046  0.66549  1.0000
  S   S3        1.0  0.01704  0.44085  0.20402  1.0000
  S   S4        1.0  0.09225  0.49833  0.81156  1.0000
  H   H22       1.0  0.04171  0.36427  0.11198  1.0000
  H   H23       1.0  0.99812  0.43681  0.44298  1.0000
  N   N2        1.0  0.02875  0.41788  0.45483  1.0000
  H   H24       1.0  0.04831  0.39050  0.00973  1.0000
  H   H25       1.0  0.12668  0.43864  0.07231  1.0000
  C   C13       1.0  0.09390  0.46486  0.01341  1.0000
  H   H26       1.0  0.04281  0.40920  0.42783  1.0000
  C   C14       1.0  0.05608  0.43713  0.07341  1.0000
  H   H27       1.0  0.02494  0.46398  0.33831  1.0000
  C   C15       1.0  0.10985  0.37143  0.11318  1.0000
  H   H28       1.0  0.01431  0.45398  0.29367  1.0000
  C   C16       1.0  0.01678  0.45584  0.35160  1.0000
  H   H29       1.0  0.13731  0.48680  0.15820  1.0000
  H   H30       1.0  0.12050  0.39651  0.07674  1.0000
  H   H31       1.0  0.11635  0.44806  0.00669  1.0000
  C   C17       1.0  0.14461  0.43395  0.05559  1.0000
  H   H32       1.0  0.02112  0.35008  0.11565  1.0000
  H   H33       1.0  0.10620  0.36130  0.11322  1.0000
  H   H34       1.0  0.07240  0.45345  0.09601  1.0000
  Fe  Fe3       1.0  0.01122  0.45475  0.15910  1.0000
  C   C18       1.0  0.03020  0.41333  0.49587  1.0000
  H   H35       1.0  0.05669  0.44322  0.04297  1.0000
  C   C19       1.0  0.06463  0.49096  0.12488  1.0000
  H   H36       1.0  0.05142  0.40663  0.01431  1.0000
  H   H37       1.0  0.01523  0.38537  0.15265  1.0000
  C   C20       1.0  0.04025  0.36153  0.08537  1.0000
  S   S5        1.0  0.01297  0.33776  0.05706  1.0000
  C   C21       1.0  0.13265  0.41935  0.01058  1.0000
  H   H38       1.0  0.13237  0.45148  0.48236  1.0000
  H   H39       1.0  0.04411  0.42619  0.15241  1.0000
  C   C22       1.0  0.04812  0.36228  0.01506  1.0000
  S   S6        1.0  0.11846  0.49886  0.71797  1.0000
  C   C23       1.0  0.02856  0.35348  0.08754  1.0000
  C   C24       1.0  0.04076  0.44709  0.10515  1.0000
  H   H40       1.0  0.03293  0.43842  0.11083  1.0000
  H   H41       1.0  0.14937  0.47705  0.08501  1.0000
  H   H42       1.0  0.13747  0.48169  0.06210  1.0000
  C   C25       1.0  0.14529  0.41985  0.01100  1.0000
  C   C26       1.0  0.05011  0.36589  0.04923  1.0000
  H   H43       1.0  0.03332  0.41610  0.03565  1.0000
  N   N3        1.0  0.10486  0.38032  0.08666  1.0000
  C   C27       1.0  0.05177  0.43514  0.14503  1.0000
  C   C28       1.0  0.01220  0.45117  0.39395  1.0000
  H   H44       1.0  0.10717  0.39482  0.11851  1.0000
  S   S7        1.0  0.02007  0.45849  0.42492  1.0000
  Fe  Fe4       1.0  0.99736  0.43746  0.24395  1.0000
  C   C29       1.0  0.06302  0.45557  0.09684  1.0000
  S   S8        1.0  0.06496  0.37519  0.04890  1.0000
  S   S9        1.0  0.15142  0.44309  0.08516  1.0000
  H   H45       1.0  0.06075  0.43234  0.14606  1.0000
  S   S10       1.0  0.08819  0.40641  0.01678  1.0000
  H   H46       1.0  0.01323  0.38386  0.04800  1.0000
  N   N4        1.0  0.03168  0.39712  0.02779  1.0000
  H   H47       1.0  0.06401  0.46236  0.06719  1.0000
  H   H48       1.0  0.04126  0.45384  0.07594  1.0000
  H   H49       1.0  0.10519  0.36944  0.04276  1.0000
  C   C30       1.0  0.05119  0.48317  0.08518  1.0000
  S   S11       1.0  0.07793  0.50253  0.62323  1.0000
  H   H50       1.0  0.15578  0.43349  0.44607  1.0000
  N   N5        1.0  0.05293  0.44374  0.10506  1.0000
  Fe  Fe5       1.0  0.01277  0.45318  0.49361  1.0000
  H   H51       1.0  0.02365  0.38042  0.07875  1.0000
  H   H52       1.0  0.07114  0.49242  0.06171  1.0000
  C   C31       1.0  0.13195  0.43340  0.05524  1.0000
  H   H53       1.0  0.03803  0.45187  0.12919  1.0000
  C   C32       1.0  0.03660  0.35386  0.01764  1.0000
  H   H54       1.0  0.14520  0.47181  0.98857  1.0000
  C   C33       1.0  0.14536  0.47686  0.05893  1.0000
  C   C34       1.0  0.15126  0.42714  0.03316  1.0000
  S   S12       1.0  0.01723  0.41096  0.16160  1.0000
  C   C35       1.0  0.12601  0.42616  0.03299  1.0000
  H   H55       1.0  0.03372  0.43788  0.45287  1.0000
  H   H56       1.0  0.02607  0.37711  0.03043  1.0000
  H   H57       1.0  0.08668  0.36706  0.09974  1.0000
  H   H58       1.0  0.11626  0.42579  0.03341  1.0000
  C   C36       1.0  0.16032  0.48997  0.20695  1.0000
  H   H59       1.0  0.06097  0.46074  0.12040  1.0000
  H   H60       1.0  0.04015  0.41306  0.49516  1.0000
  H   H61       1.0  0.06540  0.43477  0.07160  1.0000
  C   C37       1.0  0.03275  0.40934  0.43033  1.0000
  H   H62       1.0  0.15463  0.45499  0.48638  1.0000
  H   H63       1.0  0.04940  0.43988  0.16956  1.0000
  H   H64       1.0  0.10711  0.37198  0.14498  1.0000
  N   N6        1.0  0.15513  0.48308  0.01997  1.0000
  H   H65       1.0  0.05002  0.48226  0.05619  1.0000
  H   H66       1.0  0.15053  0.41458  0.99403  1.0000
  H   H67       1.0  0.05566  0.36548  0.98714  1.0000
  H   H68       1.0  0.00541  0.39598  0.29631  1.0000
  H   H69       1.0  0.06327  0.50168  0.56532  1.0000
  H   H70       1.0  0.08685  0.38353  0.08175  1.0000
  H   H71       1.0  0.02122  0.40189  0.98469  1.0000
  C   C38       1.0  0.99764  0.39951  0.37031  1.0000
  C   C39       1.0  0.02328  0.38407  0.04708  1.0000
  C   C40       1.0  0.14261  0.48379  0.18045  1.0000
  H   H72       1.0  0.05523  0.48749  0.18805  1.0000
  H   H73       1.0  0.15663  0.48627  0.95641  1.0000
  C   C41       1.0  0.04484  0.39689  0.02765  1.0000
  Fe  Fe6       1.0  0.11382  0.49007  0.03585  1.0000
  C   C42       1.0  0.10527  0.46160  0.01547  1.0000
  N   N7        1.0  0.15347  0.49434  0.17728  1.0000
  H   H74       1.0  0.01188  0.42369  0.47701  1.0000
  S   S13       1.0  0.00361  0.44028  0.12864  1.0000
  C   C43       1.0  0.06315  0.48906  0.08808  1.0000
  H   H75       1.0  0.03432  0.47623  0.18353  1.0000
  S   S14       1.0  0.12536  0.40948  0.98372  1.0000
  C   C44       1.0  0.03101  0.40147  0.98569  1.0000
  S   S15       1.0  0.99665  0.36244  0.44927  1.0000
  H   H76       1.0  0.01399  0.42140  0.42723  1.0000
  H   H77       1.0  0.99949  0.37144  0.13110  1.0000
  H   H78       1.0  0.09499  0.48940  0.89091  1.0000
  C   C45       1.0  0.01079  0.45017  0.32620  1.0000
  C   C46       1.0  0.10751  0.45052  0.00557  1.0000
  H   H79       1.0  0.03179  0.41248  0.39915  1.0000
  C   C47       1.0  0.16013  0.49676  0.01706  1.0000
  H   H80       1.0  0.04683  0.43174  0.43330  1.0000
  H   H81       1.0  0.04567  0.39319  0.05877  1.0000
  C   C48       1.0  0.09902  0.49967  0.88082  1.0000
  S   S16       1.0  0.09766  0.49795  0.02375  1.0000
  C   C49       1.0  0.01535  0.41769  0.45755  1.0000
  H   H82       1.0  0.03577  0.43489  0.40448  1.0000
  S   S17       1.0  0.07909  0.50004  0.12820  1.0000
  C   C50       1.0  0.00608  0.40089  0.14697  1.0000
  C   C51       1.0  0.00166  0.44062  0.41062  1.0000
  H   H83       1.0  0.99762  0.37669  0.35614  1.0000
  C   C52       1.0  0.99577  0.43486  0.38532  1.0000
  H   H84       1.0  0.14177  0.48706  0.98658  1.0000
  H   H85       1.0  0.03535  0.35065  0.99155  1.0000
  H   H86       1.0  0.08446  0.46211  0.50289  1.0000
  C   C53       1.0  0.02761  0.40605  0.05061  1.0000
  S   S18       1.0  0.11681  0.47097  0.03075  1.0000
  H   H87       1.0  0.10025  0.43405  0.98704  1.0000
  Fe  Fe7       1.0  0.00816  0.42635  0.17643  1.0000
  C   C54       1.0  0.09840  0.44263  0.99413  1.0000
  Fe  Fe8       1.0  0.10599  0.40772  0.97042  1.0000
  H   H88       1.0  0.07619  0.45978  0.99897  1.0000
  H   H89       1.0  0.01747  0.40594  0.05344  1.0000
  H   H90       1.0  0.02692  0.39926  0.44421  1.0000
  Fe  Fe9       1.0  0.07157  0.41658  0.63876  1.0000
  S   S19       1.0  0.07460  0.41909  0.57257  1.0000
  Fe  Fe10      1.0  0.08267  0.39406  0.64979  1.0000
  S   S20       1.0  0.08676  0.39445  0.58326  1.0000
  S   S21       1.0  0.08876  0.38246  0.70051  1.0000
  Fe  Fe11      1.0  0.09379  0.41585  0.57161  1.0000
  Fe  Fe12      1.0  0.06705  0.39764  0.58805  1.0000
  S   S22       1.0  0.05352  0.39388  0.54863  1.0000
  S   S23       1.0  0.09123  0.41510  0.63662  1.0000
  S   S24       1.0  0.06256  0.39553  0.65539  1.0000
  C   C55       1.0  0.04210  0.42758  0.61534  1.0000
  H   H91       1.0  0.05122  0.42485  0.60954  1.0000
  N   N8        1.0  0.12410  0.41982  0.68703  1.0000
  Fe  Fe13      1.0  0.09164  0.40526  0.90537  1.0000
  C   C56       1.0  0.08705  0.44589  0.99203  1.0000
  S   S25       1.0  0.09347  0.41021  0.83765  1.0000
  H   H92       1.0  0.12485  0.43996  0.66834  1.0000
  H   H93       1.0  0.10476  0.47678  0.82117  1.0000
  C   C57       1.0  0.14185  0.42608  0.55664  1.0000
  S   S26       1.0  0.07283  0.40387  0.94780  1.0000
  H   H94       1.0  0.13994  0.41369  0.70239  1.0000
  C   C58       1.0  0.11940  0.40798  0.67600  1.0000
  C   C59       1.0  0.09797  0.44513  0.82400  1.0000
  C   C60       1.0  0.05994  0.49248  0.58788  1.0000
  H   H95       1.0  0.08908  0.47028  0.67573  1.0000
  H   H96       1.0  0.03962  0.40252  0.61712  1.0000
  H   H97       1.0  0.04274  0.40880  0.67783  1.0000
  C   C61       1.0  0.08811  0.38845  0.74355  1.0000
  C   C62       1.0  0.09458  0.38422  0.77180  1.0000
  C   C63       1.0  0.09530  0.38999  0.80354  1.0000
  C   C64       1.0  0.08956  0.40006  0.80719  1.0000
  C   C65       1.0  0.08270  0.40391  0.77982  1.0000
  C   C66       1.0  0.08187  0.39805  0.74849  1.0000
  H   H98       1.0  0.09938  0.37675  0.76837  1.0000
  H   H99       1.0  0.10084  0.38711  0.82383  1.0000
  H   H100      1.0  0.07835  0.41177  0.78198  1.0000
  H   H101      1.0  0.07657  0.40111  0.72762  1.0000
  C   C67       1.0  0.03577  0.38225  0.51596  1.0000
  C   C68       1.0  0.04111  0.38092  0.54882  1.0000
  H   H102      1.0  0.08170  0.44698  0.88993  1.0000
  C   C69       1.0  0.08418  0.43351  0.70038  1.0000
  H   H103      1.0  0.12074  0.39936  0.69623  1.0000
  H   H104      1.0  0.08290  0.42329  0.70654  1.0000
  H   H105      1.0  0.03969  0.39073  0.49079  1.0000
  H   H106      1.0  0.10146  0.44631  0.79092  1.0000
  C   C70       1.0  0.13498  0.44438  0.50325  1.0000
  C   C71       1.0  0.07551  0.43922  0.68499  1.0000
  H   H107      1.0  0.04320  0.43551  0.63017  1.0000
  S   S27       1.0  0.03301  0.45854  0.61173  1.0000
  C   C72       1.0  0.03382  0.41196  0.68076  1.0000
  C   C73       1.0  0.09446  0.44103  0.70823  1.0000
  H   H108      1.0  0.12689  0.43239  0.62791  1.0000
  H   H109      1.0  0.10099  0.43659  0.72100  1.0000
  C   C74       1.0  0.03085  0.40600  0.62086  1.0000
  H   H110      1.0  0.03472  0.41974  0.69622  1.0000
  S   S28       1.0  0.06387  0.43048  0.66849  1.0000
  H   H111      1.0  0.04583  0.48494  0.55978  1.0000
  H   H112      1.0  0.10908  0.40616  0.67879  1.0000
  H   H113      1.0  0.07693  0.47223  0.55727  1.0000
  C   C75       1.0  0.13783  0.42191  0.68263  1.0000
  C   C76       1.0  0.07692  0.45238  0.67863  1.0000
  H   H114      1.0  0.14166  0.43074  0.69094  1.0000
  S   S29       1.0  0.00390  0.40831  0.58023  1.0000
  S   S30       1.0  0.08825  0.48624  0.72471  1.0000
  H   H115      1.0  0.01994  0.42842  0.66136  1.0000
  C   C77       1.0  0.11736  0.41847  0.72943  1.0000
  N   N9        1.0  0.03161  0.41648  0.64084  1.0000
  H   H116      1.0  0.12218  0.41550  0.57350  1.0000
  S   S31       1.0  0.10207  0.42208  0.92178  1.0000
  H   H117      1.0  0.14320  0.42305  0.65085  1.0000
  H   H118      1.0  0.01791  0.42416  0.61671  1.0000
  C   C78       1.0  0.05001  0.48299  0.58463  1.0000
  H   H119      1.0  0.12050  0.42723  0.73905  1.0000
  H   H120      1.0  0.09933  0.47984  0.51362  1.0000
  H   H121      1.0  0.04047  0.43156  0.58560  1.0000
  C   C79       1.0  0.06092  0.47831  0.64922  1.0000
  C   C80       1.0  0.02096  0.36116  0.54617  1.0000
  Fe  Fe14      1.0  0.00519  0.42941  0.56425  1.0000
  C   C81       1.0  0.02566  0.37258  0.51484  1.0000
  S   S32       1.0  0.00885  0.46597  0.53483  1.0000
  C   C82       1.0  0.12921  0.42415  0.55480  1.0000
  C   C83       1.0  0.01966  0.42051  0.64635  1.0000
  C   C84       1.0  0.15109  0.43718  0.53199  1.0000
  H   H122      1.0  0.14451  0.41886  0.57695  1.0000
  H   H123      1.0  0.02274  0.39763  0.63847  1.0000
  H   H124      1.0  0.11153  0.42951  0.66194  1.0000
  C   C85       1.0  0.12176  0.43091  0.66010  1.0000
  H   H125      1.0  0.13582  0.48068  0.21115  1.0000
  H   H126      1.0  0.08818  0.46374  0.88363  1.0000
  H   H127      1.0  0.02951  0.40918  0.59022  1.0000
  H   H128      1.0  0.11883  0.41018  0.75076  1.0000
  S   S33       1.0  0.10980  0.46386  0.70542  1.0000
  H   H129      1.0  0.10699  0.41679  0.73361  1.0000
  S   S34       1.0  0.00069  0.43993  0.61061  1.0000
  H   H130      1.0  0.07628  0.45249  0.82511  1.0000
  H   H131      1.0  0.12427  0.40853  0.64432  1.0000
  C   C86       1.0  0.02643  0.35973  0.57878  1.0000
  H   H132      1.0  0.02598  0.40370  0.70091  1.0000
  H   H133      1.0  0.07014  0.45674  0.66723  1.0000
  Fe  Fe15      1.0  0.10732  0.48385  0.69684  1.0000
  C   C87       1.0  0.10187  0.47249  0.53539  1.0000
  H   H134      1.0  0.00914  0.40780  0.47076  1.0000
  C   C88       1.0  0.08755  0.46001  0.68428  1.0000
  C   C89       1.0  0.08525  0.46020  0.81279  1.0000
  H   H135      1.0  0.00721  0.39765  0.36426  1.0000
  H   H136      1.0  0.02175  0.37375  0.48923  1.0000
  C   C90       1.0  0.09044  0.45497  0.87638  1.0000
  N   N10       1.0  0.09508  0.45698  0.83224  1.0000
  H   H137      1.0  0.01139  0.41239  0.66460  1.0000
  H   H138      1.0  0.11429  0.46561  0.82965  1.0000
  C   C91       1.0  0.09635  0.45434  0.69910  1.0000
  C   C92       1.0  0.09478  0.45189  0.58509  1.0000
  H   H139      1.0  0.11038  0.46949  0.78237  1.0000
  C   C93       1.0  0.12573  0.43329  0.52800  1.0000
  Fe  Fe16      1.0  0.01888  0.45484  0.57434  1.0000
  C   C94       1.0  0.05104  0.46882  0.64592  1.0000
  N   N11       1.0  0.09097  0.46127  0.55623  1.0000
  S   S35       1.0  0.09692  0.39076  0.95089  1.0000
  H   H140      1.0  0.04036  0.36828  0.60576  1.0000
  C   C95       1.0  0.10665  0.46767  0.81566  1.0000
  H   H141      1.0  0.04761  0.45968  0.66880  1.0000
  H   H142      1.0  0.02408  0.40349  0.51174  1.0000
  C   C96       1.0  0.03635  0.36956  0.58036  1.0000
  H   H143      1.0  0.08309  0.46931  0.81736  1.0000
  H   H144      1.0  0.10279  0.44856  0.56953  1.0000
  H   H145      1.0  0.08836  0.46146  0.77958  1.0000
  H   H146      1.0  0.09783  0.45607  0.60841  1.0000
  H   H147      1.0  0.15728  0.50130  0.11280  1.0000
  H   H148      1.0  0.99888  0.41010  0.36132  1.0000
  H   H149      1.0  0.08945  0.43686  0.83606  1.0000
  C   C97       1.0  0.04545  0.47107  0.61379  1.0000
  C   C98       1.0  0.08037  0.46549  0.57818  1.0000
  S   S36       1.0  0.11003  0.43104  0.52402  1.0000
  H   H150      1.0  0.09760  0.45247  0.89217  1.0000
  H   H151      1.0  0.10536  0.44237  0.83814  1.0000
  C   C99       1.0  0.14761  0.44638  0.50540  1.0000
  H   H152      1.0  0.06487  0.47648  0.67464  1.0000
  H   H153      1.0  0.07840  0.44702  0.54095  1.0000
  H   H154      1.0  0.08322  0.47056  0.60008  1.0000
  Fe  Fe17      1.0  0.08364  0.41949  0.96705  1.0000
  H   H155      1.0  0.09449  0.45132  0.51042  1.0000
  H   H156      1.0  0.09201  0.47327  0.02147  1.0000
  C   C100      1.0  0.08485  0.45710  0.00122  1.0000
  S   S37       1.0  0.07553  0.43574  0.97896  1.0000
  C   C101      1.0  0.08692  0.45519  0.52620  1.0000
  S   S38       1.0  0.02384  0.44329  0.53071  1.0000
  H   H157      1.0  0.10522  0.47718  0.55742  1.0000
  H   H158      1.0  0.07213  0.45720  0.59561  1.0000
  C   C102      1.0  0.06547  0.49022  0.62019  1.0000
  S   S39       1.0  0.10935  0.49698  0.63662  1.0000
  H   H159      1.0  0.08684  0.44323  0.60106  1.0000
  S   S40       1.0  0.00886  0.34819  0.54482  1.0000
  H   H160      1.0  0.14112  0.46660  0.06151  1.0000
  H   H161      1.0  0.10999  0.46962  0.51830  1.0000
  H   H162      1.0  0.02298  0.35091  0.60303  1.0000
  H   H163      1.0  0.15438  0.41259  0.43152  1.0000
  H   H164      1.0  0.14577  0.47524  0.17457  1.0000
  H   H165      1.0  0.16097  0.42739  0.03311  1.0000
  C   C103      1.0  0.00738  0.38870  0.14480  1.0000
  H   H166      1.0  0.03740  0.41120  0.96994  1.0000
  Fe  Fe18      1.0  0.09938  0.50201  0.74348  1.0000
  C   C104      1.0  0.00020  0.43969  0.34302  1.0000
  C   C105      1.0  0.99596  0.39806  0.30426  1.0000
  H   H167      1.0  0.99741  0.40866  0.29370  1.0000
  H   H168      1.0  0.10301  0.50055  0.93738  1.0000
  H   H169      1.0  0.99586  0.35620  0.27860  1.0000
  C   C106      1.0  0.99839  0.38075  0.13293  1.0000
  C   C107      1.0  0.99685  0.38973  0.54404  1.0000
  H   H170      1.0  0.15249  0.50192  0.01925  1.0000
  C   C108      1.0  0.99591  0.40512  0.13683  1.0000
  S   S41       1.0  0.11145  0.52358  0.04725  1.0000
  Fe  Fe19      1.0  0.12686  0.51365  0.05740  1.0000
  N   N12       1.0  0.07370  0.52322  0.98961  1.0000
  Fe  Fe20      1.0  0.11247  0.51627  0.99171  1.0000
  H   H171      1.0  0.08485  0.53138  0.57895  1.0000
  S   S42       1.0  0.10004  0.51689  0.68682  1.0000
  C   C109      1.0  0.10811  0.51937  0.89559  1.0000
  Fe  Fe21      1.0  0.11857  0.51265  0.66020  1.0000
  H   H172      1.0  0.11242  0.53657  0.84668  1.0000
  C   C110      1.0  0.10475  0.51982  0.82901  1.0000
  C   C111      1.0  0.10808  0.52735  0.56659  1.0000
  C   C112      1.0  0.11316  0.54655  0.58804  1.0000
  S   S43       1.0  0.11196  0.52779  0.93052  1.0000
  H   H173      1.0  0.10183  0.52167  0.55271  1.0000
  H   H174      1.0  0.10510  0.52523  0.79903  1.0000
  N   N13       1.0  0.10476  0.53956  0.56860  1.0000
  H   H175      1.0  0.12332  0.54861  0.57103  1.0000
  H   H176      1.0  0.11098  0.55583  0.59017  1.0000
  C   C113      1.0  0.10639  0.54746  0.52721  1.0000
  H   H177      1.0  0.10020  0.54243  0.51171  1.0000
  C   C114      1.0  0.10884  0.52623  0.85614  1.0000
  H   H178      1.0  0.08852  0.54577  0.59482  1.0000
  H   H179      1.0  0.11225  0.54082  0.61923  1.0000
  C   C115      1.0  0.09143  0.53681  0.59251  1.0000
  H   H180      1.0  0.11811  0.52897  0.54914  1.0000
  H   H181      1.0  0.10698  0.52126  0.59731  1.0000
  H   H182      1.0  0.08983  0.53076  0.62384  1.0000
  S   S44       1.0  0.13458  0.52775  0.61093  1.0000
  H   H183      1.0  0.13773  0.53848  0.10618  1.0000
  H   H184      1.0  0.10397  0.55677  0.52757  1.0000
  H   H185      1.0  0.11636  0.54966  0.50841  1.0000
  C   C116      1.0  0.08158  0.52422  0.01793  1.0000
  H   H186      1.0  0.08079  0.53245  0.03091  1.0000
  S   S45       1.0  0.12874  0.50787  0.99929  1.0000
  H   H187      1.0  0.09176  0.52568  0.00245  1.0000
  C   C117      1.0  0.06029  0.52136  0.01129  1.0000
  H   H188      1.0  0.05889  0.52955  0.02385  1.0000
  H   H189      1.0  0.05404  0.52040  0.99098  1.0000
  C   C118      1.0  0.07796  0.53513  0.95592  1.0000
  H   H190      1.0  0.08805  0.53666  0.93889  1.0000
  H   H191      1.0  0.07724  0.54371  0.96707  1.0000
  H   H192      1.0  0.07224  0.53477  0.93387  1.0000
  H   H193      1.0  0.07875  0.51543  0.04380  1.0000
  C   C119      1.0  0.09959  0.50653  0.84158  1.0000
  C   C120      1.0  0.07507  0.51219  0.97312  1.0000
  C   C121      1.0  0.10349  0.50601  0.90739  1.0000
  H   H194      1.0  0.08515  0.51305  0.95817  1.0000
  H   H195      1.0  0.05690  0.51250  0.03720  1.0000
  H   H196      1.0  0.06976  0.51152  0.95012  1.0000
  Fe  Fe22      1.0  0.09765  0.50423  0.07980  1.0000
  C   C122      1.0  0.15357  0.53037  0.09140  1.0000
  H   H197      1.0  0.14358  0.50893  0.16347  1.0000
  H   H198      1.0  0.14884  0.55419  0.13590  1.0000
  H   H199      1.0  0.15686  0.51376  0.18210  1.0000
  H   H200      1.0  0.14397  0.53055  0.68101  1.0000
  C   C123      1.0  0.14887  0.50549  0.18526  1.0000
  C   C124      1.0  0.15860  0.54359  0.58066  1.0000
  C   C125      1.0  0.15369  0.54766  0.12410  1.0000
  S   S46       1.0  0.14599  0.51845  0.07162  1.0000
  C   C126      1.0  0.15126  0.53603  0.65360  1.0000
  H   H201      1.0  0.15697  0.54395  0.55135  1.0000
  C   C127      1.0  0.14904  0.53631  0.61591  1.0000
  C   C128      1.0  0.14738  0.53879  0.10709  1.0000
  H   H202      1.0  0.07155  0.50296  0.99718  1.0000
  H   H203      1.0  0.14242  0.50308  0.21627  1.0000
  S   S47       1.0  0.18872  0.46236  0.05233  1.0000
  H   H204      1.0  0.20577  0.50013  0.36803  1.0000
  C   C129      1.0  0.16213  0.49817  0.13610  1.0000
  H   H205      1.0  0.31999  0.49385  0.09102  1.0000
  H   H206      1.0  0.16463  0.49791  0.04169  1.0000
  H   H207      1.0  0.18342  0.46426  0.35771  1.0000
  H   H208      1.0  0.19551  0.49719  0.19954  1.0000
  H   H209      1.0  0.24116  0.47972  0.12629  1.0000
  H   H210      1.0  0.29326  0.48646  0.50389  1.0000
  C   C130      1.0  0.24167  0.49642  0.17080  1.0000
  S   S48       1.0  0.17302  0.45607  0.23601  1.0000
  H   H211      1.0  0.27563  0.48252  0.91687  1.0000
  C   C131      1.0  0.17900  0.46076  0.30375  1.0000
  S   S49       1.0  0.18080  0.43999  0.14009  1.0000
  H   H212      1.0  0.18970  0.42339  0.39615  1.0000
  H   H213      1.0  0.17871  0.42710  0.47673  1.0000
  Fe  Fe23      1.0  0.17065  0.44961  0.09772  1.0000
  H   H214      1.0  0.16542  0.44205  0.39567  1.0000
  S   S50       1.0  0.18507  0.46940  0.43759  1.0000
  C   C132      1.0  0.18342  0.45815  0.26660  1.0000
  H   H215      1.0  0.31619  0.49730  0.19511  1.0000
  C   C133      1.0  0.23250  0.47782  0.15166  1.0000
  S   S51       1.0  0.18991  0.49737  0.06577  1.0000
  C   C134      1.0  0.18692  0.46219  0.32933  1.0000
  H   H216      1.0  0.22441  0.47279  0.14268  1.0000
  H   H217      1.0  0.26966  0.46425  0.53932  1.0000
  Fe  Fe24      1.0  0.17998  0.45595  0.17040  1.0000
  Fe  Fe25      1.0  0.18705  0.47620  0.08986  1.0000
  H   H218      1.0  0.18692  0.48763  0.15105  1.0000
  S   S52       1.0  0.16858  0.46444  0.13190  1.0000
  H   H219      1.0  0.17086  0.44405  0.43879  1.0000
  H   H220      1.0  0.16323  0.42086  0.38008  1.0000
  H   H221      1.0  0.29279  0.46417  0.60071  1.0000
  H   H222      1.0  0.30396  0.46946  0.48978  1.0000
  H   H223      1.0  0.16998  0.47724  0.04268  1.0000
  H   H224      1.0  0.23362  0.47100  0.17825  1.0000
  C   C135      1.0  0.19583  0.45695  0.25524  1.0000
  Fe  Fe26      1.0  0.28071  0.50086  0.60719  1.0000
  C   C136      1.0  0.27292  0.49071  0.92708  1.0000
  Fe  Fe27      1.0  0.18389  0.45525  0.49584  1.0000
  S   S53       1.0  0.29817  0.49067  0.97069  1.0000
  H   H225      1.0  0.24839  0.47988  0.96602  1.0000
  S   S54       1.0  0.19430  0.46984  0.52078  1.0000
  H   H226      1.0  0.18440  0.43532  0.36538  1.0000
  S   S55       1.0  0.21810  0.45008  0.07690  1.0000
  H   H227      1.0  0.24479  0.45160  0.06470  1.0000
  S   S56       1.0  0.20937  0.46189  0.35019  1.0000
  C   C137      1.0  0.24368  0.46131  0.05845  1.0000
  H   H228      1.0  0.21315  0.45690  0.27259  1.0000
  S   S57       1.0  0.21560  0.47999  0.43093  1.0000
  Fe  Fe28      1.0  0.19877  0.45392  0.09643  1.0000
  C   C138      1.0  0.23151  0.46334  0.06174  1.0000
  H   H229      1.0  0.24232  0.48437  0.92339  1.0000
  H   H230      1.0  0.26366  0.47006  0.04704  1.0000
  C   C139      1.0  0.23020  0.47592  0.05324  1.0000
  C   C140      1.0  0.25440  0.47176  0.04827  1.0000
  H   H231      1.0  0.22093  0.47764  0.05471  1.0000
  S   S58       1.0  0.19842  0.46885  0.13017  1.0000
  H   H232      1.0  0.22028  0.49366  0.11617  1.0000
  H   H233      1.0  0.16601  0.49014  0.12908  1.0000
  S   S59       1.0  0.26569  0.49779  0.03256  1.0000
  C   C141      1.0  0.19926  0.46080  0.31823  1.0000
  C   C142      1.0  0.25085  0.48247  0.93237  1.0000
  H   H234      1.0  0.16307  0.41706  0.48846  1.0000
  H   H235      1.0  0.25275  0.47385  0.92313  1.0000
  Fe  Fe29      1.0  0.20338  0.46477  0.41294  1.0000
  S   S60       1.0  0.28342  0.48918  0.75472  1.0000
  C   C143      1.0  0.24088  0.48632  0.04283  1.0000
  H   H236      1.0  0.30868  0.46816  0.53562  1.0000
  C   C144      1.0  0.25297  0.48430  0.04118  1.0000
  H   H237      1.0  0.19051  0.43877  0.40582  1.0000
  H   H238      1.0  0.32426  0.48362  0.12988  1.0000
  C   C145      1.0  0.20367  0.45816  0.28114  1.0000
  H   H239      1.0  0.21054  0.48178  0.18926  1.0000
  Fe  Fe30      1.0  0.30567  0.49377  0.61015  1.0000
  S   S61       1.0  0.20158  0.44963  0.46973  1.0000
  C   C146      1.0  0.31985  0.49180  0.12349  1.0000
  H   H240      1.0  0.29855  0.48518  0.54869  1.0000
  C   C147      1.0  0.16555  0.47662  0.01764  1.0000
  S   S62       1.0  0.32299  0.48015  0.03165  1.0000
  C   C148      1.0  0.29119  0.49716  0.78428  1.0000
  C   C149      1.0  0.19264  0.49740  0.14100  1.0000
  Fe  Fe31      1.0  0.19711  0.48342  0.46001  1.0000
  H   H241      1.0  0.25035  0.49884  0.14503  1.0000
  H   H242      1.0  0.19927  0.45477  0.22695  1.0000
  Fe  Fe32      1.0  0.21220  0.46539  0.49035  1.0000
  H   H243      1.0  0.19845  0.49791  0.32869  1.0000
  H   H244      1.0  0.30974  0.48855  0.14144  1.0000
  H   H245      1.0  0.21202  0.49600  0.49831  1.0000
  C   C150      1.0  0.16569  0.43693  0.42631  1.0000
  H   H246      1.0  0.24318  0.45835  0.57637  1.0000
  C   C151      1.0  0.25487  0.49053  0.56019  1.0000
  H   H247      1.0  0.27640  0.46269  0.60264  1.0000
  S   S63       1.0  0.31784  0.48085  0.59110  1.0000
  H   H248      1.0  0.27089  0.48811  0.96062  1.0000
  H   H249      1.0  0.27709  0.45185  0.52920  1.0000
  C   C152      1.0  0.23753  0.47290  0.53773  1.0000
  S   S64       1.0  0.22716  0.46149  0.52333  1.0000
  H   H250      1.0  0.28958  0.47965  0.82894  1.0000
  C   C153      1.0  0.24786  0.49486  0.53376  1.0000
  C   C154      1.0  0.28528  0.46078  0.58653  1.0000
  C   C155      1.0  0.24452  0.46856  0.56425  1.0000
  N   N14       1.0  0.28891  0.46725  0.54270  1.0000
  C   C156      1.0  0.29276  0.49002  0.82033  1.0000
  H   H251      1.0  0.29985  0.45415  0.52693  1.0000
  C   C157      1.0  0.17255  0.42022  0.46591  1.0000
  H   H252      1.0  0.17314  0.48106  0.98875  1.0000
  H   H253      1.0  0.28204  0.48361  0.55195  1.0000
  H   H254      1.0  0.28117  0.46713  0.49201  1.0000
  H   H255      1.0  0.16941  0.46170  0.31273  1.0000
  C   C158      1.0  0.27878  0.46239  0.52502  1.0000
  H   H256      1.0  0.24343  0.49030  0.19759  1.0000
  H   H257      1.0  0.17657  0.41174  0.46657  1.0000
  S   S65       1.0  0.28541  0.48431  0.64586  1.0000
  H   H258      1.0  0.30007  0.49060  0.87207  1.0000
  H   H259      1.0  0.23398  0.48962  0.50213  1.0000
  C   C159      1.0  0.29075  0.48123  0.53652  1.0000
  C   C160      1.0  0.23922  0.48613  0.52268  1.0000
  C   C161      1.0  0.25308  0.47731  0.57565  1.0000
  Fe  Fe33      1.0  0.31300  0.49451  0.00424  1.0000
  H   H260      1.0  0.28375  0.45019  0.59246  1.0000
  C   C162      1.0  0.30085  0.46462  0.52282  1.0000
  H   H261      1.0  0.25816  0.47381  0.59670  1.0000
  Fe  Fe34      1.0  0.28706  0.50044  0.01045  1.0000
  Fe  Fe35      1.0  0.28915  0.49711  0.68619  1.0000
  S   S66       1.0  0.16689  0.43891  0.53484  1.0000
  H   H262      1.0  0.26697  0.48840  0.85839  1.0000
  H   H263      1.0  0.23972  0.49601  0.03627  1.0000
  N   N15       1.0  0.17176  0.42620  0.42496  1.0000
  H   H264      1.0  0.22036  0.48045  0.22318  1.0000
  C   C163      1.0  0.21918  0.48679  0.19570  1.0000
  N   N16       1.0  0.23045  0.48983  0.16086  1.0000
  C   C164      1.0  0.22850  0.49836  0.12530  1.0000
  H   H265      1.0  0.16391  0.48155  0.20173  1.0000
  C   C165      1.0  0.29860  0.49620  0.84496  1.0000
  C   C166      1.0  0.18464  0.43111  0.39688  1.0000
  H   H266      1.0  0.18852  0.49966  0.61426  1.0000
  H   H267      1.0  0.16850  0.40840  0.40886  1.0000
  H   H268      1.0  0.16743  0.50179  0.98786  1.0000
  H   H269      1.0  0.21736  0.49565  0.20339  1.0000
  H   H270      1.0  0.28133  0.49911  0.91473  1.0000
  C   C167      1.0  0.16413  0.41657  0.41074  1.0000
  H   H271      1.0  0.16865  0.49770  0.20496  1.0000
  N   N17       1.0  0.26190  0.49368  0.91397  1.0000
  C   C168      1.0  0.32613  0.50029  0.17572  1.0000
  C   C169      1.0  0.26488  0.49670  0.86938  1.0000
  H   H272      1.0  0.23700  0.50117  0.09887  1.0000
  H   H273      1.0  0.25687  0.49919  0.85826  1.0000
  C   C170      1.0  0.19742  0.50285  0.16860  1.0000
  H   H274      1.0  0.18058  0.49828  0.57556  1.0000
  S   S67       1.0  0.30091  0.50244  0.04768  1.0000
  S   S68       1.0  0.26569  0.50208  0.57268  1.0000
  H   H275      1.0  0.16211  0.46626  0.01983  1.0000
  H   H276      1.0  0.18468  0.58568  0.01776  1.0000
  H   H277      1.0  0.31568  0.52112  0.70804  1.0000
  C   C171      1.0  0.18690  0.58721  0.04588  1.0000
  H   H278      1.0  0.19755  0.54787  0.39093  1.0000
  H   H279      1.0  0.19347  0.56529  0.07127  1.0000
  H   H280      1.0  0.19851  0.57067  0.01714  1.0000
  H   H281      1.0  0.25074  0.50745  0.91779  1.0000
  H   H282      1.0  0.18992  0.52340  0.31801  1.0000
  H   H283      1.0  0.19675  0.50720  0.56212  1.0000
  S   S69       1.0  0.17381  0.55956  0.14725  1.0000
  C   C172      1.0  0.17233  0.53957  0.11079  1.0000
  H   H284      1.0  0.32269  0.66120  0.77606  1.0000
  Fe  Fe36      1.0  0.19178  0.55880  0.16739  1.0000
  H   H285      1.0  0.17116  0.52474  0.07989  1.0000
  H   H286      1.0  0.22668  0.50739  0.13156  1.0000
  H   H287      1.0  0.18195  0.53980  0.11190  1.0000
  H   H288      1.0  0.17874  0.53213  0.54951  1.0000
  Fe  Fe37      1.0  0.29652  0.63581  0.65308  1.0000
  S   S70       1.0  0.19164  0.54367  0.22121  1.0000
  H   H289      1.0  0.16790  0.52207  0.62232  1.0000
  H   H290      1.0  0.17177  0.50829  0.64916  1.0000
  S   S71       1.0  0.19910  0.55443  0.30689  1.0000
  Fe  Fe38      1.0  0.32225  0.63527  0.02934  1.0000
  C   C173      1.0  0.20049  0.57269  0.04501  1.0000
  H   H291      1.0  0.20783  0.59389  0.98263  1.0000
  H   H292      1.0  0.31740  0.59155  0.58750  1.0000
  C   C174      1.0  0.29279  0.59114  0.61722  1.0000
  H   H293      1.0  0.24043  0.50556  0.17769  1.0000
  C   C175      1.0  0.17258  0.55015  0.62054  1.0000
  C   C176      1.0  0.19297  0.52539  0.59910  1.0000
  Fe  Fe39      1.0  0.31867  0.66009  0.63287  1.0000
  H   H294      1.0  0.31674  0.61639  0.60963  1.0000
  S   S72       1.0  0.30081  0.50948  0.56864  1.0000
  H   H295      1.0  0.16455  0.54281  0.68512  1.0000
  N   N18       1.0  0.18336  0.51673  0.58787  1.0000
  C   C177      1.0  0.17033  0.55041  0.58292  1.0000
  S   S73       1.0  0.18726  0.55851  0.62464  1.0000
  H   H296      1.0  0.17757  0.55601  0.55552  1.0000
  Fe  Fe40      1.0  0.30790  0.51061  0.93042  1.0000
  C   C178      1.0  0.32329  0.53017  0.69703  1.0000
  H   H297      1.0  0.29261  0.60245  0.67755  1.0000
  H   H298      1.0  0.19697  0.51679  0.27866  1.0000
  H   H299      1.0  0.24911  0.50504  0.52151  1.0000
  H   H300      1.0  0.26722  0.51347  0.91406  1.0000
  H   H301      1.0  0.20372  0.52313  0.05794  1.0000
  H   H302      1.0  0.23982  0.59766  0.16374  1.0000
  H   H303      1.0  0.21235  0.53276  0.10668  1.0000
  C   C179      1.0  0.22808  0.61681  0.44000  1.0000
  C   C180      1.0  0.24542  0.60683  0.44069  1.0000
  H   H304      1.0  0.30030  0.61242  0.15026  1.0000
  S   S74       1.0  0.20247  0.57474  0.18740  1.0000
  H   H305      1.0  0.31083  0.62758  0.92456  1.0000
  H   H306      1.0  0.22205  0.59325  0.33335  1.0000
  H   H307      1.0  0.21164  0.58659  0.08688  1.0000
  C   C181      1.0  0.20886  0.52589  0.45921  1.0000
  S   S75       1.0  0.20923  0.55618  0.12829  1.0000
  H   H308      1.0  0.30632  0.61327  0.07768  1.0000
  C   C182      1.0  0.21254  0.57630  0.32036  1.0000
  N   N19       1.0  0.19971  0.58579  0.04677  1.0000
  C   C183      1.0  0.19906  0.52277  0.29919  1.0000
  Fe  Fe41      1.0  0.21863  0.57590  0.48282  1.0000
  Fe  Fe42      1.0  0.31096  0.52144  0.00264  1.0000
  C   C184      1.0  0.26661  0.61993  0.10102  1.0000
  H   H309      1.0  0.27609  0.58273  0.15999  1.0000
  C   C185      1.0  0.20550  0.56351  0.33656  1.0000
  C   C186      1.0  0.25773  0.60517  0.06635  1.0000
  S   S76       1.0  0.22225  0.55648  0.20342  1.0000
  H   H310      1.0  0.21815  0.54310  0.47075  1.0000
  N   N20       1.0  0.29232  0.59807  0.12397  1.0000
  H   H311      1.0  0.31124  0.58102  0.63805  1.0000
  H   H312      1.0  0.23900  0.59807  0.46333  1.0000
  H   H313      1.0  0.24563  0.60530  0.41036  1.0000
  H   H314      1.0  0.30278  0.58465  0.10790  1.0000
  C   C187      1.0  0.17111  0.51335  0.61898  1.0000
  S   S77       1.0  0.30971  0.50529  0.65304  1.0000
  H   H315      1.0  0.29846  0.58359  0.16103  1.0000
  C   C188      1.0  0.19511  0.50460  0.10085  1.0000
  Fe  Fe43      1.0  0.29776  0.64268  0.05839  1.0000
  H   H316      1.0  0.25399  0.60510  0.66644  1.0000
  C   C189      1.0  0.24072  0.61975  0.48631  1.0000
  H   H317      1.0  0.25809  0.60215  0.03901  1.0000
  C   C190      1.0  0.21667  0.53282  0.47735  1.0000
  C   C191      1.0  0.16295  0.54300  0.65584  1.0000
  C   C192      1.0  0.24742  0.60261  0.13655  1.0000
  H   H318      1.0  0.21380  0.53583  0.33492  1.0000
  C   C193      1.0  0.25672  0.61329  0.13618  1.0000
  H   H319      1.0  0.25622  0.61647  0.16330  1.0000
  C   C194      1.0  0.24965  0.62978  0.41462  1.0000
  S   S78       1.0  0.23682  0.57166  0.49079  1.0000
  H   H320      1.0  0.23737  0.62828  0.49120  1.0000
  C   C195      1.0  0.29685  0.60685  0.08266  1.0000
  H   H321      1.0  0.18589  0.59692  0.04769  1.0000
  H   H322      1.0  0.28418  0.61154  0.14994  1.0000
  H   H323      1.0  0.20890  0.60528  0.01199  1.0000
  H   H324      1.0  0.17949  0.58007  0.07193  1.0000
  H   H325      1.0  0.21439  0.58088  0.28845  1.0000
  Fe  Fe44      1.0  0.32362  0.66017  0.05571  1.0000
  C   C196      1.0  0.25901  0.50488  0.92709  1.0000
  H   H326      1.0  0.23436  0.61118  0.51030  1.0000
  H   H327      1.0  0.25005  0.62895  0.38345  1.0000
  S   S79       1.0  0.27819  0.63318  0.10252  1.0000
  C   C197      1.0  0.31675  0.62060  0.92852  1.0000
  S   S80       1.0  0.30605  0.63706  0.00279  1.0000
  C   C198      1.0  0.20308  0.55771  0.37810  1.0000
  S   S81       1.0  0.23616  0.58545  0.09957  1.0000
  S   S82       1.0  0.31337  0.63943  0.08659  1.0000
  H   H328      1.0  0.29768  0.60152  0.05923  1.0000
  C   C199      1.0  0.26710  0.61577  0.06609  1.0000
  C   C200      1.0  0.20188  0.51749  0.08887  1.0000
  H   H329      1.0  0.20197  0.59781  0.08659  1.0000
  N   N21       1.0  0.20682  0.51761  0.32444  1.0000
  S   S83       1.0  0.29852  0.65403  0.67325  1.0000
  C   C201      1.0  0.21434  0.57748  0.38752  1.0000
  Fe  Fe45      1.0  0.20982  0.54209  0.18371  1.0000
  H   H330      1.0  0.20407  0.53264  0.27983  1.0000
  H   H331      1.0  0.19497  0.58114  0.11158  1.0000
  H   H332      1.0  0.31105  0.59662  0.12645  1.0000
  N   N22       1.0  0.24096  0.61831  0.44541  1.0000
  H   H333      1.0  0.28778  0.59938  0.18532  1.0000
  C   C202      1.0  0.30154  0.59037  0.13019  1.0000
  C   C203      1.0  0.29111  0.60566  0.15373  1.0000
  H   H334      1.0  0.27272  0.59504  0.12452  1.0000
  Fe  Fe46      1.0  0.20393  0.55904  0.23836  1.0000
  C   C204      1.0  0.25894  0.60673  0.63498  1.0000
  C   C205      1.0  0.20687  0.51256  0.46764  1.0000
  H   H335      1.0  0.24657  0.63864  0.41728  1.0000
  S   S84       1.0  0.21944  0.58659  0.41919  1.0000
  S   S85       1.0  0.31687  0.53855  0.02658  1.0000
  S   S86       1.0  0.21161  0.52188  0.18995  1.0000
  H   H336      1.0  0.20407  0.53084  0.43964  1.0000
  H   H337      1.0  0.29037  0.61310  0.07721  1.0000
  H   H338      1.0  0.31069  0.51159  0.14086  1.0000
  H   H339      1.0  0.25028  0.62076  0.49155  1.0000
  C   C206      1.0  0.27985  0.58948  0.12909  1.0000
  H   H340      1.0  0.25945  0.63114  0.41787  1.0000
  Fe  Fe47      1.0  0.22015  0.57112  0.15111  1.0000
  H   H341      1.0  0.28036  0.58368  0.10690  1.0000
  C   C207      1.0  0.20461  0.51558  0.15625  1.0000
  S   S87       1.0  0.31085  0.51781  0.86234  1.0000
  H   H342      1.0  0.27455  0.62086  0.03868  1.0000
  H   H343      1.0  0.25502  0.60743  0.44523  1.0000
  C   C208      1.0  0.20757  0.56461  0.40340  1.0000
  C   C209      1.0  0.24782  0.59855  0.10149  1.0000
  C   C210      1.0  0.21684  0.58329  0.34588  1.0000
  C   C211      1.0  0.20928  0.59529  0.01176  1.0000
  H   H344      1.0  0.20236  0.52809  0.57632  1.0000
  H   H345      1.0  0.22550  0.50821  0.53132  1.0000
  C   C212      1.0  0.16613  0.53095  0.09289  1.0000
  C   C213      1.0  0.20667  0.52297  0.11655  1.0000
  H   H346      1.0  0.20552  0.56003  0.43534  1.0000
  H   H347      1.0  0.30083  0.61647  0.60827  1.0000
  C   C214      1.0  0.20219  0.58793  0.08455  1.0000
  S   S88       1.0  0.30719  0.66394  0.03136  1.0000
  H   H348      1.0  0.21005  0.57129  0.04542  1.0000
  C   C215      1.0  0.26840  0.53250  0.58828  1.0000
  C   C216      1.0  0.18194  0.52326  0.54836  1.0000
  S   S89       1.0  0.31588  0.64268  0.60872  1.0000
  Fe  Fe48      1.0  0.30301  0.52020  0.61474  1.0000
  S   S90       1.0  0.28263  0.51289  0.65081  1.0000
  S   S91       1.0  0.31177  0.54148  0.59748  1.0000
  H   H349      1.0  0.28348  0.54684  0.51559  1.0000
  S   S92       1.0  0.25242  0.59467  0.53743  1.0000
  H   H350      1.0  0.19024  0.53445  0.60130  1.0000
  C   C217      1.0  0.20892  0.52567  0.35196  1.0000
  H   H351      1.0  0.28932  0.58089  0.63508  1.0000
  H   H352      1.0  0.27631  0.52840  0.57619  1.0000
  H   H353      1.0  0.21905  0.59451  0.01215  1.0000
  H   H354      1.0  0.29507  0.59150  0.58455  1.0000
  C   C218      1.0  0.32063  0.51388  0.12199  1.0000
  C   C219      1.0  0.27731  0.61728  0.57820  1.0000
  S   S93       1.0  0.30365  0.62610  0.70323  1.0000
  H   H355      1.0  0.29901  0.64795  0.92167  1.0000
  Fe  Fe49      1.0  0.31663  0.65781  0.97728  1.0000
  H   H356      1.0  0.25118  0.55149  0.54816  1.0000
  C   C220      1.0  0.30593  0.64908  0.82119  1.0000
  S   S94       1.0  0.32708  0.65163  0.68176  1.0000
  H   H357      1.0  0.25715  0.53719  0.50559  1.0000
  H   H358      1.0  0.32400  0.63666  0.85376  1.0000
  H   H359      1.0  0.30847  0.60233  0.67981  1.0000
  S   S95       1.0  0.22317  0.56074  0.58734  1.0000
  S   S96       1.0  0.32362  0.51370  0.96062  1.0000
  C   C221      1.0  0.30109  0.51672  0.79810  1.0000
  H   H360      1.0  0.19426  0.52084  0.62888  1.0000
  C   C222      1.0  0.30280  0.50959  0.83387  1.0000
  H   H361      1.0  0.29369  0.51613  0.74657  1.0000
  H   H362      1.0  0.30422  0.52709  0.78952  1.0000
  C   C223      1.0  0.27553  0.55067  0.52905  1.0000
  C   C224      1.0  0.30830  0.61121  0.60267  1.0000
  N   N23       1.0  0.30390  0.59774  0.62768  1.0000
  H   H363      1.0  0.24572  0.53787  0.59162  1.0000
  C   C225      1.0  0.26013  0.53179  0.53094  1.0000
  C   C226      1.0  0.22103  0.51319  0.51073  1.0000
  H   H364      1.0  0.32033  0.51592  0.08988  1.0000
  H   H365      1.0  0.19087  0.50386  0.36883  1.0000
  H   H366      1.0  0.19106  0.52617  0.52446  1.0000
  C   C227      1.0  0.20018  0.50428  0.34842  1.0000
  H   H367      1.0  0.26761  0.52734  0.51792  1.0000
  Fe  Fe50      1.0  0.30694  0.64450  0.72064  1.0000
  C   C228      1.0  0.25424  0.54560  0.57240  1.0000
  C   C229      1.0  0.27106  0.61529  0.61898  1.0000
  S   S97       1.0  0.29620  0.52022  0.96859  1.0000
  H   H368      1.0  0.22435  0.62529  0.44321  1.0000
  C   C230      1.0  0.31746  0.65843  0.80761  1.0000
  H   H369      1.0  0.32506  0.55524  0.07287  1.0000
  H   H370      1.0  0.29046  0.63808  0.87323  1.0000
  C   C231      1.0  0.18745  0.50493  0.58493  1.0000
  H   H371      1.0  0.22439  0.52772  0.27976  1.0000
  H   H372      1.0  0.27637  0.61256  0.52242  1.0000
  H   H373      1.0  0.31101  0.61190  0.56980  1.0000
  C   C232      1.0  0.30028  0.59746  0.67089  1.0000
  H   H374      1.0  0.19979  0.52578  0.37227  1.0000
  C   C233      1.0  0.25310  0.60029  0.61074  1.0000
  C   C234      1.0  0.31557  0.66042  0.87638  1.0000
  H   H375      1.0  0.25715  0.55184  0.59132  1.0000
  Fe  Fe51      1.0  0.22470  0.55314  0.53302  1.0000
  Fe  Fe52      1.0  0.32297  0.63390  0.66033  1.0000
  C   C235      1.0  0.22233  0.52640  0.50441  1.0000
  C   C236      1.0  0.25931  0.60233  0.56996  1.0000
  S   S98       1.0  0.27790  0.62295  0.65163  1.0000
  H   H376      1.0  0.25181  0.52378  0.54977  1.0000
  H   H377      1.0  0.27293  0.55662  0.50376  1.0000
  H   H378      1.0  0.27164  0.53837  0.60774  1.0000
  H   H379      1.0  0.24376  0.59382  0.62362  1.0000
  N   N24       1.0  0.26457  0.54015  0.55518  1.0000
  S   S99       1.0  0.21598  0.58522  0.53387  1.0000
  H   H380      1.0  0.26044  0.52424  0.60792  1.0000
  H   H381      1.0  0.22129  0.60818  0.46262  1.0000
  H   H382      1.0  0.27914  0.55712  0.54645  1.0000
  Fe  Fe53      1.0  0.23385  0.58008  0.54387  1.0000
  S   S100      1.0  0.20658  0.55648  0.52110  1.0000
  C   C237      1.0  0.30425  0.65083  0.89004  1.0000
  H   H383      1.0  0.27335  0.50495  0.85455  1.0000
  H   H384      1.0  0.28656  0.62392  0.56519  1.0000
  S   S101      1.0  0.29909  0.64204  0.78801  1.0000
  H   H385      1.0  0.28478  0.59572  0.62355  1.0000
  C   C238      1.0  0.27147  0.61085  0.55395  1.0000
  H   H386      1.0  0.22789  0.61547  0.40967  1.0000
  C   C239      1.0  0.21333  0.50627  0.49218  1.0000
  C   C240      1.0  0.29525  0.51054  0.77353  1.0000
  Fe  Fe54      1.0  0.20545  0.56517  0.57307  1.0000
  S   S102      1.0  0.22998  0.53454  0.53331  1.0000
  C   C241      1.0  0.29941  0.64528  0.86251  1.0000
  C   C242      1.0  0.32217  0.66420  0.83506  1.0000
  H   H387      1.0  0.17496  0.51695  0.53840  1.0000
  H   H388      1.0  0.32266  0.59600  0.62818  1.0000
  H   H389      1.0  0.29681  0.58746  0.69082  1.0000
  H   H390      1.0  0.30545  0.66715  0.73678  1.0000
  C   C243      1.0  0.31423  0.59126  0.62001  1.0000
  S   S103      1.0  0.32173  0.66787  0.91002  1.0000
  H   H391      1.0  0.32616  0.51417  0.76220  1.0000
  C   C244      1.0  0.16615  0.54803  0.12640  1.0000
  H   H392      1.0  0.16355  0.50706  0.61106  1.0000
  H   H393      1.0  0.32591  0.52294  0.12603  1.0000
  H   H394      1.0  0.17030  0.50628  0.13235  1.0000
  H   H395      1.0  0.21783  0.51199  0.27631  1.0000
  H   H396      1.0  0.32530  0.62097  0.85067  1.0000
  H   H397      1.0  0.21471  0.52206  0.37171  1.0000
  C   C245      1.0  0.21913  0.51777  0.29801  1.0000
  H   H398      1.0  0.32000  0.53716  0.71260  1.0000
  H   H399      1.0  0.31656  0.61789  0.96105  1.0000
  H   H400      1.0  0.22520  0.51380  0.31605  1.0000
  H   H401      1.0  0.32428  0.53402  0.66427  1.0000
  H   H402      1.0  0.31207  0.61184  0.92151  1.0000
  S   S104      1.0  0.19569  0.50379  0.44957  1.0000
  C   C246      1.0  0.32842  0.54578  0.58165  1.0000
  H   H403      1.0  0.25675  0.50294  0.96058  1.0000
  N   N25       1.0  0.32665  0.50325  0.13233  1.0000
  N   N26       1.0  0.31148  0.68770  0.71621  1.0000
  H   H404      1.0  0.32762  0.67992  0.71733  1.0000
  H   H405      1.0  0.30142  0.67500  0.77538  1.0000
  S   S105      1.0  0.32760  0.67979  0.58736  1.0000
  C   C247      1.0  0.31247  0.68799  0.67350  1.0000
  H   H406      1.0  0.30320  0.68750  0.66653  1.0000
  C   C248      1.0  0.30706  0.69885  0.72482  1.0000
  C   C249      1.0  0.30237  0.67571  0.74278  1.0000
  C   C250      1.0  0.32404  0.68822  0.72365  1.0000
  H   H407      1.0  0.29278  0.67488  0.73798  1.0000
  H   H408      1.0  0.30619  0.69889  0.75689  1.0000
  H   H409      1.0  0.31579  0.67969  0.66621  1.0000
  H   H410      1.0  0.29760  0.69872  0.71944  1.0000
  H   H411      1.0  0.31373  0.70805  0.70516  1.0000
  H   H412      1.0  0.31935  0.69683  0.65223  1.0000
  H   H413      1.0  0.32365  0.68794  0.75569  1.0000
  Fe  Fe55      1.0  0.39386  0.48151  0.16225  1.0000
  C   C251      1.0  0.36305  0.49570  0.04074  1.0000
  S   S106      1.0  0.38561  0.47208  0.11999  1.0000
  C   C252      1.0  0.39369  0.47978  0.26064  1.0000
  Fe  Fe56      1.0  0.38950  0.49205  0.07991  1.0000
  H   H414      1.0  0.37678  0.46942  0.94375  1.0000
  H   H415      1.0  0.35968  0.47780  0.08577  1.0000
  C   C253      1.0  0.34365  0.47867  0.06119  1.0000
  C   C254      1.0  0.38836  0.48059  0.29968  1.0000
  C   C255      1.0  0.33850  0.48613  0.03446  1.0000
  H   H416      1.0  0.37778  0.45307  0.95882  1.0000
  S   S107      1.0  0.39432  0.47879  0.45309  1.0000
  C   C256      1.0  0.36594  0.45957  0.02365  1.0000
  H   H417      1.0  0.37828  0.47964  0.30992  1.0000
  C   C257      1.0  0.39602  0.48268  0.32544  1.0000
  S   S108      1.0  0.38397  0.47768  0.22839  1.0000
  H   H418      1.0  0.39186  0.48335  0.35546  1.0000
  H   H419      1.0  0.39184  0.46598  0.94377  1.0000
  C   C258      1.0  0.44345  0.47810  0.62753  1.0000
  C   C259      1.0  0.35587  0.48347  0.06456  1.0000
  H   H420      1.0  0.38499  0.45520  0.05564  1.0000
  C   C260      1.0  0.38159  0.46298  0.96037  1.0000
  Fe  Fe57      1.0  0.38895  0.49710  0.45950  1.0000
  N   N27       1.0  0.37964  0.46358  0.00271  1.0000
  C   C261      1.0  0.38617  0.45493  0.02363  1.0000
  H   H421      1.0  0.38023  0.48374  0.98764  1.0000
  H   H422      1.0  0.36160  0.44966  0.02326  1.0000
  H   H423      1.0  0.38249  0.44478  0.02407  1.0000
  C   C262      1.0  0.38487  0.47687  0.00323  1.0000
  H   H424      1.0  0.36076  0.46610  0.00924  1.0000
  C   C263      1.0  0.33635  0.50053  0.53337  1.0000
  H   H425      1.0  0.46970  0.42217  0.13399  1.0000
  S   S109      1.0  0.40915  0.49236  0.04636  1.0000
  H   H426      1.0  0.48693  0.43884  0.08108  1.0000
  H   H427      1.0  0.48831  0.40806  0.78780  1.0000
  C   C264      1.0  0.35388  0.48553  0.52487  1.0000
  C   C265      1.0  0.34188  0.48037  0.55303  1.0000
  H   H428      1.0  0.48429  0.44613  0.03401  1.0000
  H   H429      1.0  0.36418  0.45970  0.05590  1.0000
  H   H430      1.0  0.36056  0.47968  0.52157  1.0000
  H   H431      1.0  0.42116  0.45114  0.63668  1.0000
  H   H432      1.0  0.38343  0.47768  0.03471  1.0000
  C   C266      1.0  0.41125  0.43920  0.42078  1.0000
  C   C267      1.0  0.40903  0.48387  0.31225  1.0000
  S   S110      1.0  0.41387  0.48101  0.13535  1.0000
  S   S111      1.0  0.42409  0.49526  0.43660  1.0000
  S   S112      1.0  0.40999  0.45543  0.07195  1.0000
  Fe  Fe58      1.0  0.47869  0.41718  0.96927  1.0000
  H   H433      1.0  0.45073  0.42727  0.06009  1.0000
  S   S113      1.0  0.48021  0.40455  0.02760  1.0000
  C   C268      1.0  0.46349  0.44285  0.09435  1.0000
  C   C269      1.0  0.34573  0.49833  0.01088  1.0000
  C   C270      1.0  0.43224  0.44730  0.42628  1.0000
  C   C271      1.0  0.44725  0.45647  0.98309  1.0000
  H   H434      1.0  0.43006  0.44904  0.35104  1.0000
  Fe  Fe59      1.0  0.40787  0.48351  0.48975  1.0000
  Fe  Fe60      1.0  0.40595  0.47307  0.08986  1.0000
  H   H435      1.0  0.49055  0.39167  0.45918  1.0000
  N   N28       1.0  0.46780  0.43278  0.07761  1.0000
  N   N29       1.0  0.42183  0.45075  0.41028  1.0000
  H   H436      1.0  0.42916  0.44351  0.45987  1.0000
  H   H437      1.0  0.43576  0.43981  0.41389  1.0000
  H   H438      1.0  0.45309  0.48032  0.63198  1.0000
  H   H439      1.0  0.48911  0.39035  0.09040  1.0000
  H   H440      1.0  0.45173  0.47692  0.97518  1.0000
  C   C272      1.0  0.42696  0.44461  0.03089  1.0000
  C   C273      1.0  0.43830  0.44481  0.00343  1.0000
  N   N30       1.0  0.43806  0.46409  0.63754  1.0000
  C   C274      1.0  0.46119  0.43041  0.04697  1.0000
  H   H441      1.0  0.43419  0.46497  0.35700  1.0000
  C   C275      1.0  0.43357  0.46765  0.01846  1.0000
  S   S114      1.0  0.48529  0.43843  0.95754  1.0000
  C   C276      1.0  0.46486  0.42077  0.11031  1.0000
  H   H442      1.0  0.40759  0.43501  0.45418  1.0000
  C   C277      1.0  0.33308  0.48784  0.55730  1.0000
  S   S115      1.0  0.39592  0.50133  0.12472  1.0000
  C   C278      1.0  0.42529  0.46160  0.63125  1.0000
  C   C279      1.0  0.35701  0.49810  0.50014  1.0000
  H   H443      1.0  0.42514  0.46930  0.42147  1.0000
  H   H444      1.0  0.44046  0.45576  0.41853  1.0000
  H   H445      1.0  0.44427  0.48287  0.59538  1.0000
  H   H446      1.0  0.41358  0.45685  0.46181  1.0000
  H   H447      1.0  0.46411  0.42277  0.03393  1.0000
  C   C280      1.0  0.42453  0.45603  0.03839  1.0000
  C   C281      1.0  0.40670  0.48096  0.24764  1.0000
  Fe  Fe61      1.0  0.41522  0.50024  0.09448  1.0000
  H   H448      1.0  0.41088  0.48028  0.21780  1.0000
  H   H449      1.0  0.42440  0.48386  0.26316  1.0000
  H   H450      1.0  0.41998  0.43559  0.04611  1.0000
  C   C282      1.0  0.44486  0.46786  0.99084  1.0000
  H   H451      1.0  0.43180  0.47650  0.02395  1.0000
  H   H452      1.0  0.39523  0.48019  0.98825  1.0000
  H   H453      1.0  0.43998  0.43600  0.99741  1.0000
  C   C283      1.0  0.41434  0.48293  0.27346  1.0000
  S   S116      1.0  0.41895  0.48677  0.34319  1.0000
  Fe  Fe62      1.0  0.41038  0.49140  0.40053  1.0000
  C   C284      1.0  0.42642  0.45603  0.36582  1.0000
  H   H454      1.0  0.45601  0.46019  0.61546  1.0000
  H   H455      1.0  0.45384  0.46914  0.46054  1.0000
  H   H456      1.0  0.43354  0.44747  0.68840  1.0000
  H   H457      1.0  0.40320  0.44150  0.40937  1.0000
  H   H458      1.0  0.39655  0.45768  0.00877  1.0000
  C   C285      1.0  0.41736  0.46051  0.42830  1.0000
  H   H459      1.0  0.41425  0.43162  0.40757  1.0000
  H   H460      1.0  0.40970  0.46350  0.41612  1.0000
  H   H461      1.0  0.47933  0.48337  0.86871  1.0000
  H   H462      1.0  0.41875  0.45865  0.35279  1.0000
  Fe  Fe63      1.0  0.46609  0.43230  0.62961  1.0000
  S   S117      1.0  0.45603  0.41967  0.59824  1.0000
  Fe  Fe64      1.0  0.47382  0.41254  0.58716  1.0000
  S   S118      1.0  0.48269  0.42373  0.62426  1.0000
  H   H463      1.0  0.45952  0.44609  0.75622  1.0000
  C   C286      1.0  0.42437  0.46163  0.52579  1.0000
  H   H464      1.0  0.44262  0.44798  0.61779  1.0000
  C   C287      1.0  0.49472  0.40026  0.02680  1.0000
  Fe  Fe65      1.0  0.47204  0.42030  0.88943  1.0000
  S   S119      1.0  0.46559  0.40881  0.84884  1.0000
  S   S120      1.0  0.48945  0.41707  0.90775  1.0000
  C   C288      1.0  0.48406  0.39213  0.52109  1.0000
  H   H465      1.0  0.48097  0.48007  0.82019  1.0000
  H   H466      1.0  0.46360  0.40134  0.77714  1.0000
  Fe  Fe66      1.0  0.49123  0.43905  0.56595  1.0000
  C   C289      1.0  0.43511  0.46874  0.49439  1.0000
  C   C290      1.0  0.46021  0.43036  0.72954  1.0000
  H   H467      1.0  0.41616  0.44397  0.57334  1.0000
  C   C291      1.0  0.46227  0.42988  0.79722  1.0000
  C   C292      1.0  0.46336  0.41723  0.80334  1.0000
  C   C293      1.0  0.46287  0.41117  0.77247  1.0000
  C   C294      1.0  0.46145  0.41777  0.73545  1.0000
  H   H468      1.0  0.48365  0.49804  0.14548  1.0000
  H   H469      1.0  0.46104  0.41301  0.71182  1.0000
  H   H470      1.0  0.42553  0.46646  0.59978  1.0000
  H   H471      1.0  0.45310  0.43992  0.10892  1.0000
  C   C295      1.0  0.44566  0.46368  0.48543  1.0000
  S   S121      1.0  0.47530  0.44859  0.57367  1.0000
  H   H472      1.0  0.33939  0.47054  0.57147  1.0000
  C   C296      1.0  0.48996  0.38724  0.49038  1.0000
  C   C297      1.0  0.44566  0.45156  0.50829  1.0000
  C   C298      1.0  0.43508  0.44457  0.54051  1.0000
  H   H473      1.0  0.44728  0.46284  0.57852  1.0000
  H   H474      1.0  0.46835  0.44499  0.11736  1.0000
  S   S122      1.0  0.46148  0.45735  0.94744  1.0000
  Fe  Fe67      1.0  0.46847  0.44024  0.93496  1.0000
  S   S123      1.0  0.40091  0.50063  0.50135  1.0000
  H   H475      1.0  0.43538  0.47818  0.47704  1.0000
  H   H476      1.0  0.41864  0.46520  0.65178  1.0000
  H   H477      1.0  0.46241  0.43455  0.82106  1.0000
  H   H478      1.0  0.43494  0.43512  0.55793  1.0000
  C   C299      1.0  0.46056  0.43638  0.76056  1.0000
  S   S124      1.0  0.47883  0.44178  0.87087  1.0000
  C   C300      1.0  0.43718  0.45811  0.68027  1.0000
  S   S125      1.0  0.47550  0.39202  0.60096  1.0000
  H   H479      1.0  0.45451  0.41719  0.12513  1.0000
  S   S126      1.0  0.41080  0.46758  0.53714  1.0000
  H   H480      1.0  0.43080  0.46180  0.70132  1.0000
  S   S127      1.0  0.45792  0.43864  0.68408  1.0000
  H   H481      1.0  0.48700  0.37092  0.60232  1.0000
  S   S128      1.0  0.45833  0.44481  0.49301  1.0000
  S   S129      1.0  0.48364  0.42739  0.52792  1.0000
  C   C301      1.0  0.48793  0.37557  0.57103  1.0000
  Fe  Fe68      1.0  0.46659  0.43549  0.54152  1.0000
  C   C302      1.0  0.48291  0.38622  0.56158  1.0000
  C   C303      1.0  0.42444  0.44957  0.54904  1.0000
  C   C304      1.0  0.44634  0.45857  0.61108  1.0000
  H   H482      1.0  0.43742  0.48261  0.64680  1.0000
  S   S130      1.0  0.46057  0.41877  0.95246  1.0000
  H   H483      1.0  0.46325  0.43924  0.02161  1.0000
  H   H484      1.0  0.48791  0.41911  0.71922  1.0000
  H   H485      1.0  0.46549  0.45196  0.07008  1.0000
  H   H486      1.0  0.48010  0.40025  0.51354  1.0000
  H   H487      1.0  0.33809  0.46922  0.07968  1.0000
  H   H488      1.0  0.34479  0.49918  0.11411  1.0000
  H   H489      1.0  0.48023  0.46782  0.86416  1.0000
  H   H490      1.0  0.46804  0.41303  0.09831  1.0000
  H   H491      1.0  0.48519  0.42971  0.04559  1.0000
  H   H492      1.0  0.33070  0.49237  0.18433  1.0000
  C   C305      1.0  0.48163  0.43706  0.05877  1.0000
  C   C306      1.0  0.48403  0.47820  0.84843  1.0000
  H   H493      1.0  0.44664  0.46000  0.68624  1.0000
  H   H494      1.0  0.49078  0.42301  0.80059  1.0000
  H   H495      1.0  0.49278  0.45814  0.68257  1.0000
  H   H496      1.0  0.49199  0.45110  0.62148  1.0000
  H   H497      1.0  0.49008  0.43410  0.73201  1.0000
  Fe  Fe69      1.0  0.49510  0.43842  0.89520  1.0000
  S   S131      1.0  0.37839  0.50231  0.04322  1.0000
  C   C307      1.0  0.49427  0.37099  0.54017  1.0000
  H   H498      1.0  0.49447  0.35654  0.97250  1.0000
  C   C308      1.0  0.49517  0.37674  0.49977  1.0000
  H   H499      1.0  0.46213  0.50153  0.14665  1.0000
  C   C309      1.0  0.49518  0.42741  0.72001  1.0000
  H   H500      1.0  0.48851  0.50275  0.09103  1.0000
  H   H501      1.0  0.35271  0.61211  0.28449  1.0000
  H   H502      1.0  0.33923  0.63602  0.57905  1.0000
  S   S132      1.0  0.40395  0.50915  0.40296  1.0000
  H   H503      1.0  0.45748  0.63321  0.76804  1.0000
  H   H504      1.0  0.41925  0.55535  0.02787  1.0000
  C   C310      1.0  0.39316  0.57861  0.27147  1.0000
  H   H505      1.0  0.34375  0.55865  0.10010  1.0000
  Fe  Fe70      1.0  0.37714  0.56641  0.20268  1.0000
  S   S133      1.0  0.38297  0.58776  0.17761  1.0000
  S   S134      1.0  0.37762  0.55684  0.26599  1.0000
  Fe  Fe71      1.0  0.36999  0.56218  0.12624  1.0000
  S   S135      1.0  0.37536  0.58333  0.09515  1.0000
  S   S136      1.0  0.36500  0.54671  0.09491  1.0000
  Fe  Fe72      1.0  0.39226  0.58411  0.11969  1.0000
  Fe  Fe73      1.0  0.36553  0.58513  0.15587  1.0000
  S   S137      1.0  0.35331  0.59858  0.16841  1.0000
  S   S138      1.0  0.38783  0.56279  0.14627  1.0000
  S   S139      1.0  0.35881  0.56391  0.18545  1.0000
  H   H506      1.0  0.36552  0.57862  0.27409  1.0000
  H   H507      1.0  0.33115  0.50881  0.18321  1.0000
  H   H508      1.0  0.41734  0.54328  0.07365  1.0000
  H   H509      1.0  0.46572  0.58807  0.57935  1.0000
  C   C311      1.0  0.39486  0.55033  0.02753  1.0000
  C   C312      1.0  0.34290  0.55219  0.08122  1.0000
  S   S140      1.0  0.33464  0.61940  0.65981  1.0000
  H   H510      1.0  0.40338  0.53736  0.50618  1.0000
  C   C313      1.0  0.40006  0.54544  0.49053  1.0000
  H   H511      1.0  0.35564  0.58414  0.24418  1.0000
  H   H512      1.0  0.39091  0.50970  0.30574  1.0000
  C   C314      1.0  0.34237  0.60262  0.06514  1.0000
  C   C315      1.0  0.33590  0.61844  0.09720  1.0000
  Fe  Fe74      1.0  0.41602  0.51183  0.44454  1.0000
  H   H513      1.0  0.35358  0.64249  0.03707  1.0000
  S   S141      1.0  0.37310  0.58698  0.46535  1.0000
  C   C316      1.0  0.35220  0.54558  0.07287  1.0000
  C   C317      1.0  0.35101  0.53729  0.04807  1.0000
  H   H514      1.0  0.35823  0.53224  0.04109  1.0000
  C   C318      1.0  0.39352  0.58388  0.33496  1.0000
  H   H515      1.0  0.34000  0.52110  0.65160  1.0000
  C   C319      1.0  0.34670  0.60375  0.12896  1.0000
  C   C320      1.0  0.34039  0.53527  0.03285  1.0000
  C   C321      1.0  0.34737  0.59806  0.09706  1.0000
  C   C322      1.0  0.33499  0.55873  0.57140  1.0000
  C   C323      1.0  0.38423  0.57250  0.35599  1.0000
  C   C324      1.0  0.37959  0.56407  0.33477  1.0000
  C   C325      1.0  0.38398  0.56716  0.29240  1.0000
  H   H516      1.0  0.47326  0.52742  0.15499  1.0000
  H   H517      1.0  0.38052  0.57032  0.38841  1.0000
  H   H518      1.0  0.37240  0.55527  0.35111  1.0000
  C   C326      1.0  0.41776  0.53137  0.24382  1.0000
  H   H519      1.0  0.36614  0.60428  0.32741  1.0000
  H   H520      1.0  0.39199  0.55733  0.04388  1.0000
  H   H521      1.0  0.33004  0.64506  0.90869  1.0000
  H   H522      1.0  0.38849  0.54082  0.10741  1.0000
  H   H523      1.0  0.35166  0.59010  0.09702  1.0000
  H   H524      1.0  0.45480  0.66146  0.90208  1.0000
  Fe  Fe75      1.0  0.39321  0.59297  0.42694  1.0000
  H   H525      1.0  0.46954  0.62616  0.83772  1.0000
  C   C327      1.0  0.35769  0.58345  0.27398  1.0000
  S   S142      1.0  0.48974  0.64880  0.07023  1.0000
  H   H526      1.0  0.39603  0.53865  0.26360  1.0000
  C   C328      1.0  0.48866  0.60536  0.59083  1.0000
  C   C329      1.0  0.47343  0.63555  0.81428  1.0000
  C   C330      1.0  0.37742  0.65536  0.07302  1.0000
  H   H527      1.0  0.34918  0.57701  0.29768  1.0000
  Fe  Fe76      1.0  0.45221  0.66263  0.03517  1.0000
  H   H528      1.0  0.33603  0.63556  0.94437  1.0000
  C   C331      1.0  0.48692  0.61011  0.55278  1.0000
  N   N31       1.0  0.39057  0.54092  0.47014  1.0000
  H   H529      1.0  0.40974  0.55625  0.07489  1.0000
  H   H530      1.0  0.34846  0.60361  0.24944  1.0000
  C   C332      1.0  0.33519  0.53637  0.58113  1.0000
  H   H531      1.0  0.39963  0.65517  0.56622  1.0000
  H   H532      1.0  0.34552  0.51557  0.11421  1.0000
  H   H533      1.0  0.33328  0.60763  0.90152  1.0000
  C   C333      1.0  0.41233  0.54950  0.05707  1.0000
  N   N32       1.0  0.36105  0.59625  0.28099  1.0000
  H   H534      1.0  0.34680  0.54372  0.65365  1.0000
  H   H535      1.0  0.34164  0.59658  0.30287  1.0000
  Fe  Fe77      1.0  0.46916  0.55506  0.55339  1.0000
  H   H536      1.0  0.42903  0.59250  0.57428  1.0000
  C   C334      1.0  0.36348  0.59482  0.32111  1.0000
  C   C335      1.0  0.37256  0.60430  0.24931  1.0000
  S   S143      1.0  0.44836  0.54530  0.57408  1.0000
  S   S144      1.0  0.37146  0.50467  0.46188  1.0000
  C   C336      1.0  0.35049  0.60242  0.27944  1.0000
  H   H537      1.0  0.37140  0.59021  0.32310  1.0000
  H   H538      1.0  0.38070  0.59987  0.24943  1.0000
  H   H539      1.0  0.35504  0.58876  0.34588  1.0000
  H   H540      1.0  0.33151  0.50878  0.69734  1.0000
  H   H541      1.0  0.40856  0.55253  0.46853  1.0000
  H   H542      1.0  0.39673  0.58100  0.23893  1.0000
  H   H543      1.0  0.40125  0.55590  0.99720  1.0000
  H   H544      1.0  0.38220  0.52264  0.51458  1.0000
  H   H545      1.0  0.46081  0.51639  0.11712  1.0000
  H   H546      1.0  0.47485  0.65251  0.74414  1.0000
  H   H547      1.0  0.35458  0.53873  0.69153  1.0000
  C   C337      1.0  0.34846  0.53987  0.57161  1.0000
  H   H548      1.0  0.36342  0.51254  0.99542  1.0000
  H   H549      1.0  0.39041  0.62354  0.54541  1.0000
  H   H550      1.0  0.48195  0.62545  0.51494  1.0000
  C   C338      1.0  0.34828  0.56225  0.56107  1.0000
  H   H551      1.0  0.42932  0.52401  0.57258  1.0000
  C   C339      1.0  0.41325  0.61617  0.57303  1.0000
  H   H552      1.0  0.49147  0.59645  0.59769  1.0000
  H   H553      1.0  0.35134  0.63517  0.51222  1.0000
  H   H554      1.0  0.40116  0.66418  0.49352  1.0000
  C   C340      1.0  0.35751  0.61851  0.53647  1.0000
  Fe  Fe78      1.0  0.38084  0.57730  0.51410  1.0000
  H   H555      1.0  0.35575  0.64048  0.12459  1.0000
  Fe  Fe79      1.0  0.49383  0.56020  0.48865  1.0000
  H   H556      1.0  0.34968  0.60265  0.63649  1.0000
  S   S145      1.0  0.46479  0.66856  0.07313  1.0000
  H   H557      1.0  0.39163  0.63014  0.49312  1.0000
  H   H558      1.0  0.35329  0.57225  0.55353  1.0000
  C   C341      1.0  0.34357  0.61934  0.61221  1.0000
  C   C342      1.0  0.39624  0.53485  0.43976  1.0000
  H   H559      1.0  0.37857  0.64620  0.09086  1.0000
  H   H560      1.0  0.39469  0.50773  0.23614  1.0000
  C   C343      1.0  0.35005  0.60976  0.60938  1.0000
  Fe  Fe80      1.0  0.49380  0.55634  0.57679  1.0000
  H   H561      1.0  0.41046  0.64587  0.55189  1.0000
  S   S146      1.0  0.37159  0.55692  0.55167  1.0000
  H   H562      1.0  0.35362  0.53253  0.57185  1.0000
  C   C344      1.0  0.35502  0.55281  0.56163  1.0000
  H   H563      1.0  0.40460  0.54170  0.41640  1.0000
  C   C345      1.0  0.33672  0.61289  0.06500  1.0000
  H   H564      1.0  0.43583  0.50796  0.21491  1.0000
  H   H565      1.0  0.48197  0.64078  0.82073  1.0000
  S   S147      1.0  0.36674  0.61874  0.48897  1.0000
  C   C346      1.0  0.34000  0.50706  0.10793  1.0000
  H   H566      1.0  0.39891  0.53711  0.21296  1.0000
  C   C347      1.0  0.48182  0.64657  0.74318  1.0000
  S   S148      1.0  0.38452  0.59408  0.54005  1.0000
  H   H567      1.0  0.34731  0.62043  0.88953  1.0000
  H   H568      1.0  0.45182  0.54804  0.30265  1.0000
  C   C348      1.0  0.35094  0.62803  0.53930  1.0000
  H   H569      1.0  0.36194  0.60190  0.56962  1.0000
  C   C349      1.0  0.38127  0.64442  0.53703  1.0000
  C   C350      1.0  0.48721  0.61240  0.61965  1.0000
  H   H570      1.0  0.34293  0.54768  0.70087  1.0000
  H   H571      1.0  0.40423  0.60968  0.57686  1.0000
  C   C351      1.0  0.34405  0.62849  0.57713  1.0000
  C   C352      1.0  0.33231  0.55023  0.06579  1.0000
  H   H572      1.0  0.45625  0.61037  0.54055  1.0000
  C   C353      1.0  0.38642  0.55190  0.44974  1.0000
  C   C354      1.0  0.35701  0.60934  0.57155  1.0000
  H   H573      1.0  0.37687  0.64326  0.51218  1.0000
  C   C355      1.0  0.34534  0.54004  0.68688  1.0000
  H   H574      1.0  0.45904  0.59866  0.60453  1.0000
  H   H575      1.0  0.49518  0.53165  0.07942  1.0000
  H   H576      1.0  0.39454  0.55934  0.42713  1.0000
  N   N33       1.0  0.39473  0.64416  0.52595  1.0000
  H   H577      1.0  0.34297  0.59821  0.04045  1.0000
  Fe  Fe81      1.0  0.37838  0.60423  0.48787  1.0000
  H   H578      1.0  0.38928  0.53113  0.42422  1.0000
  H   H579      1.0  0.39952  0.52659  0.45422  1.0000
  H   H580      1.0  0.45426  0.55876  0.48937  1.0000
  H   H581      1.0  0.34072  0.50961  0.07504  1.0000
  H   H582      1.0  0.46256  0.60684  0.15136  1.0000
  S   S149      1.0  0.46536  0.65289  0.00235  1.0000
  C   C356      1.0  0.41347  0.63064  0.09355  1.0000
  S   S150      1.0  0.42758  0.53203  0.43154  1.0000
  S   S151      1.0  0.41205  0.59456  0.08189  1.0000
  H   H583      1.0  0.41184  0.53798  0.99774  1.0000
  H   H584      1.0  0.48893  0.60885  0.64859  1.0000
  H   H585      1.0  0.45533  0.61633  0.18024  1.0000
  C   C357      1.0  0.43267  0.51264  0.15572  1.0000
  H   H586      1.0  0.48460  0.64563  0.71180  1.0000
  H   H587      1.0  0.44068  0.56975  0.58539  1.0000
  N   N34       1.0  0.32984  0.62611  0.90227  1.0000
  S   S152      1.0  0.47043  0.56598  0.20017  1.0000
  S   S153      1.0  0.47810  0.56619  0.59031  1.0000
  H   H588      1.0  0.38614  0.52579  0.25276  1.0000
  C   C358      1.0  0.43798  0.51527  0.18654  1.0000
  S   S154      1.0  0.45376  0.53013  0.21742  1.0000
  Fe  Fe82      1.0  0.48852  0.58071  0.53115  1.0000
  H   H589      1.0  0.44733  0.60208  0.51317  1.0000
  H   H590      1.0  0.43401  0.61368  0.03010  1.0000
  H   H591      1.0  0.45258  0.58153  0.62365  1.0000
  C   C359      1.0  0.43580  0.52193  0.11850  1.0000
  C   C360      1.0  0.44632  0.52720  0.18024  1.0000
  C   C361      1.0  0.44900  0.53662  0.14367  1.0000
  C   C362      1.0  0.44385  0.53395  0.11276  1.0000
  H   H592      1.0  0.45503  0.54601  0.13911  1.0000
  H   H593      1.0  0.44619  0.54121  0.08419  1.0000
  H   H594      1.0  0.43555  0.59874  0.20726  1.0000
  H   H595      1.0  0.37103  0.60565  0.21862  1.0000
  Fe  Fe83      1.0  0.47846  0.66008  0.03687  1.0000
  H   H596      1.0  0.39608  0.55016  0.51355  1.0000
  C   C363      1.0  0.41451  0.62374  0.59993  1.0000
  C   C364      1.0  0.40437  0.51409  0.22920  1.0000
  C   C365      1.0  0.46684  0.50946  0.11850  1.0000
  H   H597      1.0  0.40747  0.51906  0.19624  1.0000
  H   H598      1.0  0.34201  0.50412  0.98990  1.0000
  H   H599      1.0  0.47878  0.57642  0.34912  1.0000
  C   C366      1.0  0.47937  0.52062  0.15388  1.0000
  H   H600      1.0  0.41189  0.65465  0.47976  1.0000
  H   H601      1.0  0.44600  0.55349  0.43394  1.0000
  S   S155      1.0  0.40069  0.58191  0.47390  1.0000
  C   C367      1.0  0.36300  0.64390  0.04337  1.0000
  H   H602      1.0  0.45251  0.59834  0.10400  1.0000
  C   C368      1.0  0.47777  0.61354  0.05450  1.0000
  H   H603      1.0  0.43508  0.62092  0.17260  1.0000
  C   C369      1.0  0.42618  0.63215  0.59552  1.0000
  N   N35       1.0  0.45913  0.53530  0.34166  1.0000
  C   C370      1.0  0.45467  0.54706  0.33127  1.0000
  C   C371      1.0  0.46293  0.53447  0.37958  1.0000
  C   C372      1.0  0.47009  0.53582  0.30862  1.0000
  C   C373      1.0  0.44889  0.52389  0.34674  1.0000
  C   C374      1.0  0.48563  0.62599  0.76893  1.0000
  H   H604      1.0  0.46224  0.55584  0.32697  1.0000
  H   H605      1.0  0.44639  0.54702  0.35560  1.0000
  H   H606      1.0  0.46639  0.52574  0.38836  1.0000
  H   H607      1.0  0.47066  0.54295  0.37656  1.0000
  H   H608      1.0  0.45486  0.53407  0.40516  1.0000
  H   H609      1.0  0.47400  0.52732  0.31572  1.0000
  H   H610      1.0  0.47786  0.54455  0.30272  1.0000
  H   H611      1.0  0.46734  0.53608  0.28003  1.0000
  H   H612      1.0  0.45192  0.51486  0.35487  1.0000
  H   H613      1.0  0.44592  0.52420  0.31844  1.0000
  H   H614      1.0  0.44038  0.52318  0.37108  1.0000
  H   H615      1.0  0.36355  0.63440  0.06094  1.0000
  C   C375      1.0  0.40057  0.51622  0.29726  1.0000
  H   H616      1.0  0.40777  0.63535  0.11147  1.0000
  H   H617      1.0  0.42810  0.59245  0.17288  1.0000
  S   S156      1.0  0.48389  0.54400  0.54461  1.0000
  C   C376      1.0  0.33736  0.61658  0.90878  1.0000
  N   N36       1.0  0.44431  0.60849  0.14431  1.0000
  C   C377      1.0  0.44651  0.60530  0.10517  1.0000
  C   C378      1.0  0.42824  0.61836  0.04795  1.0000
  H   H618      1.0  0.44159  0.62701  0.11875  1.0000
  Fe  Fe84      1.0  0.47108  0.54680  0.19090  1.0000
  H   H619      1.0  0.39776  0.65354  0.46311  1.0000
  C   C379      1.0  0.48862  0.56643  0.38656  1.0000
  H   H620      1.0  0.38011  0.65361  0.54349  1.0000
  H   H621      1.0  0.44164  0.63676  0.02341  1.0000
  C   C380      1.0  0.33886  0.51808  0.68474  1.0000
  C   C381      1.0  0.45659  0.61382  0.15098  1.0000
  H   H622      1.0  0.42443  0.52545  0.25079  1.0000
  C   C382      1.0  0.48699  0.63220  0.07399  1.0000
  H   H623      1.0  0.47266  0.60948  0.03562  1.0000
  S   S157      1.0  0.47634  0.58867  0.09212  1.0000
  C   C383      1.0  0.42543  0.63761  0.06769  1.0000
  C   C384      1.0  0.43313  0.53559  0.47160  1.0000
  S   S158      1.0  0.43020  0.51867  0.07819  1.0000
  H   H624      1.0  0.43747  0.60088  0.09970  1.0000
  H   H625      1.0  0.45138  0.61401  0.07944  1.0000
  S   S159      1.0  0.43132  0.65380  0.06614  1.0000
  S   S160      1.0  0.48134  0.55495  0.12521  1.0000
  Fe  Fe85      1.0  0.48229  0.57434  0.13612  1.0000
  S   S161      1.0  0.45029  0.65869  0.76856  1.0000
  H   H626      1.0  0.40035  0.52286  0.31689  1.0000
  H   H627      1.0  0.44292  0.58931  0.17820  1.0000
  C   C385      1.0  0.40899  0.61750  0.09701  1.0000
  S   S162      1.0  0.47826  0.57029  0.49506  1.0000
  N   N37       1.0  0.47982  0.51577  0.11786  1.0000
  S   S163      1.0  0.46487  0.65755  0.58993  1.0000
  C   C386      1.0  0.43266  0.63145  0.04440  1.0000
  C   C387      1.0  0.48047  0.62684  0.04965  1.0000
  C   C388      1.0  0.43675  0.61810  0.14383  1.0000
  H   H628      1.0  0.39988  0.61215  0.11752  1.0000
  C   C389      1.0  0.43740  0.59672  0.17720  1.0000
  H   H629      1.0  0.42736  0.61431  0.13948  1.0000
  H   H630      1.0  0.46204  0.62271  0.12661  1.0000
  C   C390      1.0  0.48143  0.60543  0.08400  1.0000
  C   C391      1.0  0.41650  0.61129  0.07472  1.0000
  H   H631      1.0  0.37545  0.61399  0.25383  1.0000
  H   H632      1.0  0.39532  0.63809  0.58769  1.0000
  C   C392      1.0  0.48331  0.62170  0.54429  1.0000
  H   H633      1.0  0.40707  0.51019  0.30497  1.0000
  C   C393      1.0  0.37955  0.53141  0.50032  1.0000
  S   S164      1.0  0.42698  0.64252  0.62713  1.0000
  C   C394      1.0  0.39609  0.53157  0.24538  1.0000
  H   H634      1.0  0.40513  0.59568  0.27629  1.0000
  N   N38       1.0  0.47639  0.63388  0.77301  1.0000
  H   H635      1.0  0.37899  0.66263  0.09009  1.0000
  C   C395      1.0  0.40170  0.65462  0.48894  1.0000
  S   S165      1.0  0.39792  0.61113  0.44548  1.0000
  C   C396      1.0  0.44241  0.54697  0.46407  1.0000
  H   H636      1.0  0.37537  0.53542  0.52487  1.0000
  N   N39       1.0  0.40469  0.52333  0.25389  1.0000
  C   C397      1.0  0.49101  0.62415  0.10272  1.0000
  C   C398      1.0  0.40488  0.53278  0.02746  1.0000
  S   S166      1.0  0.48259  0.63295  0.64721  1.0000
  H   H637      1.0  0.39659  0.52690  0.02152  1.0000
  H   H638      1.0  0.40935  0.52600  0.04431  1.0000
  H   H639      1.0  0.47543  0.51273  0.18246  1.0000
  C   C399      1.0  0.43670  0.63266  0.56464  1.0000
  S   S167      1.0  0.39958  0.59491  0.35964  1.0000
  H   H640      1.0  0.39650  0.52820  0.10873  1.0000
  N   N40       1.0  0.40103  0.54175  0.05047  1.0000
  H   H641      1.0  0.38357  0.52806  0.08604  1.0000
  H   H642      1.0  0.38608  0.54478  0.02311  1.0000
  C   C400      1.0  0.39202  0.53436  0.08994  1.0000
  C   C401      1.0  0.39796  0.58688  0.29269  1.0000
  N   N41       1.0  0.36478  0.65370  0.06569  1.0000
  H   H643      1.0  0.37195  0.52828  0.48626  1.0000
  H   H644      1.0  0.38188  0.55661  0.47176  1.0000
  H   H645      1.0  0.42127  0.51849  0.51674  1.0000
  C   C402      1.0  0.42368  0.61695  0.54146  1.0000
  N   N42       1.0  0.44789  0.59029  0.56984  1.0000
  H   H646      1.0  0.35548  0.65695  0.12154  1.0000
  Fe  Fe86      1.0  0.40377  0.59965  0.49580  1.0000
  C   C403      1.0  0.44250  0.54165  0.53455  1.0000
  H   H647      1.0  0.46625  0.64122  0.81834  1.0000
  H   H648      1.0  0.48416  0.56895  0.41308  1.0000
  C   C404      1.0  0.43599  0.59232  0.59244  1.0000
  H   H649      1.0  0.44355  0.62578  0.51332  1.0000
  H   H650      1.0  0.43766  0.60164  0.60027  1.0000
  H   H651      1.0  0.42136  0.53660  0.21106  1.0000
  N   N43       1.0  0.33529  0.52792  0.70425  1.0000
  H   H652      1.0  0.37566  0.63648  0.56443  1.0000
  C   C405      1.0  0.45666  0.58960  0.59558  1.0000
  H   H653      1.0  0.34540  0.64235  0.89277  1.0000
  C   C406      1.0  0.39568  0.63169  0.51831  1.0000
  Fe  Fe87      1.0  0.47174  0.64834  0.64173  1.0000
  S   S168      1.0  0.45247  0.64161  0.68563  1.0000
  Fe  Fe88      1.0  0.44584  0.65190  0.63538  1.0000
  S   S169      1.0  0.42254  0.60756  0.50714  1.0000
  Fe  Fe89      1.0  0.45713  0.66027  0.70127  1.0000
  H   H654      1.0  0.46026  0.61783  0.78713  1.0000
  C   C407      1.0  0.33090  0.54162  0.04210  1.0000
  H   H655      1.0  0.46271  0.59979  0.51482  1.0000
  H   H656      1.0  0.44573  0.63913  0.56086  1.0000
  H   H657      1.0  0.47895  0.63757  0.56637  1.0000
  C   C408      1.0  0.48372  0.62406  0.61103  1.0000
  H   H658      1.0  0.45394  0.57627  0.54151  1.0000
  H   H659      1.0  0.47754  0.63292  0.02692  1.0000
  Fe  Fe90      1.0  0.48883  0.56594  0.21573  1.0000
  C   C409      1.0  0.45951  0.66417  0.87004  1.0000
  C   C410      1.0  0.34080  0.61383  0.12925  1.0000
  S   S170      1.0  0.48867  0.54589  0.21081  1.0000
  C   C411      1.0  0.33560  0.63777  0.91244  1.0000
  C   C412      1.0  0.44515  0.57816  0.55835  1.0000
  H   H660      1.0  0.35051  0.51527  0.48529  1.0000
  H   H661      1.0  0.37033  0.64670  0.01380  1.0000
  H   H662      1.0  0.48800  0.62463  0.73792  1.0000
  C   C413      1.0  0.43299  0.53041  0.54228  1.0000
  S   S171      1.0  0.48761  0.57383  0.27014  1.0000
  C   C414      1.0  0.45380  0.60110  0.53295  1.0000
  C   C415      1.0  0.44717  0.54994  0.49541  1.0000
  C   C416      1.0  0.43544  0.62509  0.53770  1.0000
  C   C417      1.0  0.42843  0.52729  0.51070  1.0000
  H   H663      1.0  0.40639  0.62314  0.62421  1.0000
  H   H664      1.0  0.34796  0.51624  0.68911  1.0000
  C   C418      1.0  0.48157  0.62857  0.57345  1.0000
  C   C419      1.0  0.35492  0.64947  0.10484  1.0000
  H   H665      1.0  0.37937  0.54879  0.43372  1.0000
  H   H666      1.0  0.47973  0.53390  0.07990  1.0000
  H   H667      1.0  0.43146  0.58454  0.62104  1.0000
  H   H668      1.0  0.34525  0.64758  0.10046  1.0000
  H   H669      1.0  0.46655  0.62617  0.73423  1.0000
  H   H670      1.0  0.40570  0.63110  0.50986  1.0000
  C   C420      1.0  0.48539  0.52662  0.08091  1.0000
  H   H671      1.0  0.43862  0.57837  0.53865  1.0000
  C   C421      1.0  0.34821  0.50557  0.50454  1.0000
  S   S172      1.0  0.33408  0.66877  0.09676  1.0000
  H   H672      1.0  0.41833  0.53862  0.26130  1.0000
  C   C422      1.0  0.48554  0.57061  0.35025  1.0000
  H   H673      1.0  0.32963  0.50636  0.53632  1.0000
  H   H674      1.0  0.46681  0.50543  0.09222  1.0000
  H   H675      1.0  0.48895  0.52582  0.15376  1.0000
  C   C423      1.0  0.46465  0.62746  0.76531  1.0000
  C   C424      1.0  0.40027  0.64590  0.55938  1.0000
  S   S173      1.0  0.33075  0.61863  0.02441  1.0000
  S   S174      1.0  0.33358  0.65548  0.00002  1.0000
  C   C425      1.0  0.49121  0.56746  0.31535  1.0000
  H   H676      1.0  0.33767  0.61385  0.94090  1.0000
  H   H677      1.0  0.33933  0.63377  0.83867  1.0000
  H   H678      1.0  0.33948  0.52872  0.01427  1.0000
  C   C426      1.0  0.32963  0.62951  0.85947  1.0000
  H   H679      1.0  0.34251  0.52169  0.75506  1.0000
  S   S175      1.0  0.47700  0.66657  0.66034  1.0000
  S   S176      1.0  0.48924  0.60192  0.51497  1.0000
  H   H680      1.0  0.48186  0.61631  0.79087  1.0000
  C   C427      1.0  0.33362  0.52337  0.74831  1.0000
  C   C428      1.0  0.48821  0.61078  0.10784  1.0000
  H   H681      1.0  0.34014  0.61817  0.15410  1.0000
  C   C429      1.0  0.48768  0.50642  0.11824  1.0000
  H   H682      1.0  0.38510  0.65864  0.04410  1.0000
  H   H683      1.0  0.49108  0.60462  0.13065  1.0000
  H   H684      1.0  0.49037  0.65201  0.74897  1.0000
  C   C430      1.0  0.45292  0.66062  0.84278  1.0000
  H   H685      1.0  0.44314  0.65515  0.85418  1.0000
  H   H686      1.0  0.35428  0.66521  0.03589  1.0000
  C   C431      1.0  0.36375  0.66606  0.04163  1.0000
  C   C432      1.0  0.45890  0.66404  0.80103  1.0000
  H   H687      1.0  0.41078  0.50777  0.23498  1.0000
  H   H688      1.0  0.33067  0.53041  0.76435  1.0000
  H   H689      1.0  0.32980  0.56604  0.57172  1.0000
  H   H690      1.0  0.33020  0.52638  0.58842  1.0000
  H   H691      1.0  0.33163  0.62638  0.09733  1.0000
  H   H692      1.0  0.42640  0.50335  0.16046  1.0000
  H   H693      1.0  0.48587  0.52335  0.05304  1.0000
  H   H694      1.0  0.49463  0.63063  0.77424  1.0000
  C   C433      1.0  0.35793  0.50307  0.01393  1.0000
  H   H695      1.0  0.35731  0.71431  0.03031  1.0000
  Fe  Fe91      1.0  0.38171  0.73176  0.12354  1.0000
  C   C434      1.0  0.35733  0.69728  0.12303  1.0000
  H   H696      1.0  0.37052  0.76633  0.69734  1.0000
  H   H697      1.0  0.36111  0.69830  0.14820  1.0000
  S   S177      1.0  0.37852  0.73337  0.27057  1.0000
  C   C435      1.0  0.38644  0.74079  0.30113  1.0000
  S   S178      1.0  0.37653  0.74603  0.15750  1.0000
  S   S179      1.0  0.49403  0.78802  0.17893  1.0000
  C   C436      1.0  0.34717  0.69443  0.05839  1.0000
  H   H698      1.0  0.37413  0.72765  0.35690  1.0000
  H   H699      1.0  0.44470  0.71659  0.55298  1.0000
  C   C437      1.0  0.34931  0.68547  0.12477  1.0000
  Fe  Fe92      1.0  0.38619  0.73730  0.20244  1.0000
  C   C438      1.0  0.35515  0.70625  0.05674  1.0000
  C   C439      1.0  0.34410  0.68398  0.09264  1.0000
  S   S180      1.0  0.47256  0.78489  0.53115  1.0000
  H   H700      1.0  0.38462  0.73794  0.40123  1.0000
  S   S181      1.0  0.38977  0.72192  0.17149  1.0000
  S   S182      1.0  0.37006  0.72311  0.08520  1.0000
  H   H701      1.0  0.48585  0.81925  0.11354  1.0000
  C   C440      1.0  0.36025  0.70781  0.08906  1.0000
  C   C441      1.0  0.38211  0.73597  0.34348  1.0000
  H   H702      1.0  0.47126  0.82140  0.10267  1.0000
  C   C442      1.0  0.48627  0.81424  0.62160  1.0000
  C   C443      1.0  0.38802  0.74180  0.36869  1.0000
  Fe  Fe93      1.0  0.38705  0.74026  0.53842  1.0000
  C   C444      1.0  0.34052  0.69205  0.58744  1.0000
  C   C445      1.0  0.34598  0.70255  0.55288  1.0000
  C   C446      1.0  0.35563  0.71293  0.55253  1.0000
  S   S183      1.0  0.37045  0.72680  0.59024  1.0000
  H   H703      1.0  0.48713  0.70788  0.15920  1.0000
  H   H704      1.0  0.39394  0.78044  0.62689  1.0000
  C   C447      1.0  0.35970  0.71310  0.58724  1.0000
  C   C448      1.0  0.34494  0.69197  0.62166  1.0000
  H   H705      1.0  0.42483  0.83085  0.98482  1.0000
  H   H706      1.0  0.35740  0.70256  0.64875  1.0000
  C   C449      1.0  0.35429  0.70255  0.62180  1.0000
  H   H707      1.0  0.34102  0.68386  0.64813  1.0000
  H   H708      1.0  0.35959  0.72101  0.52585  1.0000
  C   C450      1.0  0.38837  0.78086  0.25686  1.0000
  H   H709      1.0  0.36562  0.78188  0.20713  1.0000
  H   H710      1.0  0.38076  0.77066  0.17906  1.0000
  H   H711      1.0  0.39858  0.78089  0.24883  1.0000
  C   C451      1.0  0.38484  0.77058  0.20517  1.0000
  H   H712      1.0  0.38747  0.78909  0.26971  1.0000
  N   N44       1.0  0.38330  0.78162  0.22130  1.0000
  H   H713      1.0  0.38326  0.77187  0.28138  1.0000
  H   H714      1.0  0.38913  0.80226  0.20014  1.0000
  H   H715      1.0  0.36419  0.77218  0.25683  1.0000
  H   H716      1.0  0.36813  0.78941  0.24610  1.0000
  C   C452      1.0  0.36970  0.78128  0.23340  1.0000
  C   C453      1.0  0.39029  0.79366  0.18960  1.0000
  H   H717      1.0  0.40062  0.79428  0.18029  1.0000
  H   H718      1.0  0.38699  0.79429  0.16176  1.0000
  C   C454      1.0  0.39823  0.75265  0.35170  1.0000
  C   C455      1.0  0.39671  0.75159  0.28421  1.0000
  Fe  Fe94      1.0  0.39599  0.75886  0.12407  1.0000
  H   H719      1.0  0.39502  0.77087  0.19410  1.0000
  H   H720      1.0  0.38008  0.76124  0.22845  1.0000
  S   S184      1.0  0.38763  0.75942  0.49739  1.0000
  H   H721      1.0  0.39823  0.76654  0.61615  1.0000
  H   H722      1.0  0.36539  0.74556  0.65250  1.0000
  H   H723      1.0  0.36676  0.76409  0.59642  1.0000
  C   C456      1.0  0.37658  0.76812  0.59721  1.0000
  H   H724      1.0  0.38159  0.74612  0.63222  1.0000
  H   H725      1.0  0.38303  0.76471  0.57557  1.0000
  C   C457      1.0  0.39140  0.76975  0.63741  1.0000
  N   N45       1.0  0.37818  0.76423  0.63830  1.0000
  C   C458      1.0  0.37519  0.75006  0.65239  1.0000
  H   H726      1.0  0.39305  0.76695  0.66774  1.0000
  H   H727      1.0  0.37618  0.74672  0.68343  1.0000
  C   C459      1.0  0.36952  0.76903  0.66606  1.0000
  H   H728      1.0  0.37154  0.77970  0.65605  1.0000
  H   H729      1.0  0.37887  0.77877  0.58528  1.0000
  H   H730      1.0  0.42554  0.71683  0.05993  1.0000
  H   H731      1.0  0.43023  0.76205  0.53674  1.0000
  H   H732      1.0  0.33101  0.67154  0.82438  1.0000
  C   C460      1.0  0.47815  0.67462  0.81399  1.0000
  H   H733      1.0  0.44925  0.82333  0.90975  1.0000
  C   C461      1.0  0.42727  0.74224  0.30346  1.0000
  Fe  Fe95      1.0  0.47318  0.68676  0.02286  1.0000
  H   H734      1.0  0.44682  0.72693  0.06252  1.0000
  H   H735      1.0  0.49209  0.80254  0.56367  1.0000
  H   H736      1.0  0.42557  0.75925  0.23834  1.0000
  C   C462      1.0  0.43111  0.79504  0.59992  1.0000
  H   H737      1.0  0.43695  0.68693  0.06913  1.0000
  H   H738      1.0  0.41768  0.74326  0.23966  1.0000
  C   C463      1.0  0.48255  0.70734  0.10300  1.0000
  H   H739      1.0  0.45237  0.69439  0.07156  1.0000
  H   H740      1.0  0.45827  0.71773  0.06621  1.0000
  H   H741      1.0  0.43881  0.69196  0.11317  1.0000
  C   C464      1.0  0.44938  0.74310  0.13450  1.0000
  H   H742      1.0  0.42285  0.81861  0.89517  1.0000
  C   C465      1.0  0.48240  0.71458  0.06520  1.0000
  S   S185      1.0  0.40052  0.74546  0.08649  1.0000
  S   S186      1.0  0.42670  0.73117  0.12578  1.0000
  C   C466      1.0  0.42708  0.70729  0.07311  1.0000
  C   C467      1.0  0.44516  0.71039  0.01659  1.0000
  S   S187      1.0  0.48775  0.67871  0.98882  1.0000
  C   C468      1.0  0.44223  0.69459  0.07958  1.0000
  C   C469      1.0  0.49044  0.72704  0.12111  1.0000
  H   H743      1.0  0.45256  0.74995  0.27180  1.0000
  C   C470      1.0  0.44355  0.75056  0.52672  1.0000
  C   C471      1.0  0.43831  0.74460  0.12382  1.0000
  S   S188      1.0  0.47825  0.70741  0.02768  1.0000
  H   H744      1.0  0.45131  0.73374  0.14079  1.0000
  H   H745      1.0  0.45538  0.71060  0.00657  1.0000
  C   C472      1.0  0.48587  0.72805  0.05619  1.0000
  H   H746      1.0  0.44578  0.76313  0.25637  1.0000
  H   H747      1.0  0.41145  0.80993  0.98729  1.0000
  C   C473      1.0  0.44799  0.71720  0.07527  1.0000
  H   H748      1.0  0.42117  0.69999  0.06306  1.0000
  N   N46       1.0  0.44062  0.70736  0.06113  1.0000
  S   S189      1.0  0.45935  0.68164  0.98747  1.0000
  H   H749      1.0  0.44407  0.71996  0.00171  1.0000
  Fe  Fe96      1.0  0.40805  0.73643  0.13641  1.0000
  H   H750      1.0  0.41761  0.73581  0.31065  1.0000
  H   H751      1.0  0.43989  0.70310  0.00484  1.0000
  H   H752      1.0  0.42605  0.75136  0.31047  1.0000
  H   H753      1.0  0.42340  0.70519  0.10655  1.0000
  S   S190      1.0  0.40031  0.73492  0.49019  1.0000
  H   H754      1.0  0.43224  0.73773  0.32460  1.0000
  H   H755      1.0  0.44495  0.71514  0.10880  1.0000
  C   C474      1.0  0.44681  0.75366  0.25204  1.0000
  N   N47       1.0  0.43437  0.74453  0.26074  1.0000
  C   C475      1.0  0.42711  0.74993  0.23398  1.0000
  C   C476      1.0  0.43329  0.82789  0.97047  1.0000
  H   H756      1.0  0.44179  0.72791  0.27270  1.0000
  H   H757      1.0  0.46595  0.75233  0.14884  1.0000
  S   S191      1.0  0.43266  0.73808  0.52009  1.0000
  H   H758      1.0  0.49462  0.80265  0.03494  1.0000
  H   H759      1.0  0.47167  0.79272  0.61387  1.0000
  C   C477      1.0  0.48891  0.81140  0.55477  1.0000
  C   C478      1.0  0.48665  0.72078  0.54324  1.0000
  H   H760      1.0  0.43608  0.69367  0.62942  1.0000
  H   H761      1.0  0.47417  0.80480  0.02108  1.0000
  H   H762      1.0  0.46073  0.72102  0.55565  1.0000
  H   H763      1.0  0.46556  0.71749  0.62154  1.0000
  H   H764      1.0  0.42746  0.70539  0.61629  1.0000
  S   S192      1.0  0.44075  0.81515  0.62834  1.0000
  H   H765      1.0  0.43774  0.72860  0.60099  1.0000
  H   H766      1.0  0.45315  0.70944  0.66731  1.0000
  C   C479      1.0  0.48475  0.70901  0.57193  1.0000
  H   H767      1.0  0.45896  0.74152  0.51749  1.0000
  H   H768      1.0  0.45825  0.70073  0.63205  1.0000
  S   S193      1.0  0.47524  0.69502  0.56656  1.0000
  N   N48       1.0  0.44686  0.71328  0.61335  1.0000
  H   H769      1.0  0.48454  0.81063  0.52966  1.0000
  C   C480      1.0  0.47218  0.67118  0.85577  1.0000
  C   C481      1.0  0.45147  0.71385  0.57017  1.0000
  H   H770      1.0  0.48255  0.72103  0.51809  1.0000
  C   C482      1.0  0.43481  0.70328  0.63171  1.0000
  H   H771      1.0  0.34265  0.70273  0.52623  1.0000
  H   H772      1.0  0.45287  0.70443  0.56628  1.0000
  H   H773      1.0  0.36495  0.67366  0.05773  1.0000
  H   H774      1.0  0.43104  0.70252  0.66435  1.0000
  H   H775      1.0  0.45374  0.73362  0.60317  1.0000
  C   C483      1.0  0.45635  0.71010  0.63454  1.0000
  C   C484      1.0  0.44480  0.72587  0.61686  1.0000
  H   H776      1.0  0.44130  0.72581  0.64901  1.0000
  H   H777      1.0  0.47952  0.69699  0.11106  1.0000
  Fe  Fe97      1.0  0.41564  0.74517  0.51190  1.0000
  C   C485      1.0  0.45606  0.74987  0.52340  1.0000
  S   S194      1.0  0.40257  0.74905  0.56301  1.0000
  C   C486      1.0  0.41303  0.80505  0.07890  1.0000
  H   H778      1.0  0.48629  0.79493  0.08701  1.0000
  H   H779      1.0  0.45072  0.75971  0.43995  1.0000
  C   C487      1.0  0.42085  0.78879  0.11684  1.0000
  H   H780      1.0  0.49232  0.68975  0.05808  1.0000
  N   N49       1.0  0.48222  0.81285  0.06286  1.0000
  H   H781      1.0  0.43729  0.82359  0.99490  1.0000
  Fe  Fe98      1.0  0.48107  0.77392  0.15995  1.0000
  S   S195      1.0  0.46346  0.77819  0.14662  1.0000
  C   C488      1.0  0.41619  0.80763  0.56017  1.0000
  H   H782      1.0  0.49258  0.74463  0.07634  1.0000
  H   H783      1.0  0.40586  0.80770  0.06502  1.0000
  C   C489      1.0  0.45475  0.76557  0.13352  1.0000
  C   C490      1.0  0.44418  0.76722  0.12009  1.0000
  C   C491      1.0  0.45763  0.75361  0.13929  1.0000
  H   H784      1.0  0.44215  0.77652  0.11452  1.0000
  C   C492      1.0  0.48675  0.71355  0.13044  1.0000
  S   S196      1.0  0.41834  0.76440  0.46934  1.0000
  H   H785      1.0  0.47249  0.80575  0.12625  1.0000
  H   H786      1.0  0.41037  0.81257  0.54499  1.0000
  S   S197      1.0  0.40513  0.75088  0.17108  1.0000
  C   C493      1.0  0.48975  0.73426  0.08404  1.0000
  H   H787      1.0  0.41991  0.77886  0.13189  1.0000
  S   S198      1.0  0.48144  0.75693  0.20698  1.0000
  C   C494      1.0  0.49019  0.70879  0.60411  1.0000
  C   C495      1.0  0.41176  0.79207  0.09783  1.0000
  H   H788      1.0  0.43816  0.79580  0.13155  1.0000
  H   H789      1.0  0.47501  0.78193  0.34848  1.0000
  C   C496      1.0  0.43600  0.75677  0.11505  1.0000
  H   H790      1.0  0.44035  0.77223  0.39654  1.0000
  H   H791      1.0  0.46301  0.76066  0.39607  1.0000
  S   S199      1.0  0.39848  0.78034  0.09819  1.0000
  H   H792      1.0  0.43683  0.79004  0.61543  1.0000
  H   H793      1.0  0.46700  0.76588  0.43757  1.0000
  C   C497      1.0  0.44988  0.77804  0.37707  1.0000
  H   H794      1.0  0.47165  0.79631  0.35897  1.0000
  S   S200      1.0  0.40608  0.76045  0.38158  1.0000
  H   H795      1.0  0.42775  0.75810  0.10511  1.0000
  H   H796      1.0  0.44152  0.73368  0.22124  1.0000
  S   S201      1.0  0.48098  0.67571  0.88879  1.0000
  N   N50       1.0  0.45930  0.77879  0.40057  1.0000
  C   C498      1.0  0.46005  0.76568  0.41932  1.0000
  H   H797      1.0  0.46589  0.79734  0.07342  1.0000
  H   H798      1.0  0.44888  0.78774  0.36310  1.0000
  C   C499      1.0  0.47183  0.78632  0.37332  1.0000
  C   C500      1.0  0.43120  0.79840  0.11650  1.0000
  H   H799      1.0  0.44607  0.77960  0.45388  1.0000
  C   C501      1.0  0.45545  0.78508  0.43259  1.0000
  C   C502      1.0  0.43267  0.81132  0.09658  1.0000
  H   H800      1.0  0.45469  0.79496  0.41974  1.0000
  H   H801      1.0  0.46868  0.82615  0.60156  1.0000
  N   N51       1.0  0.43010  0.81881  0.94684  1.0000
  Fe  Fe99      1.0  0.40194  0.75458  0.45055  1.0000
  H   H802      1.0  0.46238  0.78582  0.45084  1.0000
  H   H803      1.0  0.48672  0.76589  0.37483  1.0000
  H   H804      1.0  0.45262  0.77350  0.35232  1.0000
  C   C503      1.0  0.42349  0.81464  0.07799  1.0000
  C   C504      1.0  0.46496  0.76017  0.52646  1.0000
  S   S202      1.0  0.44590  0.82298  0.09690  1.0000
  C   C505      1.0  0.47155  0.67112  0.78670  1.0000
  C   C506      1.0  0.42024  0.80735  0.97361  1.0000
  H   H805      1.0  0.45244  0.75548  0.22017  1.0000
  H   H806      1.0  0.43215  0.75169  0.20159  1.0000
  H   H807      1.0  0.48793  0.68012  0.80267  1.0000
  H   H808      1.0  0.47921  0.78695  0.38999  1.0000
  H   H809      1.0  0.42432  0.82462  0.06375  1.0000
  S   S203      1.0  0.46183  0.83083  0.67806  1.0000
  H   H810      1.0  0.41031  0.76599  0.29602  1.0000
  H   H811      1.0  0.40007  0.75548  0.25180  1.0000
  H   H812      1.0  0.48949  0.80548  0.63228  1.0000
  C   C507      1.0  0.40248  0.75754  0.30937  1.0000
  H   H813      1.0  0.48881  0.69980  0.62641  1.0000
  H   H814      1.0  0.34699  0.67750  0.15151  1.0000
  Fe  Fe100     1.0  0.44800  0.83440  0.64170  1.0000
  H   H815      1.0  0.42705  0.72517  0.25944  1.0000
  C   C508      1.0  0.43626  0.73227  0.25330  1.0000
  C   C509      1.0  0.49100  0.80444  0.06472  1.0000
  C   C510      1.0  0.44154  0.81489  0.92950  1.0000
  C   C511      1.0  0.43990  0.76148  0.53368  1.0000
  H   H816      1.0  0.46201  0.80264  0.63237  1.0000
  Fe  Fe101     1.0  0.49239  0.78281  0.52436  1.0000
  H   H817      1.0  0.47990  0.81580  0.64813  1.0000
  H   H818      1.0  0.35946  0.76507  0.66743  1.0000
  C   C512      1.0  0.47121  0.80670  0.05101  1.0000
  H   H819      1.0  0.44606  0.78040  0.54059  1.0000
  Fe  Fe102     1.0  0.46836  0.67529  0.61239  1.0000
  H   H820      1.0  0.48372  0.83347  0.56480  1.0000
  C   C513      1.0  0.42361  0.78865  0.57926  1.0000
  S   S204      1.0  0.40583  0.78708  0.53460  1.0000
  H   H821      1.0  0.47089  0.82414  0.55197  1.0000
  Fe  Fe103     1.0  0.40415  0.76775  0.51913  1.0000
  C   C514      1.0  0.41608  0.79491  0.55921  1.0000
  H   H822      1.0  0.33119  0.69711  0.70382  1.0000
  C   C515      1.0  0.47566  0.82476  0.57628  1.0000
  C   C516      1.0  0.43126  0.80778  0.60079  1.0000
  H   H823      1.0  0.47457  0.75956  0.52392  1.0000
  S   S205      1.0  0.49125  0.76867  0.29050  1.0000
  C   C517      1.0  0.48883  0.82532  0.03274  1.0000
  H   H824      1.0  0.46353  0.80094  0.58231  1.0000
  N   N52       1.0  0.47990  0.81306  0.58954  1.0000
  H   H825      1.0  0.42371  0.82381  0.58097  1.0000
  C   C518      1.0  0.42377  0.81405  0.58057  1.0000
  H   H826      1.0  0.34328  0.69349  0.03340  1.0000
  H   H827      1.0  0.42359  0.77886  0.57920  1.0000
  C   C519      1.0  0.44883  0.77183  0.53619  1.0000
  C   C520      1.0  0.46881  0.80184  0.60530  1.0000
  C   C521      1.0  0.46141  0.77127  0.53203  1.0000
  H   H828      1.0  0.44527  0.80990  0.95363  1.0000
  H   H829      1.0  0.41681  0.82839  0.92565  1.0000
  H   H830      1.0  0.42350  0.80235  0.99900  1.0000
  Fe  Fe104     1.0  0.47338  0.67225  0.95686  1.0000
  H   H831      1.0  0.46441  0.81282  0.04926  1.0000
  C   C522      1.0  0.49377  0.73224  0.54684  1.0000
  C   C523      1.0  0.47780  0.81495  0.10306  1.0000
  H   H832      1.0  0.41760  0.80026  0.95683  1.0000
  H   H833      1.0  0.47624  0.67400  0.75464  1.0000
  H   H834      1.0  0.48572  0.73378  0.02720  1.0000
  H   H835      1.0  0.43956  0.80828  0.91064  1.0000
  C   C524      1.0  0.42536  0.82514  0.91375  1.0000
  H   H836      1.0  0.43262  0.83377  0.89287  1.0000
  H   H837      1.0  0.49484  0.82246  0.61044  1.0000
  S   S206      1.0  0.44871  0.67016  0.65459  1.0000
  H   H838      1.0  0.49212  0.82414  0.00187  1.0000
  H   H839      1.0  0.48252  0.83198  0.03092  1.0000
  H   H840      1.0  0.37099  0.66958  0.01179  1.0000
  H   H841      1.0  0.49508  0.74117  0.52457  1.0000
  H   H842      1.0  0.49313  0.87495  0.01670  1.0000
  H   H843      1.0  0.49095  0.00034  0.20932  1.0000
  N   N53       1.0  0.47769  0.93024  0.47922  1.0000
  H   H844      1.0  0.46379  0.84967  0.89813  1.0000
  H   H845      1.0  0.49480  0.85366  0.12873  1.0000
  C   C525      1.0  0.47554  0.89730  0.08653  1.0000
  Fe  Fe105     1.0  0.45370  0.84278  0.05233  1.0000
  C   C526      1.0  0.48090  0.93588  0.43499  1.0000
  H   H846      1.0  0.46819  0.88797  0.79580  1.0000
  S   S207      1.0  0.44511  0.85946  0.03691  1.0000
  H   H847      1.0  0.48300  0.92496  0.11533  1.0000
  Fe  Fe106     1.0  0.46322  0.87200  0.04059  1.0000
  H   H848      1.0  0.47774  0.92866  0.41931  1.0000
  C   C527      1.0  0.46385  0.92489  0.49558  1.0000
  Fe  Fe107     1.0  0.47918  0.85775  0.99533  1.0000
  H   H849      1.0  0.48387  0.87200  0.72429  1.0000
  S   S208      1.0  0.46200  0.85176  0.59547  1.0000
  H   H850      1.0  0.47994  0.88416  0.59326  1.0000
  S   S209      1.0  0.46379  0.88924  0.06736  1.0000
  H   H851      1.0  0.48291  0.91318  0.00643  1.0000
  C   C528      1.0  0.48618  0.89283  0.09080  1.0000
  S   S210      1.0  0.47085  0.85506  0.06135  1.0000
  C   C529      1.0  0.47444  0.90886  0.09601  1.0000
  C   C530      1.0  0.48395  0.91602  0.10868  1.0000
  N   N54       1.0  0.47628  0.88789  0.73446  1.0000
  H   H852      1.0  0.48705  0.88387  0.08425  1.0000
  H   H853      1.0  0.46621  0.91238  0.09312  1.0000
  H   H854      1.0  0.46101  0.87191  0.73985  1.0000
  H   H855      1.0  0.48914  0.90637  0.72207  1.0000
  H   H856      1.0  0.47887  0.96787  0.31779  1.0000
  H   H857      1.0  0.48048  0.90497  0.68544  1.0000
  C   C531      1.0  0.46033  0.84532  0.84405  1.0000
  C   C532      1.0  0.48708  0.96630  0.32765  1.0000
  S   S211      1.0  0.49337  0.95907  0.25868  1.0000
  C   C533      1.0  0.47978  0.90202  0.71840  1.0000
  C   C534      1.0  0.47552  0.88430  0.77807  1.0000
  S   S212      1.0  0.47277  0.87544  0.97452  1.0000
  Fe  Fe108     1.0  0.45521  0.86323  0.63778  1.0000
  S   S213      1.0  0.46953  0.86107  0.67238  1.0000
  Fe  Fe109     1.0  0.47511  0.84846  0.63397  1.0000
  H   H858      1.0  0.48131  0.97215  0.38162  1.0000
  C   C535      1.0  0.48846  0.96872  0.36397  1.0000
  H   H859      1.0  0.44042  0.83682  0.95100  1.0000
  H   H860      1.0  0.48473  0.88814  0.78362  1.0000
  S   S214      1.0  0.43989  0.84619  0.68170  1.0000
  H   H861      1.0  0.49466  0.92371  0.47753  1.0000
  Fe  Fe110     1.0  0.45561  0.86155  0.97218  1.0000
  H   H862      1.0  0.47772  0.92765  0.60556  1.0000
  S   S215      1.0  0.44678  0.86556  0.91990  1.0000
  H   H863      1.0  0.49291  0.98659  0.24317  1.0000
  C   C536      1.0  0.47947  0.89360  0.59618  1.0000
  H   H864      1.0  0.45795  0.91063  0.61849  1.0000
  C   C537      1.0  0.49476  0.91172  0.11182  1.0000
  S   S216      1.0  0.46294  0.84408  0.98772  1.0000
  C   C538      1.0  0.45371  0.84723  0.81461  1.0000
  H   H865      1.0  0.45867  0.93245  0.48960  1.0000
  C   C539      1.0  0.45875  0.85137  0.87541  1.0000
  C   C540      1.0  0.45035  0.85922  0.87800  1.0000
  C   C541      1.0  0.44573  0.85554  0.81613  1.0000
  C   C542      1.0  0.46765  0.89614  0.60745  1.0000
  H   H866      1.0  0.48654  0.90944  0.95888  1.0000
  S   S217      1.0  0.45358  0.88385  0.61930  1.0000
  H   H867      1.0  0.46114  0.92054  0.52895  1.0000
  H   H868      1.0  0.43750  0.86753  0.84962  1.0000
  H   H869      1.0  0.48653  0.88489  0.67968  1.0000
  C   C543      1.0  0.44406  0.86150  0.84775  1.0000
  C   C544      1.0  0.47827  0.91828  0.60191  1.0000
  C   C545      1.0  0.46385  0.88258  0.72869  1.0000
  H   H870      1.0  0.44036  0.85687  0.79417  1.0000
  C   C546      1.0  0.49012  0.91562  0.59132  1.0000
  H   H871      1.0  0.46652  0.83891  0.84306  1.0000
  H   H872      1.0  0.49185  0.93627  0.97419  1.0000
  H   H873      1.0  0.47742  0.94848  0.49156  1.0000
  C   C547      1.0  0.49064  0.90325  0.58836  1.0000
  H   H874      1.0  0.49227  0.90201  0.99929  1.0000
  H   H875      1.0  0.45625  0.88618  0.74530  1.0000
  H   H876      1.0  0.47265  0.90635  0.73405  1.0000
  H   H877      1.0  0.46037  0.91723  0.48183  1.0000
  C   C548      1.0  0.46708  0.90859  0.60963  1.0000
  Fe  Fe111     1.0  0.45493  0.84374  0.71395  1.0000
  H   H878      1.0  0.46400  0.88518  0.69614  1.0000
  H   H879      1.0  0.47948  0.93656  0.53177  1.0000
  H   H880      1.0  0.49502  0.93298  0.92575  1.0000
  H   H881      1.0  0.47295  0.87366  0.79084  1.0000
  H   H882      1.0  0.48161  0.91516  0.52092  1.0000
  C   C549      1.0  0.48186  0.94033  0.49837  1.0000
  H   H883      1.0  0.47643  0.94394  0.42731  1.0000
  C   C550      1.0  0.49048  0.91117  0.98412  1.0000
  C   C551      1.0  0.48599  0.88264  0.71249  1.0000
  S   S218      1.0  0.45423  0.83758  0.78066  1.0000
  H   H884      1.0  0.48157  0.91233  0.47287  1.0000
  H   H885      1.0  0.49131  0.93986  0.42180  1.0000
  H   H886      1.0  0.49227  0.94443  0.48711  1.0000
  C   C552      1.0  0.48418  0.91991  0.48794  1.0000
  H   H887      1.0  0.49501  0.87479  0.60862  1.0000
  Fe  Fe112     1.0  0.58054  0.08794  0.02942  1.0000
  H   H888      1.0  0.65133  0.15383  0.13743  1.0000
  H   H889      1.0  0.58976  0.04483  0.54573  1.0000
  S   S219      1.0  0.62834  0.16688  0.16673  1.0000
  H   H890      1.0  0.57239  0.12084  0.10882  1.0000
  S   S220      1.0  0.57601  0.10370  0.05889  1.0000
  H   H891      1.0  0.64018  0.16198  0.08842  1.0000
  Fe  Fe113     1.0  0.57344  0.05841  0.04072  1.0000
  H   H892      1.0  0.65495  0.09190  0.05050  1.0000
  H   H893      1.0  0.65283  0.15530  0.51972  1.0000
  C   C553      1.0  0.55071  0.01196  0.46803  1.0000
  C   C554      1.0  0.59088  0.13210  0.10536  1.0000
  H   H894      1.0  0.56784  0.02844  0.40211  1.0000
  C   C555      1.0  0.54911  0.03126  0.48814  1.0000
  S   S221      1.0  0.56615  0.07474  0.01054  1.0000
  H   H895      1.0  0.61183  0.02503  0.10440  1.0000
  C   C556      1.0  0.63213  0.09925  0.90221  1.0000
  C   C557      1.0  0.63828  0.13607  0.58334  1.0000
  H   H896      1.0  0.50974  0.01566  0.15751  1.0000
  H   H897      1.0  0.62940  0.10838  0.89247  1.0000
  S   S222      1.0  0.56426  0.03917  0.08882  1.0000
  C   C558      1.0  0.55213  0.01351  0.11576  1.0000
  H   H898      1.0  0.57833  0.15852  0.10175  1.0000
  H   H899      1.0  0.55505  0.01385  0.14290  1.0000
  S   S223      1.0  0.58642  0.07152  0.06357  1.0000
  H   H900      1.0  0.65752  0.02681  0.12798  1.0000
  H   H901      1.0  0.63683  0.13563  0.48820  1.0000
  H   H902      1.0  0.58720  0.13740  0.12558  1.0000
  C   C559      1.0  0.54463  0.01248  0.04600  1.0000
  C   C560      1.0  0.56143  0.03271  0.42106  1.0000
  C   C561      1.0  0.59911  0.11982  0.60040  1.0000
  C   C562      1.0  0.55556  0.02472  0.08342  1.0000
  N   N55       1.0  0.55754  0.02525  0.46404  1.0000
  C   C563      1.0  0.55186  0.02412  0.04836  1.0000
  H   H903      1.0  0.55441  0.03266  0.02325  1.0000
  H   H904      1.0  0.54171  0.01216  0.01885  1.0000
  C   C564      1.0  0.58249  0.12261  0.09604  1.0000
  C   C565      1.0  0.58703  0.11525  0.07082  1.0000
  H   H905      1.0  0.64495  0.08163  0.88973  1.0000
  H   H906      1.0  0.65065  0.01363  0.29611  1.0000
  C   C566      1.0  0.65247  0.05164  0.06249  1.0000
  S   S224      1.0  0.58841  0.05993  0.98441  1.0000
  N   N56       1.0  0.65349  0.15058  0.07866  1.0000
  C   C567      1.0  0.65480  0.03412  0.59606  1.0000
  C   C568      1.0  0.63358  0.13654  0.51939  1.0000
  H   H907      1.0  0.58932  0.16004  0.99361  1.0000
  H   H908      1.0  0.59526  0.01943  0.13093  1.0000
  C   C569      1.0  0.53758  0.02166  0.60453  1.0000
  C   C570      1.0  0.56820  0.05855  0.81200  1.0000
  H   H909      1.0  0.55565  0.08258  0.70425  1.0000
  S   S225      1.0  0.57768  0.04461  0.67832  1.0000
  S   S226      1.0  0.58469  0.08290  0.88751  1.0000
  C   C571      1.0  0.55197  0.00840  0.59129  1.0000
  S   S227      1.0  0.59590  0.09134  0.97237  1.0000
  H   H910      1.0  0.59088  0.04542  0.59510  1.0000
  C   C572      1.0  0.56850  0.06197  0.87815  1.0000
  S   S228      1.0  0.56109  0.04974  0.78283  1.0000
  H   H911      1.0  0.58244  0.07213  0.76143  1.0000
  H   H912      1.0  0.57810  0.09291  0.73621  1.0000
  C   C573      1.0  0.57540  0.12184  0.59139  1.0000
  H   H913      1.0  0.55899  0.07508  0.74997  1.0000
  H   H914      1.0  0.55448  0.10508  0.68994  1.0000
  H   H915      1.0  0.57541  0.02047  0.46193  1.0000
  H   H916      1.0  0.56047  0.10346  0.79086  1.0000
  C   C574      1.0  0.55671  0.09405  0.78566  1.0000
  C   C575      1.0  0.58938  0.10867  0.60845  1.0000
  H   H917      1.0  0.56631  0.01972  0.51141  1.0000
  Fe  Fe114     1.0  0.59022  0.06368  0.64028  1.0000
  C   C576      1.0  0.58338  0.07663  0.81738  1.0000
  Fe  Fe115     1.0  0.61507  0.16314  0.12840  1.0000
  Fe  Fe116     1.0  0.56750  0.05585  0.71408  1.0000
  C   C577      1.0  0.54959  0.01944  0.60218  1.0000
  H   H918      1.0  0.55549  0.04645  0.86876  1.0000
  H   H919      1.0  0.59112  0.08511  0.80286  1.0000
  C   C578      1.0  0.57288  0.09947  0.72236  1.0000
  Fe  Fe117     1.0  0.58223  0.07703  0.95543  1.0000
  H   H920      1.0  0.53554  0.03005  0.61294  1.0000
  H   H921      1.0  0.56460  0.05910  0.91067  1.0000
  N   N57       1.0  0.55911  0.09498  0.74201  1.0000
  C   C579      1.0  0.57840  0.06936  0.79374  1.0000
  C   C580      1.0  0.57845  0.07300  0.85965  1.0000
  H   H922      1.0  0.54640  0.09079  0.80142  1.0000
  H   H923      1.0  0.54387  0.07840  0.75183  1.0000
  C   C581      1.0  0.55419  0.08221  0.73679  1.0000
  C   C582      1.0  0.57740  0.10960  0.60463  1.0000
  Fe  Fe118     1.0  0.56864  0.07610  0.63866  1.0000
  H   H924      1.0  0.58565  0.02130  0.56671  1.0000
  S   S229      1.0  0.56234  0.03058  0.60854  1.0000
  H   H925      1.0  0.51919  0.01526  0.59530  1.0000
  H   H926      1.0  0.57687  0.10922  0.72477  1.0000
  C   C583      1.0  0.65306  0.05491  0.56169  1.0000
  H   H927      1.0  0.57502  0.09998  0.68962  1.0000
  S   S230      1.0  0.56468  0.09564  0.61843  1.0000
  H   H928      1.0  0.54226  0.10103  0.73662  1.0000
  S   S231      1.0  0.55394  0.05764  0.67545  1.0000
  H   H929      1.0  0.57430  0.03499  0.47617  1.0000
  C   C584      1.0  0.56334  0.05483  0.85433  1.0000
  H   H930      1.0  0.58655  0.02182  0.61640  1.0000
  C   C585      1.0  0.55270  0.10417  0.72302  1.0000
  H   H931      1.0  0.51746  0.01766  0.19620  1.0000
  Fe  Fe119     1.0  0.56526  0.04761  0.63644  1.0000
  S   S232      1.0  0.57863  0.06638  0.59644  1.0000
  C   C586      1.0  0.52832  0.01325  0.59441  1.0000
  H   H932      1.0  0.56617  0.12267  0.58816  1.0000
  H   H933      1.0  0.55614  0.11393  0.72635  1.0000
  H   H934      1.0  0.56131  0.08702  0.80079  1.0000
  S   S233      1.0  0.58127  0.07464  0.67972  1.0000
  C   C587      1.0  0.58527  0.13305  0.58228  1.0000
  C   C588      1.0  0.59231  0.02231  0.58574  1.0000
  C   C589      1.0  0.56889  0.02512  0.47891  1.0000
  H   H935      1.0  0.60366  0.05473  0.55184  1.0000
  H   H936      1.0  0.58361  0.14242  0.57219  1.0000
  H   H937      1.0  0.64621  0.05365  0.04388  1.0000
  H   H938      1.0  0.59116  0.09936  0.61801  1.0000
  H   H939      1.0  0.62886  0.07376  0.91817  1.0000
  H   H940      1.0  0.64159  0.07379  0.03631  1.0000
  H   H941      1.0  0.59361  0.04144  0.16869  1.0000
  C   C590      1.0  0.60012  0.11753  0.05494  1.0000
  C   C591      1.0  0.62888  0.08462  0.01748  1.0000
  H   H942      1.0  0.62228  0.04840  0.08162  1.0000
  H   H943      1.0  0.61752  0.09773  0.00275  1.0000
  C   C592      1.0  0.64392  0.00434  0.30821  1.0000
  C   C593      1.0  0.59716  0.13208  0.58715  1.0000
  H   H944      1.0  0.57857  0.15089  0.04192  1.0000
  H   H945      1.0  0.62966  0.12820  0.60029  1.0000
  N   N58       1.0  0.60239  0.03996  0.10970  1.0000
  Fe  Fe120     1.0  0.62935  0.00710  0.12734  1.0000
  C   C594      1.0  0.60397  0.13457  0.08871  1.0000
  S   S234      1.0  0.61512  0.14701  0.09670  1.0000
  C   C595      1.0  0.64709  0.09332  0.03857  1.0000
  H   H946      1.0  0.61858  0.12892  0.05068  1.0000
  H   H947      1.0  0.59504  0.16029  0.09421  1.0000
  H   H948      1.0  0.59829  0.05047  0.05738  1.0000
  C   C596      1.0  0.63377  0.10695  0.01842  1.0000
  Fe  Fe121     1.0  0.63624  0.00370  0.44811  1.0000
  C   C597      1.0  0.59949  0.04082  0.07043  1.0000
  C   C598      1.0  0.65883  0.15331  0.11157  1.0000
  C   C599      1.0  0.63939  0.08301  0.03125  1.0000
  Fe  Fe122     1.0  0.63521  0.01571  0.52091  1.0000
  H   H949      1.0  0.60353  0.03375  0.50699  1.0000
  H   H950      1.0  0.63762  0.11463  0.55857  1.0000
  H   H951      1.0  0.62453  0.12908  0.53508  1.0000
  S   S235      1.0  0.62813  0.01939  0.46519  1.0000
  H   H952      1.0  0.61691  0.04916  0.13270  1.0000
  H   H953      1.0  0.60727  0.03919  0.04789  1.0000
  S   S236      1.0  0.63834  0.02686  0.08273  1.0000
  H   H954      1.0  0.55387  0.04133  0.48579  1.0000
  S   S237      1.0  0.62013  0.07186  0.00500  1.0000
  H   H955      1.0  0.63132  0.14603  0.51678  1.0000
  H   H956      1.0  0.60379  0.11197  0.03554  1.0000
  H   H957      1.0  0.59042  0.05196  0.12755  1.0000
  C   C600      1.0  0.51581  0.01164  0.17541  1.0000
  C   C601      1.0  0.64464  0.10544  0.03038  1.0000
  C   C602      1.0  0.60850  0.12718  0.06364  1.0000
  H   H958      1.0  0.55308  0.03298  0.40889  1.0000
  H   H959      1.0  0.63565  0.14530  0.58339  1.0000
  C   C603      1.0  0.61420  0.04971  0.10396  1.0000
  H   H960      1.0  0.54201  0.01167  0.45757  1.0000
  C   C604      1.0  0.65479  0.14571  0.52092  1.0000
  H   H961      1.0  0.54029  0.03130  0.47852  1.0000
  H   H962      1.0  0.63599  0.13834  0.11996  1.0000
  H   H963      1.0  0.64536  0.13529  0.60090  1.0000
  C   C605      1.0  0.58781  0.16520  0.08593  1.0000
  C   C606      1.0  0.59184  0.04223  0.13852  1.0000
  H   H964      1.0  0.61325  0.05962  0.09239  1.0000
  C   C607      1.0  0.62579  0.09648  0.01246  1.0000
  Fe  Fe123     1.0  0.60068  0.07402  0.00538  1.0000
  H   H965      1.0  0.63172  0.11627  0.01269  1.0000
  H   H966      1.0  0.59054  0.03372  0.07358  1.0000
  H   H967      1.0  0.58273  0.03519  0.14273  1.0000
  S   S238      1.0  0.61974  0.00440  0.19287  1.0000
  S   S239      1.0  0.65577  0.11875  0.03181  1.0000
  H   H968      1.0  0.60645  0.02606  0.15507  1.0000
  H   H969      1.0  0.64782  0.13007  0.10462  1.0000
  C   C608      1.0  0.60403  0.02704  0.12576  1.0000
  H   H970      1.0  0.65873  0.14550  0.48926  1.0000
  S   S240      1.0  0.61095  0.06546  0.61671  1.0000
  H   H971      1.0  0.62311  0.06366  0.74591  1.0000
  H   H972      1.0  0.63787  0.07365  0.59533  1.0000
  H   H973      1.0  0.64299  0.04083  0.72862  1.0000
  C   C609      1.0  0.63967  0.09876  0.83293  1.0000
  H   H974      1.0  0.65298  0.02386  0.60043  1.0000
  S   S241      1.0  0.64769  0.11074  0.64772  1.0000
  H   H975      1.0  0.65985  0.14755  0.02014  1.0000
  N   N59       1.0  0.64321  0.13525  0.54171  1.0000
  H   H976      1.0  0.61838  0.06456  0.70007  1.0000
  H   H977      1.0  0.63941  0.09306  0.81056  1.0000
  S   S242      1.0  0.64653  0.00651  0.38240  1.0000
  N   N60       1.0  0.60231  0.03446  0.56820  1.0000
  H   H978      1.0  0.62081  0.10508  0.65785  1.0000
  H   H979      1.0  0.62073  0.03092  0.73117  1.0000
  S   S243      1.0  0.59168  0.00674  0.50362  1.0000
  C   C610      1.0  0.63386  0.05124  0.66878  1.0000
  Fe  Fe124     1.0  0.61104  0.00366  0.50141  1.0000
  H   H980      1.0  0.61460  0.09686  0.86155  1.0000
  H   H981      1.0  0.60573  0.03565  0.62511  1.0000
  H   H982      1.0  0.63930  0.13598  0.07036  1.0000
  H   H983      1.0  0.56656  0.04281  0.41697  1.0000
  H   H984      1.0  0.63439  0.07175  0.69778  1.0000
  H   H985      1.0  0.65007  0.12177  0.51240  1.0000
  H   H986      1.0  0.65233  0.09079  0.61005  1.0000
  C   C611      1.0  0.65880  0.03649  0.10985  1.0000
  H   H987      1.0  0.61544  0.02732  0.59780  1.0000
  C   C612      1.0  0.65061  0.03904  0.08605  1.0000
  C   C613      1.0  0.59642  0.04537  0.56488  1.0000
  H   H988      1.0  0.54619  0.02595  0.52069  1.0000
  H   H989      1.0  0.54762  0.00605  0.50003  1.0000
  H   H990      1.0  0.60819  0.11889  0.60454  1.0000
  H   H991      1.0  0.64866  0.05786  0.71447  1.0000
  C   C614      1.0  0.58814  0.15751  0.02679  1.0000
  H   H992      1.0  0.63696  0.04245  0.66540  1.0000
  H   H993      1.0  0.61050  0.04102  0.71906  1.0000
  C   C615      1.0  0.62622  0.06330  0.71406  1.0000
  C   C616      1.0  0.62106  0.07915  0.62040  1.0000
  C   C617      1.0  0.61631  0.08824  0.63698  1.0000
  C   C618      1.0  0.62454  0.09820  0.64435  1.0000
  C   C619      1.0  0.63752  0.09894  0.63568  1.0000
  C   C620      1.0  0.64231  0.09015  0.61764  1.0000
  C   C621      1.0  0.63411  0.08041  0.60937  1.0000
  H   H994      1.0  0.60632  0.08756  0.64457  1.0000
  H   H995      1.0  0.61504  0.03984  0.76528  1.0000
  H   H996      1.0  0.61867  0.04445  0.58153  1.0000
  C   C622      1.0  0.61798  0.08812  0.87118  1.0000
  N   N61       1.0  0.63121  0.09142  0.87342  1.0000
  C   C623      1.0  0.64773  0.16100  0.06371  1.0000
  C   C624      1.0  0.61848  0.04023  0.73280  1.0000
  C   C625      1.0  0.65053  0.04154  0.56675  1.0000
  C   C626      1.0  0.64621  0.12271  0.54321  1.0000
  H   H997      1.0  0.64201  0.05962  0.65199  1.0000
  C   C627      1.0  0.64374  0.13822  0.09418  1.0000
  H   H998      1.0  0.63446  0.07334  0.86661  1.0000
  H   H999      1.0  0.63697  0.10775  0.82104  1.0000
  C   C628      1.0  0.64007  0.04983  0.73040  1.0000
  H   H1000     1.0  0.62624  0.05192  0.65347  1.0000
  H   H1001     1.0  0.64191  0.10173  0.90544  1.0000
  H   H1002     1.0  0.61136  0.08240  0.90112  1.0000
  H   H1003     1.0  0.62573  0.09401  0.93286  1.0000
  H   H1004     1.0  0.64972  0.10151  0.83358  1.0000
  H   H1005     1.0  0.63738  0.04984  0.76270  1.0000
  N   N62       1.0  0.62964  0.05114  0.71161  1.0000
  H   H1006     1.0  0.65334  0.12133  0.56029  1.0000
  S   S244      1.0  0.64163  0.03473  0.53665  1.0000
  S   S245      1.0  0.60979  0.14569  0.57908  1.0000
  C   C629      1.0  0.61088  0.03548  0.59447  1.0000
  H   H1007     1.0  0.61432  0.02669  0.52948  1.0000
  H   H1008     1.0  0.61687  0.08237  0.84936  1.0000
  C   C630      1.0  0.60966  0.03472  0.52762  1.0000
  H   H1009     1.0  0.64983  0.06079  0.53920  1.0000
  H   H1010     1.0  0.61732  0.04374  0.51351  1.0000
  H   H1011     1.0  0.59637  0.01382  0.58823  1.0000
  Fe  Fe125     1.0  0.61341  0.16694  0.54653  1.0000
  C   C631      1.0  0.63503  0.07950  0.88759  1.0000
  C   C632      1.0  0.65977  0.06078  0.58527  1.0000
  H   H1012     1.0  0.56115  0.00645  0.58984  1.0000
  H   H1013     1.0  0.55677  0.00708  0.45038  1.0000
  H   H1014     1.0  0.60061  0.16112  0.35727  1.0000
  S   S246      1.0  0.60674  0.16846  0.27057  1.0000
  H   H1015     1.0  0.52514  0.01283  0.15370  1.0000
  H   H1016     1.0  0.64327  0.15911  0.03963  1.0000
  H   H1017     1.0  0.59517  0.15197  0.03285  1.0000
  C   C633      1.0  0.66136  0.03998  0.62004  1.0000
  S   S247      1.0  0.66144  0.08507  0.70234  1.0000
  N   N63       1.0  0.58987  0.16908  0.04166  1.0000
  C   C634      1.0  0.60859  0.16946  0.34652  1.0000
  S   S248      1.0  0.59973  0.16942  0.16623  1.0000
  H   H1018     1.0  0.66158  0.07105  0.58086  1.0000
  H   H1019     1.0  0.61809  0.21557  0.35949  1.0000
  H   H1020     1.0  0.62238  0.31354  0.80574  1.0000
  H   H1021     1.0  0.58843  0.17366  0.09837  1.0000
  H   H1022     1.0  0.63465  0.25498  0.97913  1.0000
  H   H1023     1.0  0.60165  0.19589  0.37310  1.0000
  C   C635      1.0  0.61487  0.23741  0.08051  1.0000
  H   H1024     1.0  0.62191  0.24231  0.09234  1.0000
  C   C636      1.0  0.62977  0.31916  0.86884  1.0000
  H   H1025     1.0  0.65665  0.32715  0.79194  1.0000
  H   H1026     1.0  0.59653  0.21660  0.34993  1.0000
  H   H1027     1.0  0.58079  0.22182  0.58702  1.0000
  C   C637      1.0  0.59081  0.22643  0.57822  1.0000
  H   H1028     1.0  0.58817  0.24294  0.59976  1.0000
  H   H1029     1.0  0.58075  0.32838  0.99117  1.0000
  C   C638      1.0  0.64987  0.25793  0.02753  1.0000
  H   H1030     1.0  0.61004  0.17192  0.02893  1.0000
  H   H1031     1.0  0.56333  0.30565  0.98588  1.0000
  C   C639      1.0  0.54684  0.32153  0.04316  1.0000
  C   C640      1.0  0.54687  0.31458  0.08142  1.0000
  H   H1032     1.0  0.54213  0.31689  0.10816  1.0000
  C   C641      1.0  0.64051  0.28607  0.59791  1.0000
  H   H1033     1.0  0.55223  0.29863  0.11499  1.0000
  C   C642      1.0  0.55856  0.30100  0.05084  1.0000
  C   C643      1.0  0.55257  0.30424  0.08524  1.0000
  H   H1034     1.0  0.64610  0.30415  0.80880  1.0000
  H   H1035     1.0  0.58202  0.31363  0.05319  1.0000
  C   C644      1.0  0.59089  0.32060  0.05130  1.0000
  H   H1036     1.0  0.63574  0.23541  0.02650  1.0000
  H   H1037     1.0  0.59191  0.31932  0.08251  1.0000
  C   C645      1.0  0.53673  0.29620  0.44499  1.0000
  C   C646      1.0  0.65945  0.28154  0.61346  1.0000
  C   C647      1.0  0.65398  0.23178  0.57825  1.0000
  H   H1038     1.0  0.53525  0.30228  0.74343  1.0000
  N   N64       1.0  0.54478  0.30853  0.44466  1.0000
  H   H1039     1.0  0.64132  0.26676  0.56286  1.0000
  C   C648      1.0  0.53698  0.31529  0.46772  1.0000
  Fe  Fe126     1.0  0.60249  0.27243  0.60610  1.0000
  H   H1040     1.0  0.52937  0.31757  0.45387  1.0000
  H   H1041     1.0  0.63738  0.26872  0.66851  1.0000
  S   S249      1.0  0.61525  0.26145  0.03748  1.0000
  S   S250      1.0  0.56519  0.28767  0.05700  1.0000
  C   C649      1.0  0.55284  0.31830  0.00873  1.0000
  H   H1042     1.0  0.55997  0.30036  0.65676  1.0000
  C   C650      1.0  0.64501  0.25687  0.96482  1.0000
  H   H1043     1.0  0.53666  0.28040  0.77663  1.0000
  C   C651      1.0  0.63165  0.32068  0.79829  1.0000
  C   C652      1.0  0.56438  0.30737  0.55531  1.0000
  H   H1044     1.0  0.63402  0.31694  0.89445  1.0000
  H   H1045     1.0  0.56708  0.26938  0.82654  1.0000
  S   S251      1.0  0.57479  0.27440  0.73940  1.0000
  C   C653      1.0  0.64148  0.33225  0.06245  1.0000
  H   H1046     1.0  0.57077  0.17064  0.04666  1.0000
  Fe  Fe127     1.0  0.58625  0.29136  0.58839  1.0000
  C   C654      1.0  0.54228  0.30699  0.58202  1.0000
  C   C655      1.0  0.55225  0.30089  0.58056  1.0000
  H   H1047     1.0  0.63153  0.28228  0.59088  1.0000
  H   H1048     1.0  0.55041  0.29091  0.59703  1.0000
  H   H1049     1.0  0.63047  0.26102  0.63586  1.0000
  C   C656      1.0  0.60289  0.17721  0.02214  1.0000
  C   C657      1.0  0.53655  0.28560  0.69816  1.0000
  H   H1050     1.0  0.62828  0.32896  0.86599  1.0000
  N   N65       1.0  0.54651  0.29127  0.71512  1.0000
  S   S252      1.0  0.58161  0.27101  0.62754  1.0000
  C   C658      1.0  0.57672  0.27523  0.81551  1.0000
  H   H1051     1.0  0.64458  0.25762  0.64704  1.0000
  H   H1052     1.0  0.57846  0.27575  0.87524  1.0000
  C   C659      1.0  0.64603  0.23765  0.01110  1.0000
  H   H1053     1.0  0.62985  0.33039  0.79298  1.0000
  C   C660      1.0  0.58281  0.27905  0.77382  1.0000
  H   H1054     1.0  0.55109  0.30041  0.49577  1.0000
  H   H1055     1.0  0.52696  0.28360  0.71925  1.0000
  H   H1056     1.0  0.63801  0.28978  0.62472  1.0000
  H   H1057     1.0  0.53237  0.28990  0.47644  1.0000
  H   H1058     1.0  0.55273  0.32355  0.97908  1.0000
  C   C661      1.0  0.54432  0.31956  0.55802  1.0000
  C   C662      1.0  0.58314  0.27881  0.84314  1.0000
  C   C663      1.0  0.56652  0.32011  0.53254  1.0000
  S   S253      1.0  0.58986  0.30056  0.63676  1.0000
  H   H1059     1.0  0.62027  0.31234  0.87754  1.0000
  S   S254      1.0  0.57577  0.29874  0.54360  1.0000
  H   H1060     1.0  0.53669  0.29218  0.66906  1.0000
  Fe  Fe128     1.0  0.58682  0.28039  0.67449  1.0000
  S   S255      1.0  0.58757  0.27165  0.98540  1.0000
  H   H1061     1.0  0.58303  0.21182  0.39346  1.0000
  S   S256      1.0  0.59743  0.20045  0.09099  1.0000
  C   C664      1.0  0.65320  0.32694  0.65691  1.0000
  C   C665      1.0  0.60200  0.21742  0.07759  1.0000
  C   C666      1.0  0.62405  0.18586  0.29108  1.0000
  C   C667      1.0  0.59616  0.21023  0.44915  1.0000
  H   H1062     1.0  0.55643  0.32604  0.40120  1.0000
  H   H1063     1.0  0.63101  0.29771  0.84562  1.0000
  H   H1064     1.0  0.60397  0.19126  0.42229  1.0000
  Fe  Fe129     1.0  0.60882  0.18931  0.12442  1.0000
  C   C668      1.0  0.64008  0.30521  0.83698  1.0000
  H   H1065     1.0  0.53787  0.27639  0.69206  1.0000
  H   H1066     1.0  0.58593  0.20534  0.46275  1.0000
  C   C669      1.0  0.65020  0.27116  0.56939  1.0000
  H   H1067     1.0  0.64481  0.30303  0.86137  1.0000
  H   H1068     1.0  0.52889  0.29772  0.43122  1.0000
  S   S257      1.0  0.63067  0.19230  0.39504  1.0000
  C   C670      1.0  0.55887  0.30819  0.01250  1.0000
  S   S258      1.0  0.62148  0.19516  0.16234  1.0000
  C   C671      1.0  0.65018  0.32781  0.81986  1.0000
  Fe  Fe130     1.0  0.63533  0.18697  0.12554  1.0000
  H   H1069     1.0  0.59456  0.22676  0.38314  1.0000
  Fe  Fe131     1.0  0.62406  0.18708  0.46407  1.0000
  S   S259      1.0  0.62332  0.18273  0.08485  1.0000
  H   H1070     1.0  0.59763  0.22022  0.45200  1.0000
  H   H1071     1.0  0.54510  0.31058  0.69308  1.0000
  H   H1072     1.0  0.64873  0.26745  0.95222  1.0000
  H   H1073     1.0  0.61564  0.21856  0.11198  1.0000
  H   H1074     1.0  0.55832  0.33599  0.51617  1.0000
  H   H1075     1.0  0.60455  0.18597  0.03305  1.0000
  C   C672      1.0  0.62918  0.19090  0.31919  1.0000
  H   H1076     1.0  0.63718  0.19922  0.30833  1.0000
  C   C673      1.0  0.62408  0.18524  0.36108  1.0000
  H   H1077     1.0  0.62809  0.19030  0.25896  1.0000
  N   N66       1.0  0.65153  0.25165  0.99444  1.0000
  C   C674      1.0  0.60000  0.23807  0.04019  1.0000
  H   H1078     1.0  0.65504  0.32645  0.84427  1.0000
  C   C675      1.0  0.61129  0.22392  0.09187  1.0000
  C   C676      1.0  0.59334  0.21659  0.38222  1.0000
  H   H1079     1.0  0.61602  0.22686  0.38894  1.0000
  H   H1080     1.0  0.65596  0.27897  0.54199  1.0000
  H   H1081     1.0  0.53282  0.30175  0.60028  1.0000
  H   H1082     1.0  0.64550  0.21475  0.12458  1.0000
  N   N67       1.0  0.60054  0.20996  0.40664  1.0000
  H   H1083     1.0  0.59569  0.24347  0.01998  1.0000
  H   H1084     1.0  0.54742  0.27296  0.74976  1.0000
  H   H1085     1.0  0.56677  0.29762  0.69869  1.0000
  C   C677      1.0  0.54462  0.30360  0.72189  1.0000
  H   H1086     1.0  0.58836  0.19116  0.41734  1.0000
  H   H1087     1.0  0.60141  0.20525  0.46829  1.0000
  H   H1088     1.0  0.58903  0.21959  0.04103  1.0000
  C   C678      1.0  0.59629  0.22454  0.05200  1.0000
  C   C679      1.0  0.61418  0.21648  0.39039  1.0000
  S   S260      1.0  0.53120  0.32622  0.55672  1.0000
  H   H1089     1.0  0.61978  0.21223  0.40971  1.0000
  C   C680      1.0  0.59850  0.19649  0.40478  1.0000
  C   C681      1.0  0.60939  0.24455  0.05419  1.0000
  H   H1090     1.0  0.63214  0.22524  0.64925  1.0000
  C   C682      1.0  0.61246  0.22639  0.54909  1.0000
  H   H1091     1.0  0.63609  0.20371  0.65925  1.0000
  C   C683      1.0  0.62369  0.22143  0.63956  1.0000
  C   C684      1.0  0.61660  0.23834  0.55616  1.0000
  H   H1092     1.0  0.62335  0.18981  0.66760  1.0000
  H   H1093     1.0  0.62228  0.20937  0.71592  1.0000
  C   C685      1.0  0.60670  0.20317  0.64697  1.0000
  H   H1094     1.0  0.62688  0.22292  0.60635  1.0000
  H   H1095     1.0  0.60478  0.18042  0.98871  1.0000
  Fe  Fe132     1.0  0.60822  0.19363  0.53506  1.0000
  C   C686      1.0  0.58958  0.33506  0.99108  1.0000
  C   C687      1.0  0.60791  0.24435  0.57466  1.0000
  H   H1096     1.0  0.64388  0.22039  0.54692  1.0000
  H   H1097     1.0  0.60955  0.19581  0.72167  1.0000
  N   N68       1.0  0.61789  0.20770  0.66067  1.0000
  C   C688      1.0  0.62721  0.20018  0.65126  1.0000
  S   S261      1.0  0.61557  0.18183  0.58084  1.0000
  C   C689      1.0  0.61400  0.20606  0.70474  1.0000
  S   S262      1.0  0.59280  0.30341  0.95464  1.0000
  H   H1098     1.0  0.60941  0.20401  0.61398  1.0000
  C   C690      1.0  0.65064  0.22085  0.56461  1.0000
  H   H1099     1.0  0.59961  0.20889  0.65218  1.0000
  H   H1100     1.0  0.64970  0.23968  0.57103  1.0000
  H   H1101     1.0  0.61931  0.22184  0.53526  1.0000
  C   C691      1.0  0.59496  0.23840  0.58543  1.0000
  C   C692      1.0  0.59955  0.22033  0.56033  1.0000
  H   H1102     1.0  0.60702  0.21168  0.71272  1.0000
  H   H1103     1.0  0.61687  0.22742  0.64508  1.0000
  H   H1104     1.0  0.60192  0.19290  0.66266  1.0000
  S   S263      1.0  0.59410  0.20496  0.55380  1.0000
  Fe  Fe133     1.0  0.63456  0.19094  0.53595  1.0000
  S   S264      1.0  0.60423  0.17791  0.50428  1.0000
  H   H1105     1.0  0.62664  0.24289  0.54757  1.0000
  H   H1106     1.0  0.59885  0.31777  0.03331  1.0000
  H   H1107     1.0  0.62995  0.20082  0.61841  1.0000
  S   S265      1.0  0.62734  0.20358  0.49201  1.0000
  S   S266      1.0  0.62245  0.32424  0.96554  1.0000
  C   C693      1.0  0.55904  0.29355  0.68637  1.0000
  H   H1108     1.0  0.62725  0.31574  0.10321  1.0000
  C   C694      1.0  0.62528  0.31903  0.04256  1.0000
  Fe  Fe134     1.0  0.58308  0.28775  0.01196  1.0000
  H   H1109     1.0  0.65420  0.26845  0.01621  1.0000
  H   H1110     1.0  0.61729  0.31084  0.05042  1.0000
  H   H1111     1.0  0.65770  0.28536  0.64036  1.0000
  Fe  Fe135     1.0  0.60508  0.27507  0.00718  1.0000
  C   C695      1.0  0.63093  0.32182  0.07246  1.0000
  S   S267      1.0  0.63308  0.17530  0.50434  1.0000
  H   H1112     1.0  0.57582  0.32511  0.51248  1.0000
  H   H1113     1.0  0.65067  0.23337  0.03367  1.0000
  C   C696      1.0  0.65064  0.31632  0.69027  1.0000
  C   C697      1.0  0.63963  0.26538  0.64079  1.0000
  S   S268      1.0  0.59982  0.28998  0.03738  1.0000
  C   C698      1.0  0.62996  0.32690  0.00282  1.0000
  H   H1114     1.0  0.55645  0.31186  0.38407  1.0000
  H   H1115     1.0  0.58187  0.18525  0.04298  1.0000
  H   H1116     1.0  0.64615  0.25247  0.93912  1.0000
  H   H1117     1.0  0.54300  0.31863  0.38731  1.0000
  C   C699      1.0  0.54593  0.28234  0.75391  1.0000
  H   H1118     1.0  0.56088  0.30070  0.44764  1.0000
  Fe  Fe136     1.0  0.60992  0.29963  0.61528  1.0000
  S   S269      1.0  0.60449  0.29085  0.86161  1.0000
  S   S270      1.0  0.60725  0.28011  0.65653  1.0000
  S   S271      1.0  0.65160  0.19625  0.55970  1.0000
  N   N69       1.0  0.59076  0.33393  0.03259  1.0000
  H   H1119     1.0  0.57078  0.33085  0.05816  1.0000
  C   C700      1.0  0.59527  0.28660  0.75987  1.0000
  C   C701      1.0  0.55042  0.31657  0.40248  1.0000
  C   C702      1.0  0.65514  0.21920  0.10659  1.0000
  H   H1120     1.0  0.65460  0.23790  0.11486  1.0000
  C   C703      1.0  0.55497  0.30609  0.46346  1.0000
  H   H1121     1.0  0.56142  0.31523  0.46271  1.0000
  C   C704      1.0  0.64543  0.32713  0.63069  1.0000
  H   H1122     1.0  0.53237  0.30945  0.49960  1.0000
  H   H1123     1.0  0.54229  0.29086  0.42766  1.0000
  S   S272      1.0  0.61383  0.25884  0.58568  1.0000
  C   C705      1.0  0.60169  0.29010  0.78734  1.0000
  H   H1124     1.0  0.61139  0.29581  0.77615  1.0000
  S   S273      1.0  0.60674  0.29208  0.56338  1.0000
  Fe  Fe137     1.0  0.59879  0.28779  0.92956  1.0000
  C   C706      1.0  0.61371  0.17510  0.30459  1.0000
  C   C707      1.0  0.63494  0.31683  0.63814  1.0000
  C   C708      1.0  0.63215  0.30638  0.67224  1.0000
  C   C709      1.0  0.64009  0.30605  0.69802  1.0000
  C   C710      1.0  0.65604  0.21053  0.57396  1.0000
  H   H1125     1.0  0.62391  0.29855  0.67882  1.0000
  H   H1126     1.0  0.63797  0.29790  0.72418  1.0000
  S   S274      1.0  0.62567  0.31724  0.60388  1.0000
  C   C711      1.0  0.59569  0.28620  0.82904  1.0000
  S   S275      1.0  0.61659  0.28992  0.94975  1.0000
  H   H1127     1.0  0.60001  0.28975  0.72788  1.0000
  N   N70       1.0  0.64745  0.27605  0.60537  1.0000
  N   N71       1.0  0.63791  0.31821  0.83099  1.0000
  H   H1128     1.0  0.63969  0.25660  0.04254  1.0000
  C   C712      1.0  0.66033  0.23234  0.10105  1.0000
  H   H1129     1.0  0.56082  0.28447  0.68036  1.0000
  Fe  Fe138     1.0  0.60985  0.30445  0.97810  1.0000
  H   H1130     1.0  0.54279  0.32450  0.46890  1.0000
  S   S276      1.0  0.65627  0.19537  0.09519  1.0000
  C   C713      1.0  0.55655  0.32621  0.53404  1.0000
  C   C714      1.0  0.61376  0.17445  0.37464  1.0000
  H   H1131     1.0  0.63754  0.32002  0.76930  1.0000
  H   H1132     1.0  0.64711  0.23261  0.98697  1.0000
  Fe  Fe139     1.0  0.61363  0.17475  0.20148  1.0000
  H   H1133     1.0  0.65431  0.25398  0.05114  1.0000
  H   H1134     1.0  0.64620  0.29442  0.57195  1.0000
  H   H1135     1.0  0.55349  0.28623  0.76719  1.0000
  H   H1136     1.0  0.55204  0.30811  0.73460  1.0000
  S   S277      1.0  0.53875  0.33375  0.03760  1.0000
  H   H1137     1.0  0.59765  0.33264  0.97199  1.0000
  S   S278      1.0  0.66055  0.31586  0.72246  1.0000
  H   H1138     1.0  0.58194  0.17960  0.99886  1.0000
  C   C715      1.0  0.58069  0.17645  0.03202  1.0000
  H   H1139     1.0  0.65554  0.26367  0.57376  1.0000
  H   H1140     1.0  0.60976  0.16993  0.40671  1.0000
  S   S279      1.0  0.64837  0.33562  0.10027  1.0000
  H   H1141     1.0  0.66131  0.33492  0.65080  1.0000
  H   H1142     1.0  0.64767  0.33520  0.60425  1.0000
  H   H1143     1.0  0.65482  0.17047  0.05145  1.0000
  S   S280      1.0  0.53591  0.37201  0.41417  1.0000
  Fe  Fe140     1.0  0.53870  0.35252  0.41396  1.0000
  S   S281      1.0  0.54706  0.34690  0.35820  1.0000
  Fe  Fe141     1.0  0.54610  0.37109  0.46182  1.0000
  H   H1144     1.0  0.56570  0.36738  0.23245  1.0000
  H   H1145     1.0  0.56343  0.36400  0.16727  1.0000
  H   H1146     1.0  0.53278  0.37795  0.27257  1.0000
  Fe  Fe142     1.0  0.53349  0.35722  0.15096  1.0000
  S   S282      1.0  0.52417  0.35578  0.10094  1.0000
  S   S283      1.0  0.52141  0.35432  0.21432  1.0000
  Fe  Fe143     1.0  0.55969  0.36675  0.09418  1.0000
  C   C716      1.0  0.58487  0.37889  0.20796  1.0000
  H   H1147     1.0  0.55974  0.40697  0.22128  1.0000
  Fe  Fe144     1.0  0.53742  0.37501  0.06772  1.0000
  S   S284      1.0  0.56154  0.44980  0.10899  1.0000
  Fe  Fe145     1.0  0.54012  0.34747  0.07640  1.0000
  S   S285      1.0  0.54574  0.37714  0.11905  1.0000
  S   S286      1.0  0.54812  0.34690  0.12972  1.0000
  C   C717      1.0  0.58245  0.37475  0.13398  1.0000
  Fe  Fe146     1.0  0.55344  0.46663  0.08812  1.0000
  H   H1148     1.0  0.61846  0.37471  0.56130  1.0000
  C   C718      1.0  0.57358  0.37143  0.20579  1.0000
  H   H1149     1.0  0.50840  0.43068  0.01559  1.0000
  H   H1150     1.0  0.55462  0.43566  0.04809  1.0000
  S   S287      1.0  0.51513  0.45103  0.05084  1.0000
  H   H1151     1.0  0.58353  0.40250  0.46776  1.0000
  C   C719      1.0  0.55319  0.38089  0.30202  1.0000
  H   H1152     1.0  0.64752  0.35552  0.14331  1.0000
  C   C720      1.0  0.57230  0.36952  0.16881  1.0000
  H   H1153     1.0  0.52130  0.42094  0.05191  1.0000
  H   H1154     1.0  0.57185  0.37987  0.38213  1.0000
  H   H1155     1.0  0.54705  0.40485  0.49725  1.0000
  C   C721      1.0  0.50828  0.39010  0.06229  1.0000
  H   H1156     1.0  0.53494  0.40745  0.13283  1.0000
  C   C722      1.0  0.57302  0.44953  0.13613  1.0000
  H   H1157     1.0  0.50967  0.38474  0.08992  1.0000
  Fe  Fe147     1.0  0.53782  0.48629  0.10114  1.0000
  C   C723      1.0  0.58853  0.45985  0.16521  1.0000
  H   H1158     1.0  0.54039  0.40570  0.27281  1.0000
  C   C724      1.0  0.53941  0.34813  0.31942  1.0000
  C   C725      1.0  0.52744  0.35060  0.32512  1.0000
  C   C726      1.0  0.52182  0.35206  0.29299  1.0000
  C   C727      1.0  0.52826  0.35138  0.25481  1.0000
  C   C728      1.0  0.54017  0.34880  0.24931  1.0000
  C   C729      1.0  0.54565  0.34703  0.28169  1.0000
  H   H1159     1.0  0.52250  0.35137  0.35423  1.0000
  H   H1160     1.0  0.51254  0.35395  0.29750  1.0000
  H   H1161     1.0  0.54514  0.34812  0.22015  1.0000
  H   H1162     1.0  0.50160  0.41315  0.80645  1.0000
  C   C730      1.0  0.50517  0.36174  0.03000  1.0000
  C   C731      1.0  0.51766  0.45082  0.00011  1.0000
  C   C732      1.0  0.54311  0.39835  0.29402  1.0000
  H   H1163     1.0  0.54902  0.40345  0.31013  1.0000
  C   C733      1.0  0.53233  0.43102  0.10304  1.0000
  H   H1164     1.0  0.53963  0.39104  0.22760  1.0000
  C   C734      1.0  0.58556  0.46134  0.54625  1.0000
  S   S288      1.0  0.58565  0.38258  0.25345  1.0000
  Fe  Fe148     1.0  0.52997  0.46636  0.05822  1.0000
  H   H1165     1.0  0.53581  0.43022  0.13051  1.0000
  C   C735      1.0  0.56173  0.39906  0.24263  1.0000
  H   H1166     1.0  0.58368  0.38633  0.33428  1.0000
  C   C736      1.0  0.51811  0.39405  0.02637  1.0000
  H   H1167     1.0  0.55821  0.37467  0.28722  1.0000
  C   C737      1.0  0.57924  0.46054  0.14416  1.0000
  C   C738      1.0  0.51615  0.40095  0.99085  1.0000
  H   H1168     1.0  0.56848  0.40346  0.25770  1.0000
  S   S289      1.0  0.53314  0.39098  0.02408  1.0000
  C   C739      1.0  0.55059  0.42553  0.06687  1.0000
  C   C740      1.0  0.59396  0.38179  0.13629  1.0000
  C   C741      1.0  0.57607  0.43786  0.14948  1.0000
  S   S290      1.0  0.55082  0.35266  0.45675  1.0000
  Fe  Fe149     1.0  0.55313  0.48838  0.01708  1.0000
  H   H1169     1.0  0.53427  0.39220  0.31706  1.0000
  N   N72       1.0  0.55000  0.39060  0.27242  1.0000
  H   H1170     1.0  0.60573  0.38479  0.32928  1.0000
  H   H1171     1.0  0.56673  0.39362  0.22417  1.0000
  S   S291      1.0  0.58055  0.37278  0.08754  1.0000
  S   S292      1.0  0.52064  0.34207  0.46212  1.0000
  C   C742      1.0  0.53182  0.42387  0.04339  1.0000
  C   C743      1.0  0.54190  0.38406  0.25119  1.0000
  C   C744      1.0  0.58526  0.43715  0.17077  1.0000
  N   N73       1.0  0.59448  0.45497  0.52578  1.0000
  H   H1172     1.0  0.57131  0.42931  0.14332  1.0000
  H   H1173     1.0  0.53598  0.44122  0.08479  1.0000
  S   S293      1.0  0.54989  0.46717  0.02764  1.0000
  H   H1174     1.0  0.54660  0.37767  0.23602  1.0000
  C   C745      1.0  0.60228  0.37743  0.35909  1.0000
  H   H1175     1.0  0.52113  0.40604  0.11425  1.0000
  N   N74       1.0  0.53660  0.42232  0.07958  1.0000
  C   C746      1.0  0.59158  0.44816  0.17852  1.0000
  S   S294      1.0  0.53313  0.46470  0.11931  1.0000
  H   H1176     1.0  0.58743  0.42809  0.18113  1.0000
  H   H1177     1.0  0.57842  0.36930  0.35623  1.0000
  H   H1178     1.0  0.55453  0.42447  0.09345  1.0000
  H   H1179     1.0  0.52508  0.48950  0.62797  1.0000
  H   H1180     1.0  0.53485  0.43404  0.02463  1.0000
  C   C747      1.0  0.53167  0.40890  0.10495  1.0000
  H   H1181     1.0  0.57692  0.46957  0.13407  1.0000
  C   C748      1.0  0.58073  0.37867  0.36337  1.0000
  H   H1182     1.0  0.59334  0.46840  0.17130  1.0000
  C   C749      1.0  0.51304  0.43937  0.99142  1.0000
  H   H1183     1.0  0.60680  0.47259  0.48483  1.0000
  S   S295      1.0  0.55866  0.48822  0.07493  1.0000
  S   S296      1.0  0.55275  0.36667  0.03962  1.0000
  H   H1184     1.0  0.53492  0.40212  0.08836  1.0000
  H   H1185     1.0  0.52182  0.42903  0.11257  1.0000
  H   H1186     1.0  0.59815  0.39989  0.36330  1.0000
  S   S297      1.0  0.56050  0.38862  0.45798  1.0000
  H   H1187     1.0  0.51123  0.37711  0.95486  1.0000
  H   H1188     1.0  0.55413  0.41918  0.04888  1.0000
  H   H1189     1.0  0.54455  0.37441  0.32501  1.0000
  H   H1190     1.0  0.64865  0.40561  0.58354  1.0000
  H   H1191     1.0  0.55946  0.38541  0.31823  1.0000
  H   H1192     1.0  0.58517  0.39446  0.40774  1.0000
  N   N75       1.0  0.51602  0.50009  0.58944  1.0000
  C   C750      1.0  0.50447  0.40383  0.99095  1.0000
  N   N76       1.0  0.59079  0.37937  0.38446  1.0000
  H   H1193     1.0  0.50761  0.49147  0.54925  1.0000
  H   H1194     1.0  0.58027  0.45529  0.57742  1.0000
  S   S298      1.0  0.53265  0.48770  0.04270  1.0000
  H   H1195     1.0  0.53532  0.41790  0.02392  1.0000
  C   C751      1.0  0.59378  0.39212  0.39194  1.0000
  H   H1196     1.0  0.60056  0.39267  0.41071  1.0000
  H   H1197     1.0  0.50007  0.35278  0.05452  1.0000
  C   C752      1.0  0.50149  0.45836  0.66132  1.0000
  Fe  Fe150     1.0  0.51872  0.36178  0.46629  1.0000
  H   H1198     1.0  0.56862  0.36073  0.57327  1.0000
  S   S299      1.0  0.54334  0.47578  0.75185  1.0000
  S   S300      1.0  0.52890  0.36218  0.51432  1.0000
  H   H1199     1.0  0.52830  0.35716  0.01022  1.0000
  H   H1200     1.0  0.51503  0.38582  0.56312  1.0000
  C   C753      1.0  0.56990  0.45889  0.84347  1.0000
  C   C754      1.0  0.49664  0.39328  0.06251  1.0000
  C   C755      1.0  0.58920  0.46023  0.66937  1.0000
  C   C756      1.0  0.57992  0.33726  0.05682  1.0000
  H   H1201     1.0  0.50604  0.34899  0.95036  1.0000
  C   C757      1.0  0.52434  0.46268  0.64126  1.0000
  H   H1202     1.0  0.57193  0.45593  0.81490  1.0000
  C   C758      1.0  0.55739  0.50096  0.91777  1.0000
  C   C759      1.0  0.58741  0.44248  0.52368  1.0000
  H   H1203     1.0  0.52740  0.47074  0.90420  1.0000
  Fe  Fe151     1.0  0.54334  0.49542  0.75947  1.0000
  C   C760      1.0  0.51000  0.41444  0.72757  1.0000
  H   H1204     1.0  0.51525  0.40113  0.47913  1.0000
  C   C761      1.0  0.51668  0.39645  0.55634  1.0000
  C   C762      1.0  0.51292  0.43455  0.74517  1.0000
  H   H1205     1.0  0.53876  0.49459  0.95912  1.0000
  C   C763      1.0  0.65615  0.40309  0.16130  1.0000
  C   C764      1.0  0.63449  0.35934  0.61949  1.0000
  C   C765      1.0  0.58302  0.37856  0.54800  1.0000
  H   H1206     1.0  0.59626  0.39666  0.51451  1.0000
  H   H1207     1.0  0.55842  0.48406  0.80746  1.0000
  H   H1208     1.0  0.60278  0.35297  0.01783  1.0000
  C   C766      1.0  0.56711  0.44464  0.66475  1.0000
  S   S301      1.0  0.57824  0.42611  0.64418  1.0000
  C   C767      1.0  0.51852  0.45056  0.92020  1.0000
  H   H1209     1.0  0.62713  0.34508  0.13368  1.0000
  H   H1210     1.0  0.61102  0.34075  0.01208  1.0000
  Fe  Fe152     1.0  0.59967  0.39519  0.59040  1.0000
  H   H1211     1.0  0.53182  0.40312  0.45640  1.0000
  H   H1212     1.0  0.61794  0.46351  0.11606  1.0000
  H   H1213     1.0  0.64309  0.36145  0.07673  1.0000
  S   S302      1.0  0.61957  0.43472  0.47652  1.0000
  H   H1214     1.0  0.61439  0.36215  0.67139  1.0000
  H   H1215     1.0  0.64811  0.46206  0.04867  1.0000
  H   H1216     1.0  0.53335  0.46559  0.64733  1.0000
  H   H1217     1.0  0.62110  0.46599  0.06236  1.0000
  H   H1218     1.0  0.55851  0.43861  0.66302  1.0000
  H   H1219     1.0  0.52772  0.49357  0.90649  1.0000
  C   C768      1.0  0.64039  0.33746  0.99299  1.0000
  C   C769      1.0  0.53896  0.39992  0.52462  1.0000
  N   N77       1.0  0.56053  0.46667  0.84392  1.0000
  C   C770      1.0  0.55816  0.47050  0.88200  1.0000
  C   C771      1.0  0.58951  0.44859  0.65938  1.0000
  H   H1220     1.0  0.57425  0.48455  0.81088  1.0000
  S   S303      1.0  0.54856  0.48870  0.65391  1.0000
  H   H1221     1.0  0.59778  0.46621  0.67141  1.0000
  H   H1222     1.0  0.58934  0.34495  0.97601  1.0000
  H   H1223     1.0  0.52368  0.40404  0.96292  1.0000
  H   H1224     1.0  0.54994  0.45580  0.81300  1.0000
  H   H1225     1.0  0.61091  0.44851  0.53352  1.0000
  H   H1226     1.0  0.64894  0.33775  0.81427  1.0000
  H   H1227     1.0  0.50304  0.40885  0.96315  1.0000
  S   S304      1.0  0.51147  0.44937  0.55577  1.0000
  Fe  Fe153     1.0  0.56011  0.48603  0.69834  1.0000
  C   C772      1.0  0.54855  0.45903  0.84106  1.0000
  C   C773      1.0  0.51790  0.37111  0.96088  1.0000
  H   H1228     1.0  0.63930  0.35495  0.59691  1.0000
  H   H1229     1.0  0.59827  0.44563  0.65395  1.0000
  S   S305      1.0  0.51504  0.45073  0.87401  1.0000
  H   H1230     1.0  0.63373  0.38086  0.56780  1.0000
  C   C774      1.0  0.57844  0.44073  0.65716  1.0000
  H   H1231     1.0  0.56645  0.45000  0.86913  1.0000
  Fe  Fe154     1.0  0.53266  0.34347  0.50547  1.0000
  C   C775      1.0  0.56682  0.45630  0.67447  1.0000
  C   C776      1.0  0.61403  0.35098  0.61053  1.0000
  C   C777      1.0  0.51221  0.45453  0.59896  1.0000
  H   H1232     1.0  0.53088  0.42067  0.53604  1.0000
  H   H1233     1.0  0.52238  0.38809  0.49062  1.0000
  S   S306      1.0  0.59086  0.37574  0.58562  1.0000
  H   H1234     1.0  0.55452  0.46201  0.90898  1.0000
  H   H1235     1.0  0.50763  0.39881  0.55343  1.0000
  S   S307      1.0  0.57781  0.47866  0.69023  1.0000
  H   H1236     1.0  0.53629  0.42235  0.48268  1.0000
  H   H1237     1.0  0.55804  0.45920  0.68026  1.0000
  C   C778      1.0  0.65220  0.40713  0.12672  1.0000
  C   C779      1.0  0.52389  0.45877  0.60620  1.0000
  N   N78       1.0  0.52707  0.40303  0.51912  1.0000
  H   H1238     1.0  0.60845  0.37121  0.63418  1.0000
  C   C780      1.0  0.57787  0.46412  0.67700  1.0000
  C   C781      1.0  0.52387  0.46192  0.92833  1.0000
  H   H1239     1.0  0.63314  0.47289  0.08346  1.0000
  H   H1240     1.0  0.55638  0.36601  0.52393  1.0000
  H   H1241     1.0  0.51872  0.39930  0.58306  1.0000
  H   H1242     1.0  0.52545  0.37694  0.97014  1.0000
  C   C782      1.0  0.51312  0.46250  0.66872  1.0000
  H   H1243     1.0  0.53255  0.45885  0.58502  1.0000
  H   H1244     1.0  0.61096  0.34386  0.64078  1.0000
  C   C783      1.0  0.58738  0.39013  0.51742  1.0000
  S   S308      1.0  0.51334  0.46725  0.71273  1.0000
  H   H1245     1.0  0.55093  0.47615  0.88349  1.0000
  C   C784      1.0  0.57197  0.36973  0.54979  1.0000
  H   H1246     1.0  0.54432  0.45036  0.86729  1.0000
  C   C785      1.0  0.56499  0.37279  0.52211  1.0000
  Fe  Fe155     1.0  0.53190  0.48009  0.70854  1.0000
  C   C786      1.0  0.56902  0.38472  0.49299  1.0000
  C   C787      1.0  0.52401  0.39869  0.48479  1.0000
  H   H1247     1.0  0.49976  0.49889  0.79216  1.0000
  H   H1248     1.0  0.56778  0.47571  0.77982  1.0000
  H   H1249     1.0  0.52252  0.36936  0.93193  1.0000
  H   H1250     1.0  0.56689  0.47658  0.88496  1.0000
  C   C788      1.0  0.52859  0.41705  0.51073  1.0000
  C   C789      1.0  0.62683  0.37190  0.56933  1.0000
  C   C790      1.0  0.52069  0.35158  0.00052  1.0000
  H   H1251     1.0  0.50069  0.43240  0.68814  1.0000
  H   H1252     1.0  0.51435  0.47791  0.80575  1.0000
  H   H1253     1.0  0.60406  0.34192  0.06171  1.0000
  H   H1254     1.0  0.50974  0.43047  0.94506  1.0000
  H   H1255     1.0  0.54136  0.46475  0.84059  1.0000
  H   H1256     1.0  0.51226  0.36729  0.04150  1.0000
  H   H1257     1.0  0.52543  0.34900  0.97327  1.0000
  C   C791      1.0  0.56547  0.47825  0.80905  1.0000
  C   C792      1.0  0.60125  0.46313  0.48438  1.0000
  H   H1258     1.0  0.57905  0.46439  0.84567  1.0000
  C   C793      1.0  0.64626  0.34004  0.02264  1.0000
  N   N79       1.0  0.51136  0.35893  0.99248  1.0000
  H   H1259     1.0  0.58026  0.44365  0.50666  1.0000
  H   H1260     1.0  0.65520  0.39020  0.74948  1.0000
  C   C794      1.0  0.52359  0.46201  0.96840  1.0000
  H   H1261     1.0  0.63613  0.45515  0.02747  1.0000
  H   H1262     1.0  0.51972  0.41968  0.50672  1.0000
  H   H1263     1.0  0.59389  0.43745  0.50825  1.0000
  H   H1264     1.0  0.62364  0.37773  0.64003  1.0000
  C   C795      1.0  0.51381  0.43921  0.95145  1.0000
  H   H1265     1.0  0.65777  0.37524  0.69339  1.0000
  H   H1266     1.0  0.51634  0.41108  0.74552  1.0000
  N   N80       1.0  0.50347  0.42323  0.74486  1.0000
  H   H1267     1.0  0.51620  0.34247  0.02502  1.0000
  C   C796      1.0  0.58025  0.39335  0.49055  1.0000
  H   H1268     1.0  0.58234  0.43599  0.55449  1.0000
  H   H1269     1.0  0.59903  0.44627  0.57967  1.0000
  C   C797      1.0  0.50992  0.48872  0.57860  1.0000
  H   H1270     1.0  0.51289  0.49944  0.81330  1.0000
  C   C798      1.0  0.53795  0.49657  0.89799  1.0000
  H   H1271     1.0  0.51621  0.48210  0.57560  1.0000
  S   S309      1.0  0.59890  0.39985  0.64931  1.0000
  H   H1272     1.0  0.66123  0.35868  0.89934  1.0000
  H   H1273     1.0  0.52719  0.47090  0.97502  1.0000
  H   H1274     1.0  0.61874  0.34960  0.17577  1.0000
  H   H1275     1.0  0.62835  0.44980  0.15504  1.0000
  H   H1276     1.0  0.50061  0.46474  0.82502  1.0000
  H   H1277     1.0  0.59458  0.46491  0.46589  1.0000
  H   H1278     1.0  0.50159  0.47766  0.78244  1.0000
  C   C799      1.0  0.62538  0.46427  0.08809  1.0000
  H   H1279     1.0  0.59058  0.47069  0.54914  1.0000
  C   C800      1.0  0.62392  0.40829  0.41384  1.0000
  Fe  Fe156     1.0  0.60143  0.39993  0.24133  1.0000
  H   H1280     1.0  0.61827  0.34613  0.58830  1.0000
  H   H1281     1.0  0.62001  0.37689  0.12801  1.0000
  H   H1282     1.0  0.58416  0.35954  0.41897  1.0000
  H   H1283     1.0  0.61504  0.44248  0.07235  1.0000
  H   H1284     1.0  0.65075  0.37203  0.14370  1.0000
  H   H1285     1.0  0.62254  0.43231  0.10114  1.0000
  H   H1286     1.0  0.57763  0.37043  0.44299  1.0000
  H   H1287     1.0  0.51199  0.48153  0.87266  1.0000
  C   C801      1.0  0.51860  0.49596  0.62898  1.0000
  Fe  Fe157     1.0  0.62033  0.41251  0.27846  1.0000
  S   S310      1.0  0.62582  0.40663  0.33657  1.0000
  C   C802      1.0  0.63989  0.45376  0.05439  1.0000
  S   S311      1.0  0.50269  0.37105  0.46027  1.0000
  H   H1288     1.0  0.63472  0.38443  0.13498  1.0000
  S   S312      1.0  0.64046  0.41572  0.12716  1.0000
  C   C803      1.0  0.62346  0.41453  0.37513  1.0000
  H   H1289     1.0  0.64355  0.44498  0.05667  1.0000
  C   C804      1.0  0.62134  0.42681  0.36808  1.0000
  S   S313      1.0  0.62922  0.42926  0.22293  1.0000
  C   C805      1.0  0.62320  0.35291  0.14252  1.0000
  H   H1290     1.0  0.65443  0.34809  0.01470  1.0000
  S   S314      1.0  0.60813  0.41540  0.18321  1.0000
  H   H1291     1.0  0.53821  0.38943  0.53018  1.0000
  H   H1292     1.0  0.51590  0.41925  0.69592  1.0000
  C   C806      1.0  0.62235  0.41427  0.44527  1.0000
  H   H1293     1.0  0.59361  0.36973  0.44064  1.0000
  S   S315      1.0  0.60039  0.41349  0.28003  1.0000
  N   N81       1.0  0.63004  0.45252  0.09167  1.0000
  C   C807      1.0  0.62011  0.43295  0.39935  1.0000
  S   S316      1.0  0.62072  0.39783  0.24293  1.0000
  Fe  Fe158     1.0  0.60912  0.42900  0.22148  1.0000
  H   H1294     1.0  0.64403  0.34357  0.96228  1.0000
  H   H1295     1.0  0.63884  0.44164  0.13069  1.0000
  C   C808      1.0  0.61939  0.44138  0.09798  1.0000
  S   S317      1.0  0.59394  0.41282  0.56454  1.0000
  N   N82       1.0  0.63315  0.36503  0.13109  1.0000
  H   H1296     1.0  0.62310  0.37253  0.17639  1.0000
  H   H1297     1.0  0.60399  0.38950  0.17486  1.0000
  H   H1298     1.0  0.64151  0.36796  0.61961  1.0000
  C   C809      1.0  0.66057  0.39305  0.59867  1.0000
  C   C810      1.0  0.63547  0.45058  0.12647  1.0000
  C   C811      1.0  0.62065  0.42671  0.43803  1.0000
  C   C812      1.0  0.65053  0.39887  0.60749  1.0000
  H   H1299     1.0  0.62101  0.43172  0.33832  1.0000
  H   H1300     1.0  0.61018  0.37831  0.37364  1.0000
  C   C813      1.0  0.62750  0.37514  0.14315  1.0000
  C   C814      1.0  0.64305  0.36309  0.15179  1.0000
  H   H1301     1.0  0.61882  0.44259  0.39345  1.0000
  Fe  Fe159     1.0  0.62763  0.41459  0.18774  1.0000
  H   H1302     1.0  0.61178  0.44020  0.12585  1.0000
  H   H1303     1.0  0.49738  0.48385  0.89986  1.0000
  H   H1304     1.0  0.64657  0.37798  0.07721  1.0000
  H   H1305     1.0  0.63913  0.36013  0.18525  1.0000
  H   H1306     1.0  0.62558  0.39880  0.41953  1.0000
  C   C815      1.0  0.63887  0.36897  0.08682  1.0000
  S   S318      1.0  0.60359  0.44769  0.20355  1.0000
  C   C816      1.0  0.50153  0.47885  0.87809  1.0000
  N   N83       1.0  0.49796  0.48212  0.83985  1.0000
  C   C817      1.0  0.58637  0.36930  0.42344  1.0000
  H   H1307     1.0  0.60179  0.38591  0.10927  1.0000
  H   H1308     1.0  0.60049  0.36785  0.35315  1.0000
  C   C818      1.0  0.59515  0.38392  0.17328  1.0000
  H   H1309     1.0  0.64366  0.45870  0.12258  1.0000
  H   H1310     1.0  0.57845  0.46319  0.52954  1.0000
  H   H1311     1.0  0.50097  0.48312  0.60207  1.0000
  S   S319      1.0  0.53025  0.49873  0.72070  1.0000
  H   H1312     1.0  0.50309  0.40581  0.72691  1.0000
  H   H1313     1.0  0.60538  0.35323  0.60302  1.0000
  N   N84       1.0  0.62313  0.36272  0.60993  1.0000
  H   H1314     1.0  0.54151  0.40284  0.55067  1.0000
  C   C819      1.0  0.64602  0.38786  0.67836  1.0000
  C   C820      1.0  0.60376  0.45287  0.54891  1.0000
  Fe  Fe160     1.0  0.59523  0.41864  0.62068  1.0000
  H   H1315     1.0  0.50977  0.49067  0.65338  1.0000
  C   C821      1.0  0.50242  0.49612  0.82088  1.0000
  Fe  Fe161     1.0  0.61467  0.42192  0.54045  1.0000
  H   H1316     1.0  0.61556  0.35405  0.12752  1.0000
  H   H1317     1.0  0.60895  0.46200  0.55261  1.0000
  H   H1318     1.0  0.64039  0.38585  0.70927  1.0000
  S   S320      1.0  0.62041  0.40377  0.56254  1.0000
  H   H1319     1.0  0.60805  0.45848  0.46839  1.0000
  H   H1320     1.0  0.63205  0.35231  0.64973  1.0000
  S   S321      1.0  0.63194  0.40488  0.66082  1.0000
  C   C822      1.0  0.64345  0.39653  0.64756  1.0000
  C   C823      1.0  0.65765  0.40427  0.09097  1.0000
  H   H1321     1.0  0.62282  0.40937  0.47480  1.0000
  S   S322      1.0  0.61587  0.42891  0.59547  1.0000
  H   H1322     1.0  0.57956  0.34730  0.04380  1.0000
  C   C824      1.0  0.50170  0.35129  0.97864  1.0000
  H   H1323     1.0  0.49666  0.34201  0.00183  1.0000
  C   C825      1.0  0.61715  0.36869  0.64026  1.0000
  Fe  Fe162     1.0  0.61952  0.40963  0.61996  1.0000
  H   H1324     1.0  0.63173  0.37066  0.07013  1.0000
  H   H1325     1.0  0.50825  0.44127  0.75856  1.0000
  H   H1326     1.0  0.65199  0.40526  0.18899  1.0000
  H   H1327     1.0  0.53474  0.50061  0.55581  1.0000
  C   C826      1.0  0.60268  0.34280  0.03101  1.0000
  C   C827      1.0  0.50105  0.45435  0.62660  1.0000
  H   H1328     1.0  0.63131  0.36772  0.54558  1.0000
  H   H1329     1.0  0.55488  0.34504  0.27719  1.0000
  H   H1330     1.0  0.51942  0.43177  0.76331  1.0000
  H   H1331     1.0  0.51880  0.44002  0.71403  1.0000
  C   C828      1.0  0.65585  0.38183  0.66942  1.0000
  H   H1332     1.0  0.49826  0.36755  0.02504  1.0000
  H   H1333     1.0  0.65463  0.40738  0.06411  1.0000
  C   C829      1.0  0.50385  0.47533  0.81200  1.0000
  H   H1334     1.0  0.49812  0.36279  0.54772  1.0000
  H   H1335     1.0  0.49824  0.46834  0.89313  1.0000
  S   S323      1.0  0.53620  0.49752  0.82211  1.0000
  C   C830      1.0  0.54480  0.49954  0.85738  1.0000
  S   S324      1.0  0.53025  0.49662  0.14648  1.0000
  C   C831      1.0  0.49574  0.41655  0.78671  1.0000
  H   H1336     1.0  0.49841  0.50159  0.84134  1.0000
  C   C832      1.0  0.54421  0.49710  0.92803  1.0000
  H   H1337     1.0  0.65944  0.38473  0.79553  1.0000
  H   H1338     1.0  0.58039  0.33635  0.08850  1.0000
  S   S325      1.0  0.56514  0.50134  0.95607  1.0000
  C   C833      1.0  0.52237  0.61078  0.38479  1.0000
  C   C834      1.0  0.51548  0.52701  0.15662  1.0000
  H   H1339     1.0  0.51303  0.59592  0.34031  1.0000
  H   H1340     1.0  0.51675  0.58171  0.36512  1.0000
  C   C835      1.0  0.55315  0.52436  0.00066  1.0000
  H   H1341     1.0  0.52140  0.61425  0.41247  1.0000
  H   H1342     1.0  0.51174  0.53098  0.18082  1.0000
  H   H1343     1.0  0.52923  0.59579  0.33808  1.0000
  H   H1344     1.0  0.52653  0.51020  0.52792  1.0000
  C   C836      1.0  0.55803  0.50366  0.84662  1.0000
  S   S326      1.0  0.51322  0.54852  0.10363  1.0000
  C   C837      1.0  0.50321  0.55599  0.35324  1.0000
  C   C838      1.0  0.53359  0.53882  0.58618  1.0000
  H   H1345     1.0  0.50151  0.58175  0.42903  1.0000
  H   H1346     1.0  0.51660  0.61534  0.36676  1.0000
  H   H1347     1.0  0.52534  0.59385  0.44765  1.0000
  H   H1348     1.0  0.52782  0.52336  0.68555  1.0000
  H   H1349     1.0  0.55052  0.53057  0.07227  1.0000
  C   C839      1.0  0.52199  0.52838  0.08534  1.0000
  C   C840      1.0  0.51702  0.53361  0.11647  1.0000
  C   C841      1.0  0.50484  0.59238  0.41980  1.0000
  C   C842      1.0  0.57426  0.52444  0.00632  1.0000
  C   C843      1.0  0.56704  0.54384  0.00174  1.0000
  S   S327      1.0  0.56089  0.50564  0.70868  1.0000
  H   H1350     1.0  0.53246  0.61437  0.36670  1.0000
  C   C844      1.0  0.52642  0.52886  0.65830  1.0000
  C   C845      1.0  0.52552  0.51672  0.09426  1.0000
  C   C846      1.0  0.50753  0.50880  0.59204  1.0000
  C   C847      1.0  0.49987  0.55990  0.31706  1.0000
  H   H1351     1.0  0.50435  0.55750  0.29017  1.0000
  C   C848      1.0  0.53531  0.53116  0.62113  1.0000
  S   S328      1.0  0.50333  0.55586  0.43111  1.0000
  H   H1352     1.0  0.52309  0.53339  0.05422  1.0000
  N   N85       1.0  0.56322  0.52970  0.01782  1.0000
  H   H1353     1.0  0.49830  0.50395  0.61503  1.0000
  C   C849      1.0  0.51937  0.59237  0.35803  1.0000
  H   H1354     1.0  0.54999  0.51372  0.01242  1.0000
  C   C850      1.0  0.51938  0.51556  0.16541  1.0000
  C   C851      1.0  0.55842  0.52619  0.06244  1.0000
  H   H1355     1.0  0.52924  0.51271  0.07023  1.0000
  S   S329      1.0  0.50083  0.57569  0.15145  1.0000
  C   C852      1.0  0.52457  0.51046  0.13427  1.0000
  H   H1356     1.0  0.51029  0.55057  0.35407  1.0000
  H   H1357     1.0  0.55478  0.51560  0.07561  1.0000
  H   H1358     1.0  0.51859  0.51075  0.19648  1.0000
  H   H1359     1.0  0.53623  0.59385  0.40167  1.0000
  H   H1360     1.0  0.50900  0.53217  0.68946  1.0000
  H   H1361     1.0  0.56595  0.52949  0.07658  1.0000
  H   H1362     1.0  0.58215  0.52838  0.01813  1.0000
  H   H1363     1.0  0.54473  0.52824  0.00813  1.0000
  H   H1364     1.0  0.55889  0.54811  0.00975  1.0000
  H   H1365     1.0  0.57791  0.52662  0.97283  1.0000
  H   H1366     1.0  0.57459  0.54821  0.01415  1.0000
  H   H1367     1.0  0.53297  0.51548  0.56552  1.0000
  H   H1368     1.0  0.55654  0.52655  0.96710  1.0000
  H   H1369     1.0  0.49846  0.59621  0.40284  1.0000
  N   N86       1.0  0.51818  0.59663  0.39536  1.0000
  C   C853      1.0  0.51391  0.54135  0.62555  1.0000
  C   C854      1.0  0.51579  0.53395  0.66049  1.0000
  H   H1370     1.0  0.57172  0.51381  0.01828  1.0000
  H   H1371     1.0  0.57072  0.54681  0.96814  1.0000
  S   S330      1.0  0.50506  0.57186  0.52006  1.0000
  H   H1372     1.0  0.54050  0.54077  0.55735  1.0000
  S   S331      1.0  0.54825  0.52404  0.61720  1.0000
  C   C855      1.0  0.52285  0.54381  0.58828  1.0000
  C   C856      1.0  0.49772  0.55940  0.38794  1.0000
  H   H1373     1.0  0.52153  0.54961  0.56124  1.0000
  H   H1374     1.0  0.52305  0.58021  0.42776  1.0000
  H   H1375     1.0  0.50356  0.59556  0.44796  1.0000
  C   C857      1.0  0.56432  0.50446  0.87688  1.0000
  H   H1376     1.0  0.51177  0.51734  0.60096  1.0000
  Fe  Fe163     1.0  0.54765  0.50734  0.66893  1.0000
  C   C858      1.0  0.52608  0.59092  0.41910  1.0000
  H   H1377     1.0  0.57454  0.50763  0.86865  1.0000
  C   C859      1.0  0.52807  0.50688  0.55822  1.0000
  Fe  Fe164     1.0  0.49904  0.55543  0.14529  1.0000
  H   H1378     1.0  0.56338  0.50632  0.81515  1.0000
  S   S332      1.0  0.50017  0.54713  0.63021  1.0000
  H   H1379     1.0  0.50558  0.51240  0.56251  1.0000
  H   H1380     1.0  0.52319  0.50430  0.63812  1.0000
  H   H1381     1.0  0.49610  0.62823  0.12159  1.0000
  H   H1382     1.0  0.49744  0.51084  0.11873  1.0000
  H   H1383     1.0  0.51043  0.70580  0.09143  1.0000
  C   C860      1.0  0.51328  0.70635  0.05862  1.0000
  H   H1384     1.0  0.51466  0.68516  0.00182  1.0000
  H   H1385     1.0  0.56502  0.82720  0.80531  1.0000
  S   S333      1.0  0.50010  0.77893  0.57784  1.0000
  C   C861      1.0  0.56323  0.82346  0.73340  1.0000
  H   H1386     1.0  0.57262  0.82148  0.72321  1.0000
  C   C862      1.0  0.50137  0.77416  0.31876  1.0000
  H   H1387     1.0  0.53290  0.74313  0.49582  1.0000
  H   H1388     1.0  0.51893  0.68624  0.10300  1.0000
  H   H1389     1.0  0.54227  0.76772  0.39584  1.0000
  H   H1390     1.0  0.54565  0.83003  0.78499  1.0000
  H   H1391     1.0  0.52862  0.73213  0.42509  1.0000
  S   S334      1.0  0.50839  0.79986  0.48848  1.0000
  N   N87       1.0  0.51228  0.69346  0.05195  1.0000
  H   H1392     1.0  0.51798  0.73531  0.49050  1.0000
  H   H1393     1.0  0.53974  0.83049  0.15616  1.0000
  C   C863      1.0  0.55481  0.83300  0.57132  1.0000
  H   H1394     1.0  0.55874  0.82373  0.70803  1.0000
  C   C864      1.0  0.52506  0.74472  0.48224  1.0000
  H   H1395     1.0  0.54761  0.76144  0.43906  1.0000
  N   N88       1.0  0.52967  0.75039  0.43794  1.0000
  H   H1396     1.0  0.52201  0.75686  0.38838  1.0000
  C   C865      1.0  0.50363  0.77617  0.38465  1.0000
  C   C866      1.0  0.52109  0.68727  0.06988  1.0000
  S   S335      1.0  0.50937  0.74610  0.58217  1.0000
  S   S336      1.0  0.50047  0.76876  0.49671  1.0000
  H   H1397     1.0  0.53918  0.74557  0.38549  1.0000
  H   H1398     1.0  0.53109  0.69294  0.05583  1.0000
  S   S337      1.0  0.52589  0.78827  0.39742  1.0000
  Fe  Fe165     1.0  0.50939  0.78434  0.13340  1.0000
  S   S338      1.0  0.51234  0.76767  0.17812  1.0000
  C   C867      1.0  0.53555  0.74152  0.41893  1.0000
  C   C868      1.0  0.53184  0.81765  0.12475  1.0000
  C   C869      1.0  0.53888  0.82938  0.12706  1.0000
  H   H1399     1.0  0.52740  0.80980  0.15186  1.0000
  S   S339      1.0  0.52023  0.81100  0.57462  1.0000
  H   H1400     1.0  0.49732  0.83017  0.04019  1.0000
  C   C870      1.0  0.51626  0.78308  0.36724  1.0000
  C   C871      1.0  0.52143  0.78549  0.32530  1.0000
  C   C872      1.0  0.51398  0.78115  0.30102  1.0000
  C   C873      1.0  0.51892  0.75259  0.42180  1.0000
  H   H1401     1.0  0.49944  0.77430  0.41662  1.0000
  H   H1402     1.0  0.53119  0.79082  0.31143  1.0000
  H   H1403     1.0  0.51800  0.78321  0.26871  1.0000
  C   C874      1.0  0.54546  0.82389  0.56397  1.0000
  H   H1404     1.0  0.52311  0.71253  0.04555  1.0000
  C   C875      1.0  0.53091  0.81598  0.08722  1.0000
  Fe  Fe166     1.0  0.51719  0.78543  0.46459  1.0000
  C   C876      1.0  0.52947  0.82856  0.61284  1.0000
  C   C877      1.0  0.53686  0.82624  0.05224  1.0000
  S   S340      1.0  0.52264  0.80125  0.08230  1.0000
  H   H1405     1.0  0.53625  0.82502  0.02304  1.0000
  C   C878      1.0  0.53911  0.76275  0.42884  1.0000
  H   H1406     1.0  0.51964  0.82694  0.62904  1.0000
  Fe  Fe167     1.0  0.50961  0.76614  0.54719  1.0000
  S   S341      1.0  0.52724  0.78214  0.51379  1.0000
  H   H1407     1.0  0.51147  0.74352  0.42867  1.0000
  H   H1408     1.0  0.50704  0.71142  0.04422  1.0000
  C   C879      1.0  0.49945  0.73202  0.57852  1.0000
  Fe  Fe168     1.0  0.51690  0.79542  0.54081  1.0000
  H   H1409     1.0  0.52042  0.75113  0.49735  1.0000
  C   C880      1.0  0.51550  0.69472  0.00802  1.0000
  H   H1410     1.0  0.52533  0.70061  0.99242  1.0000
  C   C881      1.0  0.53267  0.82165  0.58453  1.0000
  H   H1411     1.0  0.54813  0.81869  0.54213  1.0000
  H   H1412     1.0  0.54365  0.73956  0.43064  1.0000
  H   H1413     1.0  0.55728  0.81520  0.75928  1.0000
  H   H1414     1.0  0.50200  0.71994  0.63163  1.0000
  H   H1415     1.0  0.53510  0.76944  0.44431  1.0000
  H   H1416     1.0  0.50903  0.69944  0.99359  1.0000
  H   H1417     1.0  0.51442  0.75940  0.43504  1.0000
  C   C882      1.0  0.49763  0.72023  0.60706  1.0000
  H   H1418     1.0  0.49938  0.80870  0.07395  1.0000
  H   H1419     1.0  0.52041  0.67746  0.06566  1.0000
  C   C883      1.0  0.57064  0.83511  0.77794  1.0000
  H   H1420     1.0  0.58030  0.83360  0.76878  1.0000
  H   H1421     1.0  0.49754  0.81955  0.54285  1.0000
  H   H1422     1.0  0.49813  0.67565  0.06697  1.0000
  C   C884      1.0  0.49634  0.77154  0.36072  1.0000
  C   C885      1.0  0.49921  0.68547  0.07122  1.0000
  Fe  Fe169     1.0  0.49745  0.75499  0.15943  1.0000
  H   H1423     1.0  0.49637  0.68438  0.10434  1.0000
  S   S342      1.0  0.49659  0.73438  0.15538  1.0000
  Fe  Fe170     1.0  0.49597  0.77071  0.22254  1.0000
  S   S343      1.0  0.49603  0.77128  0.11130  1.0000
  N   N89       1.0  0.56450  0.83567  0.74474  1.0000
  H   H1424     1.0  0.56464  0.83467  0.55495  1.0000
  H   H1425     1.0  0.64772  0.95365  0.50964  1.0000
  C   C886      1.0  0.63974  0.99879  0.35026  1.0000
  S   S344      1.0  0.53207  0.98686  0.07399  1.0000
  H   H1426     1.0  0.56209  0.98243  0.12510  1.0000
  S   S345      1.0  0.55640  0.96388  0.45684  1.0000
  S   S346      1.0  0.55472  0.88944  0.07128  1.0000
  S   S347      1.0  0.50772  0.92088  0.12362  1.0000
  C   C887      1.0  0.55157  0.84009  0.59904  1.0000
  H   H1427     1.0  0.59747  0.99026  0.45175  1.0000
  H   H1428     1.0  0.56784  0.84722  0.68389  1.0000
  C   C888      1.0  0.54061  0.91508  0.10162  1.0000
  C   C889      1.0  0.57817  0.97336  0.18085  1.0000
  Fe  Fe171     1.0  0.53181  0.94860  0.18331  1.0000
  H   H1429     1.0  0.52623  0.90778  0.17875  1.0000
  C   C890      1.0  0.58737  0.98792  0.46469  1.0000
  H   H1430     1.0  0.59114  0.92245  0.14368  1.0000
  C   C891      1.0  0.59387  0.96966  0.34754  1.0000
  H   H1431     1.0  0.50021  0.92545  0.02803  1.0000
  C   C892      1.0  0.59794  0.98872  0.29278  1.0000
  H   H1432     1.0  0.62773  0.98242  0.39773  1.0000
  H   H1433     1.0  0.55242  0.84701  0.76708  1.0000
  S   S348      1.0  0.51943  0.99305  0.56502  1.0000
  H   H1434     1.0  0.54459  0.86436  0.57123  1.0000
  S   S349      1.0  0.61734  0.00063  0.55814  1.0000
  C   C893      1.0  0.56632  0.97563  0.46999  1.0000
  H   H1435     1.0  0.57457  0.98941  0.33118  1.0000
  C   C894      1.0  0.53882  0.83773  0.61999  1.0000
  H   H1436     1.0  0.55773  0.90364  0.12941  1.0000
  H   H1437     1.0  0.54836  0.91470  0.07629  1.0000
  H   H1438     1.0  0.53615  0.84298  0.64163  1.0000
  S   S350      1.0  0.54858  0.94362  0.20035  1.0000
  H   H1439     1.0  0.60458  0.98511  0.27227  1.0000
  N   N90       1.0  0.50995  0.99801  0.19789  1.0000
  C   C895      1.0  0.61264  0.95277  0.57574  1.0000
  C   C896      1.0  0.54932  0.90411  0.15219  1.0000
  H   H1440     1.0  0.59930  0.97509  0.36409  1.0000
  C   C897      1.0  0.50720  0.92337  0.00413  1.0000
  H   H1441     1.0  0.54835  0.84581  0.02740  1.0000
  H   H1442     1.0  0.55253  0.93616  0.11908  1.0000
  C   C898      1.0  0.60235  0.92979  0.60465  1.0000
  C   C899      1.0  0.59342  0.93046  0.11703  1.0000
  C   C900      1.0  0.57259  0.97537  0.03644  1.0000
  H   H1443     1.0  0.51609  0.96040  0.36526  1.0000
  H   H1444     1.0  0.50975  0.91456  0.01850  1.0000
  H   H1445     1.0  0.51795  0.85270  0.53090  1.0000
  H   H1446     1.0  0.49973  0.86101  0.07529  1.0000
  H   H1447     1.0  0.51671  0.87778  0.08298  1.0000
  H   H1448     1.0  0.57493  0.95531  0.16617  1.0000
  H   H1449     1.0  0.64324  0.98223  0.44180  1.0000
  Fe  Fe172     1.0  0.51104  0.93895  0.14636  1.0000
  Fe  Fe173     1.0  0.56072  0.87351  0.04847  1.0000
  C   C901      1.0  0.52385  0.89131  0.99356  1.0000
  S   S351      1.0  0.55320  0.85435  0.09700  1.0000
  H   H1450     1.0  0.64363  0.97500  0.49233  1.0000
  H   H1451     1.0  0.50754  0.94208  0.94028  1.0000
  S   S352      1.0  0.53125  0.95077  0.11932  1.0000
  C   C902      1.0  0.58083  0.97043  0.30133  1.0000
  H   H1452     1.0  0.62754  0.95565  0.49664  1.0000
  C   C903      1.0  0.57303  0.98132  0.20198  1.0000
  N   N91       1.0  0.51480  0.85742  0.10118  1.0000
  H   H1453     1.0  0.58430  0.98893  0.36555  1.0000
  C   C904      1.0  0.56022  0.97757  0.22343  1.0000
  S   S353      1.0  0.51993  0.94931  0.47947  1.0000
  H   H1454     1.0  0.52062  0.92670  0.92792  1.0000
  H   H1455     1.0  0.52382  0.85096  0.57432  1.0000
  H   H1456     1.0  0.54630  0.87820  0.46348  1.0000
  S   S354      1.0  0.52677  0.96705  0.18643  1.0000
  S   S355      1.0  0.51225  0.93596  0.21076  1.0000
  H   H1457     1.0  0.52047  0.87546  0.52616  1.0000
  H   H1458     1.0  0.53264  0.90650  0.10783  1.0000
  H   H1459     1.0  0.57167  0.84423  0.78710  1.0000
  C   C905      1.0  0.57948  0.97829  0.45482  1.0000
  H   H1460     1.0  0.54401  0.86129  0.46874  1.0000
  N   N92       1.0  0.58796  0.97799  0.32269  1.0000
  H   H1461     1.0  0.55944  0.92767  0.15434  1.0000
  H   H1462     1.0  0.55224  0.90412  0.18041  1.0000
  Fe  Fe174     1.0  0.50696  0.95467  0.20877  1.0000
  H   H1463     1.0  0.53735  0.91707  0.19814  1.0000
  H   H1464     1.0  0.54278  0.96278  0.24084  1.0000
  C   C906      1.0  0.55557  0.92718  0.12802  1.0000
  H   H1465     1.0  0.53581  0.88581  0.51939  1.0000
  C   C907      1.0  0.54486  0.83964  0.09207  1.0000
  H   H1466     1.0  0.50675  0.89229  0.03294  1.0000
  H   H1467     1.0  0.51377  0.95636  0.29958  1.0000
  Fe  Fe175     1.0  0.51145  0.96614  0.46843  1.0000
  C   C908      1.0  0.58213  0.99466  0.49056  1.0000
  H   H1468     1.0  0.60371  0.99450  0.30768  1.0000
  H   H1469     1.0  0.60062  0.96573  0.32837  1.0000
  H   H1470     1.0  0.55618  0.98369  0.23987  1.0000
  N   N93       1.0  0.54497  0.91567  0.13802  1.0000
  H   H1471     1.0  0.54258  0.99333  0.13820  1.0000
  H   H1472     1.0  0.58779  0.97648  0.16226  1.0000
  S   S356      1.0  0.58105  0.88513  0.02251  1.0000
  H   H1473     1.0  0.58663  0.96143  0.37043  1.0000
  C   C909      1.0  0.51082  0.88773  0.01112  1.0000
  H   H1474     1.0  0.53077  0.92485  0.16068  1.0000
  C   C910      1.0  0.55802  0.95768  0.20368  1.0000
  S   S357      1.0  0.52854  0.98068  0.46852  1.0000
  H   H1475     1.0  0.59652  0.91806  0.92857  1.0000
  C   C911      1.0  0.57231  0.84631  0.70927  1.0000
  H   H1476     1.0  0.53709  0.92362  0.09069  1.0000
  Fe  Fe176     1.0  0.62632  0.98630  0.53375  1.0000
  C   C912      1.0  0.60670  0.92326  0.91923  1.0000
  S   S358      1.0  0.58341  0.91235  0.08199  1.0000
  H   H1477     1.0  0.65795  0.98062  0.45153  1.0000
  C   C913      1.0  0.53438  0.91633  0.17041  1.0000
  C   C914      1.0  0.55267  0.96576  0.22402  1.0000
  H   H1478     1.0  0.56353  0.92717  0.10275  1.0000
  H   H1479     1.0  0.60156  0.92070  0.62561  1.0000
  H   H1480     1.0  0.57198  0.00227  0.06815  1.0000
  C   C915      1.0  0.57081  0.96142  0.18257  1.0000
  C   C916      1.0  0.65100  0.96443  0.40873  1.0000
  Fe  Fe177     1.0  0.52433  0.96824  0.12465  1.0000
  H   H1481     1.0  0.55200  0.85906  0.52957  1.0000
  H   H1482     1.0  0.53340  0.86046  0.06191  1.0000
  H   H1483     1.0  0.54180  0.89516  0.15836  1.0000
  S   S359      1.0  0.49920  0.85731  0.97128  1.0000
  C   C917      1.0  0.61131  0.94091  0.60330  1.0000
  H   H1484     1.0  0.52199  0.86456  0.03656  1.0000
  S   S360      1.0  0.53335  0.90233  0.01027  1.0000
  H   H1485     1.0  0.58356  0.97295  0.43540  1.0000
  C   C918      1.0  0.60800  0.91722  0.98809  1.0000
  C   C919      1.0  0.50224  0.87246  0.62249  1.0000
  H   H1486     1.0  0.64949  0.95500  0.40170  1.0000
  H   H1487     1.0  0.52743  0.87472  0.56743  1.0000
  Fe  Fe178     1.0  0.55114  0.89606  0.01136  1.0000
  Fe  Fe179     1.0  0.57459  0.90157  0.04191  1.0000
  N   N94       1.0  0.61363  0.91717  0.94601  1.0000
  H   H1488     1.0  0.60231  0.95914  0.02168  1.0000
  C   C920      1.0  0.62707  0.92441  0.93266  1.0000
  Fe  Fe180     1.0  0.53624  0.96350  0.48511  1.0000
  H   H1489     1.0  0.58543  0.97406  0.09304  1.0000
  S   S361      1.0  0.55548  0.87921  0.99043  1.0000
  C   C921      1.0  0.57923  0.98314  0.34903  1.0000
  H   H1490     1.0  0.57160  0.97528  0.37213  1.0000
  H   H1491     1.0  0.60180  0.94419  0.14534  1.0000
  S   S362      1.0  0.58294  0.99553  0.20303  1.0000
  C   C922      1.0  0.59052  0.92833  0.08174  1.0000
  H   H1492     1.0  0.51516  0.83814  0.12934  1.0000
  H   H1493     1.0  0.61789  0.89886  0.96362  1.0000
  C   C923      1.0  0.50858  0.87112  0.97646  1.0000
  Fe  Fe181     1.0  0.54713  0.88570  0.66616  1.0000
  S   S363      1.0  0.55024  0.86687  0.69558  1.0000
  S   S364      1.0  0.52860  0.89054  0.66665  1.0000
  Fe  Fe182     1.0  0.57478  0.89777  0.62343  1.0000
  S   S365      1.0  0.58034  0.87959  0.64849  1.0000
  Fe  Fe183     1.0  0.56315  0.86859  0.63516  1.0000
  Fe  Fe184     1.0  0.56689  0.87895  0.70778  1.0000
  S   S366      1.0  0.56822  0.87046  0.77151  1.0000
  S   S367      1.0  0.56246  0.89771  0.68329  1.0000
  H   H1494     1.0  0.59272  0.90500  0.81331  1.0000
  H   H1495     1.0  0.56360  0.92565  0.61786  1.0000
  H   H1496     1.0  0.54742  0.92033  0.53958  1.0000
  Fe  Fe185     1.0  0.57518  0.89209  0.96555  1.0000
  H   H1497     1.0  0.61665  0.90337  0.91249  1.0000
  S   S368      1.0  0.58698  0.89633  0.90039  1.0000
  H   H1498     1.0  0.54512  0.90890  0.58732  1.0000
  C   C924      1.0  0.58473  0.98378  0.07779  1.0000
  H   H1499     1.0  0.60557  0.96243  0.52877  1.0000
  C   C925      1.0  0.50672  0.95982  0.31751  1.0000
  H   H1500     1.0  0.53916  0.88859  0.94979  1.0000
  H   H1501     1.0  0.51968  0.99848  0.24404  1.0000
  C   C926      1.0  0.64769  0.97576  0.45981  1.0000
  H   H1502     1.0  0.54466  0.99151  0.57337  1.0000
  C   C927      1.0  0.55181  0.83786  0.75823  1.0000
  C   C928      1.0  0.50316  0.87780  0.00213  1.0000
  H   H1503     1.0  0.52578  0.87014  0.93657  1.0000
  H   H1504     1.0  0.54789  0.91642  0.64661  1.0000
  C   C929      1.0  0.54267  0.99994  0.58165  1.0000
  C   C930      1.0  0.55065  0.91859  0.56750  1.0000
  H   H1505     1.0  0.52955  0.91908  0.62020  1.0000
  C   C931      1.0  0.55655  0.94131  0.56138  1.0000
  S   S369      1.0  0.52889  0.96000  0.55218  1.0000
  C   C932      1.0  0.57247  0.87867  0.80665  1.0000
  C   C933      1.0  0.56759  0.87248  0.84828  1.0000
  C   C934      1.0  0.57153  0.87806  0.87726  1.0000
  C   C935      1.0  0.58071  0.88975  0.86491  1.0000
  C   C936      1.0  0.58558  0.89599  0.82328  1.0000
  C   C937      1.0  0.58136  0.89057  0.79430  1.0000
  H   H1506     1.0  0.56079  0.86323  0.85823  1.0000
  H   H1507     1.0  0.56778  0.87307  0.90908  1.0000
  H   H1508     1.0  0.58532  0.89539  0.76239  1.0000
  C   C938      1.0  0.51922  0.87879  0.65203  1.0000
  C   C939      1.0  0.52142  0.86657  0.65634  1.0000
  C   C940      1.0  0.51396  0.85727  0.64411  1.0000
  H   H1509     1.0  0.51022  0.84715  0.16412  1.0000
  S   S370      1.0  0.61149  0.99786  0.11483  1.0000
  C   C941      1.0  0.50963  0.88174  0.63502  1.0000
  H   H1510     1.0  0.55251  0.93332  0.64186  1.0000
  N   N95       1.0  0.53572  0.86609  0.52272  1.0000
  C   C942      1.0  0.50440  0.86024  0.62699  1.0000
  C   C943      1.0  0.54375  0.83804  0.05462  1.0000
  H   H1511     1.0  0.56682  0.94166  0.55244  1.0000
  C   C944      1.0  0.59612  0.94225  0.55038  1.0000
  H   H1512     1.0  0.61050  0.92313  0.88735  1.0000
  Fe  Fe186     1.0  0.51165  0.94711  0.54551  1.0000
  H   H1513     1.0  0.59777  0.91216  0.99878  1.0000
  H   H1514     1.0  0.56363  0.97451  0.02719  1.0000
  C   C945      1.0  0.54709  0.86639  0.53765  1.0000
  H   H1515     1.0  0.53386  0.93596  0.61608  1.0000
  S   S371      1.0  0.57039  0.90941  0.98328  1.0000
  C   C946      1.0  0.49900  0.93383  0.95163  1.0000
  C   C947      1.0  0.63180  0.95701  0.46387  1.0000
  H   H1516     1.0  0.52868  0.86415  0.66981  1.0000
  H   H1517     1.0  0.50807  0.89124  0.63119  1.0000
  H   H1518     1.0  0.51547  0.84774  0.64842  1.0000
  C   C948      1.0  0.50803  0.96211  0.35470  1.0000
  N   N96       1.0  0.57287  0.98316  0.06556  1.0000
  S   S372      1.0  0.50389  0.95684  0.14639  1.0000
  H   H1519     1.0  0.62808  0.93456  0.93372  1.0000
  S   S373      1.0  0.56374  0.85202  0.60529  1.0000
  H   H1520     1.0  0.52657  0.85047  0.13703  1.0000
  H   H1521     1.0  0.61734  0.94028  0.62342  1.0000
  H   H1522     1.0  0.53187  0.93061  0.57286  1.0000
  H   H1523     1.0  0.60878  0.92715  0.99106  1.0000
  H   H1524     1.0  0.63255  0.92008  0.95232  1.0000
  H   H1525     1.0  0.52155  0.84803  0.05629  1.0000
  H   H1526     1.0  0.60722  0.93339  0.91963  1.0000
  N   N97       1.0  0.54904  0.92861  0.58854  1.0000
  H   H1527     1.0  0.55354  0.94364  0.53310  1.0000
  H   H1528     1.0  0.59326  0.98793  0.05136  1.0000
  H   H1529     1.0  0.56076  0.91831  0.55856  1.0000
  H   H1530     1.0  0.62676  0.96305  0.44699  1.0000
  C   C949      1.0  0.56900  0.99194  0.50574  1.0000
  H   H1531     1.0  0.55405  0.87591  0.52497  1.0000
  S   S374      1.0  0.55893  0.88676  0.60506  1.0000
  S   S375      1.0  0.61852  0.98819  0.48009  1.0000
  C   C950      1.0  0.56190  0.97717  0.10157  1.0000
  S   S376      1.0  0.58461  0.91650  0.57416  1.0000
  H   H1532     1.0  0.55097  0.98060  0.50703  1.0000
  H   H1533     1.0  0.51139  0.87060  0.13669  1.0000
  C   C951      1.0  0.52157  0.87509  0.95720  1.0000
  H   H1534     1.0  0.53106  0.84555  0.53279  1.0000
  Fe  Fe187     1.0  0.52010  0.97643  0.53572  1.0000
  C   C952      1.0  0.60476  0.95341  0.54995  1.0000
  C   C953      1.0  0.53551  0.92857  0.59995  1.0000
  C   C954      1.0  0.56110  0.98252  0.49527  1.0000
  H   H1535     1.0  0.55548  0.94913  0.57612  1.0000
  C   C955      1.0  0.55345  0.92590  0.62535  1.0000
  H   H1536     1.0  0.57331  0.96549  0.04975  1.0000
  H   H1537     1.0  0.65018  0.94505  0.47200  1.0000
  H   H1538     1.0  0.51728  0.99095  0.14766  1.0000
  S   S377      1.0  0.49908  0.96924  0.42576  1.0000
  C   C956      1.0  0.59487  0.93038  0.57763  1.0000
  H   H1539     1.0  0.63160  0.92454  0.90103  1.0000
  C   C957      1.0  0.52918  0.88537  0.96526  1.0000
  H   H1540     1.0  0.59046  0.94281  0.52914  1.0000
  H   H1541     1.0  0.51594  0.93134  0.99448  1.0000
  H   H1542     1.0  0.60275  0.89806  0.95391  1.0000
  S   S378      1.0  0.60682  0.97438  0.19525  1.0000
  H   H1543     1.0  0.50407  0.89662  0.10527  1.0000
  C   C958      1.0  0.60289  0.95322  0.08362  1.0000
  C   C959      1.0  0.63156  0.98550  0.29672  1.0000
  N   N98       1.0  0.64555  0.96300  0.45218  1.0000
  S   S379      1.0  0.61146  0.96887  0.08189  1.0000
  S   S380      1.0  0.62737  0.97627  0.26417  1.0000
  S   S381      1.0  0.63548  0.98854  0.13708  1.0000
  H   H1544     1.0  0.52769  0.87307  0.10958  1.0000
  H   H1545     1.0  0.57366  0.85564  0.71689  1.0000
  C   C960      1.0  0.52677  0.85328  0.54081  1.0000
  H   H1546     1.0  0.57328  0.96218  0.32291  1.0000
  C   C961      1.0  0.62731  0.97997  0.33880  1.0000
  H   H1547     1.0  0.59122  0.93745  0.02041  1.0000
  H   H1548     1.0  0.62124  0.97034  0.35078  1.0000
  Fe  Fe188     1.0  0.61663  0.97902  0.12896  1.0000
  C   C962      1.0  0.63108  0.98674  0.36550  1.0000
  H   H1549     1.0  0.64309  0.00216  0.24922  1.0000
  H   H1550     1.0  0.56171  0.96704  0.11562  1.0000
  C   C963      1.0  0.59350  0.93884  0.04766  1.0000
  S   S382      1.0  0.62491  0.96625  0.57194  1.0000
  H   H1551     1.0  0.62976  0.94740  0.45820  1.0000
  H   H1552     1.0  0.61268  0.91233  0.00952  1.0000
  Fe  Fe189     1.0  0.60263  0.99361  0.18069  1.0000
  C   C964      1.0  0.59974  0.95116  0.04855  1.0000
  C   C965      1.0  0.59948  0.94281  0.11812  1.0000
  C   C966      1.0  0.61275  0.90380  0.94398  1.0000
  C   C967      1.0  0.51672  0.84787  0.13442  1.0000
  Fe  Fe190     1.0  0.62480  0.98542  0.20296  1.0000
  S   S383      1.0  0.50207  0.96316  0.53469  1.0000
  C   C968      1.0  0.63963  0.99785  0.28156  1.0000
  C   C969      1.0  0.51166  0.91897  0.93900  1.0000
  C   C970      1.0  0.51775  0.87028  0.10800  1.0000
  C   C971      1.0  0.54108  0.00132  0.07850  1.0000
  H   H1553     1.0  0.55280  0.97707  0.09367  1.0000
  C   C972      1.0  0.52328  0.85760  0.06233  1.0000
  S   S384      1.0  0.50428  0.92679  0.58760  1.0000
  H   H1554     1.0  0.51412  0.90992  0.95156  1.0000
  H   H1555     1.0  0.57618  0.97642  0.28254  1.0000
  C   C973      1.0  0.53944  0.86868  0.47822  1.0000
  H   H1556     1.0  0.52781  0.99403  0.20136  1.0000
  H   H1557     1.0  0.50817  0.91781  0.91245  1.0000
  H   H1558     1.0  0.58716  0.96656  0.28067  1.0000
  H   H1559     1.0  0.58538  0.98980  0.09913  1.0000
  H   H1560     1.0  0.50199  0.99393  0.15036  1.0000
  H   H1561     1.0  0.53107  0.86858  0.46602  1.0000
  C   C974      1.0  0.50150  0.85395  0.09986  1.0000
  C   C975      1.0  0.65167  0.95482  0.47668  1.0000
  C   C976      1.0  0.52959  0.87597  0.53425  1.0000
  C   C977      1.0  0.51830  0.99314  0.22136  1.0000
  N   N99       1.0  0.50209  0.92182  0.96973  1.0000
  C   C978      1.0  0.49883  0.96658  0.37803  1.0000
  H   H1562     1.0  0.59386  0.99526  0.27349  1.0000
  H   H1563     1.0  0.56496  0.99700  0.52612  1.0000
  H   H1564     1.0  0.51424  0.98282  0.23821  1.0000
  H   H1565     1.0  0.58062  0.97973  0.00860  1.0000
  S   S385      1.0  0.64493  0.00111  0.50053  1.0000
  H   H1566     1.0  0.58189  0.84490  0.69776  1.0000
  H   H1567     1.0  0.64662  0.97068  0.38954  1.0000
  H   H1568     1.0  0.54691  0.83844  0.73384  1.0000
  H   H1569     1.0  0.49973  0.90111  0.58003  1.0000
  C   C979      1.0  0.50812  0.99043  0.16895  1.0000
  H   H1570     1.0  0.49906  0.84439  0.09412  1.0000
  H   H1571     1.0  0.50356  0.98012  0.18486  1.0000
  H   H1572     1.0  0.66136  0.96897  0.39896  1.0000
  C   C980      1.0  0.54499  0.00186  0.11328  1.0000
  H   H1573     1.0  0.56353  0.99611  0.03592  1.0000
  C   C981      1.0  0.57222  0.99627  0.04649  1.0000
  C   C982      1.0  0.53089  0.00249  0.58202  1.0000
  H   H1574     1.0  0.49852  0.00233  0.24840  1.0000
  C   C983      1.0  0.49575  0.90004  0.10306  1.0000
  H   H1575     1.0  0.58052  0.00125  0.01985  1.0000
  S   S386      1.0  0.49548  0.84886  0.60995  1.0000
  C   C984      1.0  0.49754  0.99680  0.22589  1.0000
  C   C985      1.0  0.49612  0.96184  0.30413  1.0000
  H   H1576     1.0  0.49559  0.88668  0.71518  1.0000
  N   N100      1.0  0.77404  0.15548  0.45787  1.0000
  H   H1577     1.0  0.75950  0.16568  0.45924  1.0000
  S   S387      1.0  0.75894  0.16209  0.58821  1.0000
  S   S388      1.0  0.69282  0.12787  0.98899  1.0000
  C   C986      1.0  0.76168  0.15693  0.45180  1.0000
  C   C987      1.0  0.72217  0.14594  0.11678  1.0000
  H   H1578     1.0  0.75356  0.15115  0.03542  1.0000
  C   C988      1.0  0.71062  0.09933  0.11881  1.0000
  H   H1579     1.0  0.71767  0.09815  0.18718  1.0000
  S   S389      1.0  0.68395  0.07127  0.08343  1.0000
  H   H1580     1.0  0.68596  0.08657  0.14280  1.0000
  C   C989      1.0  0.71541  0.16380  0.64237  1.0000
  Fe  Fe191     1.0  0.67443  0.11355  0.02376  1.0000
  H   H1581     1.0  0.74490  0.16148  0.52780  1.0000
  H   H1582     1.0  0.70531  0.10279  0.09731  1.0000
  H   H1583     1.0  0.73358  0.13790  0.03061  1.0000
  C   C990      1.0  0.77651  0.14371  0.44793  1.0000
  H   H1584     1.0  0.71382  0.08230  0.18055  1.0000
  H   H1585     1.0  0.73340  0.15769  0.14458  1.0000
  S   S390      1.0  0.70742  0.13083  0.08328  1.0000
  H   H1586     1.0  0.71343  0.14447  0.13975  1.0000
  H   H1587     1.0  0.70501  0.15953  0.65371  1.0000
  H   H1588     1.0  0.68542  0.07953  0.19429  1.0000
  H   H1589     1.0  0.71893  0.16537  0.66852  1.0000
  H   H1590     1.0  0.69546  0.07569  0.15359  1.0000
  H   H1591     1.0  0.66662  0.06860  0.97951  1.0000
  C   C991      1.0  0.74479  0.14971  0.05829  1.0000
  C   C992      1.0  0.73349  0.15349  0.11956  1.0000
  C   C993      1.0  0.69184  0.08360  0.16307  1.0000
  C   C994      1.0  0.70970  0.09014  0.18843  1.0000
  H   H1592     1.0  0.70150  0.07249  0.95977  1.0000
  H   H1593     1.0  0.76603  0.14642  0.52183  1.0000
  H   H1594     1.0  0.69128  0.10830  0.15177  1.0000
  C   C995      1.0  0.69701  0.10488  0.17204  1.0000
  N   N101      1.0  0.70229  0.09448  0.16063  1.0000
  C   C996      1.0  0.74490  0.15547  0.09018  1.0000
  H   H1595     1.0  0.71859  0.10762  0.11562  1.0000
  C   C997      1.0  0.73346  0.14220  0.05543  1.0000
  H   H1596     1.0  0.70371  0.08642  0.22032  1.0000
  C   C998      1.0  0.72206  0.14027  0.08470  1.0000
  H   H1597     1.0  0.69078  0.10166  0.20360  1.0000
  S   S391      1.0  0.70627  0.10439  0.01409  1.0000
  C   C999      1.0  0.67076  0.05906  0.08553  1.0000
  S   S392      1.0  0.68114  0.10638  0.07739  1.0000
  H   H1598     1.0  0.77674  0.14411  0.41590  1.0000
  H   H1599     1.0  0.68487  0.06358  0.88543  1.0000
  Fe  Fe192     1.0  0.68670  0.09178  0.04672  1.0000
  C   C1000     1.0  0.66893  0.04645  0.10921  1.0000
  H   H1600     1.0  0.70465  0.11339  0.16945  1.0000
  H   H1601     1.0  0.66819  0.14196  0.05539  1.0000
  Fe  Fe193     1.0  0.70014  0.11972  0.04136  1.0000
  H   H1602     1.0  0.71467  0.09174  0.10873  1.0000
  H   H1603     1.0  0.78445  0.16804  0.39879  1.0000
  H   H1604     1.0  0.66581  0.06505  0.93279  1.0000
  H   H1605     1.0  0.69087  0.05032  0.96266  1.0000
  C   C1001     1.0  0.66385  0.05334  0.61505  1.0000
  S   S393      1.0  0.67840  0.09787  0.99558  1.0000
  Fe  Fe194     1.0  0.66470  0.10373  0.65648  1.0000
  C   C1002     1.0  0.77380  0.15457  0.50052  1.0000
  H   H1606     1.0  0.66228  0.14495  0.53688  1.0000
  H   H1607     1.0  0.69441  0.08538  0.94575  1.0000
  H   H1608     1.0  0.68763  0.07365  0.99422  1.0000
  C   C1003     1.0  0.69226  0.07498  0.96166  1.0000
  H   H1609     1.0  0.69247  0.07965  0.88340  1.0000
  C   C1004     1.0  0.66365  0.14977  0.04519  1.0000
  H   H1610     1.0  0.71975  0.15645  0.63161  1.0000
  H   H1611     1.0  0.77228  0.16346  0.50856  1.0000
  Fe  Fe195     1.0  0.67756  0.09510  0.72183  1.0000
  S   S394      1.0  0.69208  0.08929  0.67826  1.0000
  S   S395      1.0  0.67230  0.09224  0.79052  1.0000
  Fe  Fe196     1.0  0.69321  0.10814  0.63398  1.0000
  Fe  Fe197     1.0  0.67582  0.08062  0.65553  1.0000
  S   S396      1.0  0.67120  0.06002  0.64873  1.0000
  S   S397      1.0  0.67963  0.11427  0.67886  1.0000
  H   H1612     1.0  0.66344  0.07134  0.04542  1.0000
  Fe  Fe198     1.0  0.69736  0.11149  0.96449  1.0000
  S   S398      1.0  0.70611  0.11250  0.89872  1.0000
  H   H1613     1.0  0.69997  0.06695  0.89611  1.0000
  C   C1005     1.0  0.68186  0.05335  0.96504  1.0000
  H   H1614     1.0  0.72249  0.12435  0.64773  1.0000
  H   H1615     1.0  0.74210  0.13951  0.64760  1.0000
  C   C1006     1.0  0.72918  0.14466  0.55371  1.0000
  C   C1007     1.0  0.73847  0.14104  0.62139  1.0000
  C   C1008     1.0  0.69065  0.06937  0.90028  1.0000
  H   H1616     1.0  0.67709  0.05138  0.99791  1.0000
  H   H1617     1.0  0.67117  0.15892  0.03248  1.0000
  H   H1618     1.0  0.72568  0.14602  0.52721  1.0000
  C   C1009     1.0  0.68197  0.09901  0.81817  1.0000
  C   C1010     1.0  0.69519  0.10287  0.80382  1.0000
  C   C1011     1.0  0.70249  0.10722  0.82843  1.0000
  C   C1012     1.0  0.69666  0.10791  0.86731  1.0000
  C   C1013     1.0  0.68345  0.10447  0.88097  1.0000
  C   C1014     1.0  0.67617  0.09985  0.85686  1.0000
  H   H1619     1.0  0.69981  0.10225  0.77416  1.0000
  H   H1620     1.0  0.71272  0.10995  0.81740  1.0000
  H   H1621     1.0  0.67881  0.10527  0.91029  1.0000
  H   H1622     1.0  0.66599  0.09696  0.86828  1.0000
  H   H1623     1.0  0.76155  0.15778  0.41980  1.0000
  H   H1624     1.0  0.76904  0.13502  0.46757  1.0000
  H   H1625     1.0  0.75381  0.14858  0.47144  1.0000
  C   C1015     1.0  0.74012  0.15340  0.55387  1.0000
  H   H1626     1.0  0.67334  0.08091  0.93306  1.0000
  C   C1016     1.0  0.72271  0.13416  0.58754  1.0000
  H   H1627     1.0  0.67567  0.04706  0.95259  1.0000
  N   N102      1.0  0.68418  0.06705  0.94358  1.0000
  C   C1017     1.0  0.72733  0.13245  0.62161  1.0000
  C   C1018     1.0  0.67195  0.07054  0.94737  1.0000
  H   H1628     1.0  0.66449  0.03410  0.64280  1.0000
  S   S399      1.0  0.67814  0.09891  0.60835  1.0000
  S   S400      1.0  0.70925  0.12332  0.58462  1.0000
  C   C1019     1.0  0.74490  0.15156  0.58756  1.0000
  H   H1629     1.0  0.67539  0.04434  0.12698  1.0000
  H   H1630     1.0  0.78577  0.14232  0.45217  1.0000
  H   H1631     1.0  0.78287  0.15323  0.50661  1.0000
  C   C1020     1.0  0.66232  0.06164  0.06288  1.0000
  H   H1632     1.0  0.79365  0.16596  0.43453  1.0000
  C   C1021     1.0  0.78415  0.16676  0.43128  1.0000
  H   H1633     1.0  0.71824  0.16611  0.56336  1.0000
  S   S401      1.0  0.75941  0.16532  0.09099  1.0000
  H   H1634     1.0  0.66604  0.16271  0.10109  1.0000
  H   H1635     1.0  0.66340  0.14573  0.12330  1.0000
  H   H1636     1.0  0.70347  0.16930  0.58478  1.0000
  H   H1637     1.0  0.80582  0.30885  0.58883  1.0000
  S   S402      1.0  0.75173  0.18212  0.18302  1.0000
  Fe  Fe199     1.0  0.75688  0.20300  0.15039  1.0000
  C   C1022     1.0  0.67284  0.23827  0.07765  1.0000
  H   H1638     1.0  0.75738  0.23531  0.01259  1.0000
  Fe  Fe200     1.0  0.76945  0.18722  0.20284  1.0000
  C   C1023     1.0  0.68020  0.23091  0.06046  1.0000
  C   C1024     1.0  0.74082  0.22325  0.11191  1.0000
  Fe  Fe201     1.0  0.78477  0.20408  0.11818  1.0000
  Fe  Fe202     1.0  0.78092  0.19990  0.46135  1.0000
  H   H1639     1.0  0.73022  0.21404  0.30337  1.0000
  H   H1640     1.0  0.76687  0.22612  0.57530  1.0000
  H   H1641     1.0  0.72101  0.23903  0.07282  1.0000
  C   C1025     1.0  0.74441  0.20058  0.26707  1.0000
  C   C1026     1.0  0.77200  0.30987  0.46867  1.0000
  H   H1642     1.0  0.76536  0.22393  0.28486  1.0000
  H   H1643     1.0  0.75908  0.22267  0.07766  1.0000
  C   C1027     1.0  0.78956  0.19993  0.31941  1.0000
  H   H1644     1.0  0.76551  0.18558  0.40501  1.0000
  H   H1645     1.0  0.78944  0.19780  0.25983  1.0000
  C   C1028     1.0  0.76557  0.18303  0.34585  1.0000
  C   C1029     1.0  0.77223  0.18646  0.30464  1.0000
  C   C1030     1.0  0.72934  0.23551  0.07380  1.0000
  S   S403      1.0  0.77374  0.20836  0.17308  1.0000
  N   N103      1.0  0.74889  0.21327  0.27351  1.0000
  H   H1646     1.0  0.73504  0.19948  0.26052  1.0000
  S   S404      1.0  0.76797  0.20029  0.09332  1.0000
  H   H1647     1.0  0.74287  0.22415  0.31445  1.0000
  H   H1648     1.0  0.75322  0.23322  0.24069  1.0000
  S   S405      1.0  0.76531  0.17946  0.27137  1.0000
  C   C1031     1.0  0.78418  0.19512  0.29141  1.0000
  H   H1649     1.0  0.75106  0.19915  0.24094  1.0000
  C   C1032     1.0  0.73909  0.23803  0.03837  1.0000
  C   C1033     1.0  0.78294  0.19642  0.36067  1.0000
  H   H1650     1.0  0.76839  0.21261  0.25661  1.0000
  C   C1034     1.0  0.75067  0.22600  0.07663  1.0000
  Fe  Fe203     1.0  0.76410  0.17961  0.12743  1.0000
  S   S406      1.0  0.78176  0.18303  0.14918  1.0000
  H   H1651     1.0  0.73869  0.20709  0.33656  1.0000
  C   C1035     1.0  0.73976  0.21471  0.30854  1.0000
  C   C1036     1.0  0.66518  0.25415  0.97438  1.0000
  H   H1652     1.0  0.75675  0.22271  0.20994  1.0000
  H   H1653     1.0  0.70209  0.18167  0.63608  1.0000
  H   H1654     1.0  0.72538  0.18222  0.12068  1.0000
  H   H1655     1.0  0.80172  0.29180  0.09305  1.0000
  S   S407      1.0  0.73796  0.24676  0.99183  1.0000
  H   H1656     1.0  0.72252  0.22596  0.13772  1.0000
  H   H1657     1.0  0.67511  0.22276  0.62749  1.0000
  C   C1037     1.0  0.77079  0.18816  0.37358  1.0000
  C   C1038     1.0  0.80225  0.31139  0.12672  1.0000
  C   C1039     1.0  0.74672  0.19731  0.02937  1.0000
  S   S408      1.0  0.79048  0.20196  0.39524  1.0000
  C   C1040     1.0  0.72569  0.19996  0.05362  1.0000
  C   C1041     1.0  0.67504  0.21777  0.06626  1.0000
  H   H1658     1.0  0.74363  0.19260  0.29382  1.0000
  H   H1659     1.0  0.74068  0.22290  0.22971  1.0000
  C   C1042     1.0  0.73019  0.22809  0.11051  1.0000
  H   H1660     1.0  0.76439  0.29844  0.41456  1.0000
  H   H1661     1.0  0.67033  0.25034  0.99615  1.0000
  H   H1662     1.0  0.68079  0.21214  0.05291  1.0000
  C   C1043     1.0  0.76141  0.21429  0.28153  1.0000
  N   N104      1.0  0.73392  0.19100  0.05691  1.0000
  C   C1044     1.0  0.76023  0.30644  0.42053  1.0000
  H   H1663     1.0  0.81991  0.21899  0.53721  1.0000
  S   S409      1.0  0.74132  0.21323  0.15744  1.0000
  H   H1664     1.0  0.75104  0.20617  0.03664  1.0000
  C   C1045     1.0  0.74974  0.23325  0.03983  1.0000
  S   S410      1.0  0.77945  0.21774  0.48111  1.0000
  H   H1665     1.0  0.76085  0.20707  0.30982  1.0000
  H   H1666     1.0  0.68989  0.23530  0.04292  1.0000
  C   C1046     1.0  0.74993  0.22349  0.23699  1.0000
  H   H1667     1.0  0.71938  0.32662  0.03244  1.0000
  H   H1668     1.0  0.80239  0.33163  0.06808  1.0000
  C   C1047     1.0  0.72691  0.22591  0.55855  1.0000
  H   H1669     1.0  0.71596  0.19548  0.07400  1.0000
  H   H1670     1.0  0.74525  0.20805  0.59657  1.0000
  H   H1671     1.0  0.70492  0.32970  0.02386  1.0000
  C   C1048     1.0  0.82151  0.22000  0.10382  1.0000
  S   S411      1.0  0.66609  0.24606  0.62000  1.0000
  S   S412      1.0  0.68502  0.23626  0.70289  1.0000
  H   H1672     1.0  0.71429  0.23448  0.59318  1.0000
  C   C1049     1.0  0.74604  0.24722  0.86632  1.0000
  N   N105      1.0  0.76906  0.24584  0.57591  1.0000
  H   H1673     1.0  0.78269  0.17575  0.43871  1.0000
  Fe  Fe204     1.0  0.78530  0.20887  0.53590  1.0000
  Fe  Fe205     1.0  0.68963  0.25389  0.72445  1.0000
  H   H1674     1.0  0.72587  0.32734  0.13737  1.0000
  H   H1675     1.0  0.72464  0.22955  0.53060  1.0000
  S   S413      1.0  0.78820  0.19151  0.51388  1.0000
  Fe  Fe206     1.0  0.76745  0.18218  0.54532  1.0000
  H   H1676     1.0  0.78726  0.29678  0.09549  1.0000
  H   H1677     1.0  0.74674  0.24342  0.89763  1.0000
  C   C1050     1.0  0.72550  0.25059  0.89210  1.0000
  H   H1678     1.0  0.78872  0.24781  0.57343  1.0000
  H   H1679     1.0  0.77993  0.25316  0.61304  1.0000
  C   C1051     1.0  0.72106  0.22873  0.59393  1.0000
  H   H1680     1.0  0.75252  0.31871  0.50054  1.0000
  S   S414      1.0  0.76517  0.19859  0.57148  1.0000
  C   C1052     1.0  0.80922  0.31336  0.61109  1.0000
  H   H1681     1.0  0.75409  0.27240  0.85923  1.0000
  H   H1682     1.0  0.80679  0.32075  0.13077  1.0000
  H   H1683     1.0  0.82237  0.32503  0.06494  1.0000
  H   H1684     1.0  0.77822  0.31909  0.44748  1.0000
  C   C1053     1.0  0.66275  0.23252  0.60122  1.0000
  C   C1054     1.0  0.66497  0.21138  0.59632  1.0000
  C   C1055     1.0  0.73853  0.21376  0.59550  1.0000
  C   C1056     1.0  0.73578  0.21855  0.55917  1.0000
  H   H1685     1.0  0.74125  0.18091  0.10228  1.0000
  H   H1686     1.0  0.72572  0.24674  0.92387  1.0000
  H   H1687     1.0  0.75586  0.25153  0.84639  1.0000
  H   H1688     1.0  0.77799  0.23628  0.61741  1.0000
  Fe  Fe207     1.0  0.70564  0.24225  0.66880  1.0000
  C   C1057     1.0  0.74434  0.26753  0.87881  1.0000
  C   C1058     1.0  0.73254  0.21638  0.63093  1.0000
  H   H1689     1.0  0.81909  0.31627  0.02944  1.0000
  C   C1059     1.0  0.72400  0.22408  0.63004  1.0000
  H   H1690     1.0  0.73477  0.21270  0.65892  1.0000
  H   H1691     1.0  0.79854  0.29973  0.04739  1.0000
  H   H1692     1.0  0.72724  0.18187  0.01482  1.0000
  H   H1693     1.0  0.71950  0.25755  0.89215  1.0000
  H   H1694     1.0  0.67977  0.25185  0.87372  1.0000
  C   C1060     1.0  0.77936  0.24583  0.59590  1.0000
  S   S415      1.0  0.71773  0.22821  0.67405  1.0000
  C   C1061     1.0  0.76865  0.23580  0.55419  1.0000
  H   H1695     1.0  0.72064  0.24249  0.88250  1.0000
  H   H1696     1.0  0.74497  0.26419  0.91035  1.0000
  Fe  Fe208     1.0  0.75971  0.20654  0.51574  1.0000
  H   H1697     1.0  0.75485  0.23378  0.62949  1.0000
  H   H1698     1.0  0.76107  0.23551  0.53833  1.0000
  H   H1699     1.0  0.75668  0.25066  0.62331  1.0000
  C   C1062     1.0  0.77142  0.25850  0.54680  1.0000
  C   C1063     1.0  0.75683  0.24319  0.60668  1.0000
  H   H1700     1.0  0.73880  0.27491  0.87831  1.0000
  S   S416      1.0  0.74337  0.21557  0.51425  1.0000
  N   N106      1.0  0.73839  0.25675  0.86509  1.0000
  S   S417      1.0  0.68193  0.25339  0.79005  1.0000
  Fe  Fe209     1.0  0.68255  0.24933  0.64802  1.0000
  H   H1701     1.0  0.77183  0.26632  0.56217  1.0000
  S   S418      1.0  0.76057  0.18945  0.49167  1.0000
  S   S419      1.0  0.70296  0.25411  0.61206  1.0000
  H   H1702     1.0  0.74180  0.23891  0.85633  1.0000
  H   H1703     1.0  0.74881  0.24285  0.59271  1.0000
  H   H1704     1.0  0.78057  0.26075  0.52312  1.0000
  H   H1705     1.0  0.75039  0.29531  0.52305  1.0000
  Fe  Fe210     1.0  0.69891  0.26338  0.02947  1.0000
  S   S420      1.0  0.76090  0.33429  0.19910  1.0000
  H   H1706     1.0  0.73519  0.19006  0.57061  1.0000
  H   H1707     1.0  0.66682  0.24953  0.94928  1.0000
  H   H1708     1.0  0.75570  0.32510  0.10379  1.0000
  Fe  Fe211     1.0  0.77266  0.32437  0.16253  1.0000
  S   S421      1.0  0.76544  0.30555  0.14869  1.0000
  S   S422      1.0  0.78811  0.32733  0.19369  1.0000
  C   C1064     1.0  0.75328  0.31774  0.46936  1.0000
  S   S423      1.0  0.67886  0.25495  0.06895  1.0000
  C   C1065     1.0  0.69859  0.28982  0.09321  1.0000
  C   C1066     1.0  0.72853  0.17940  0.04575  1.0000
  C   C1067     1.0  0.75096  0.29348  0.10734  1.0000
  H   H1709     1.0  0.75350  0.28492  0.12108  1.0000
  Fe  Fe212     1.0  0.72492  0.25976  0.99887  1.0000
  H   H1710     1.0  0.78766  0.31972  0.08077  1.0000
  H   H1711     1.0  0.72495  0.20314  0.02219  1.0000
  H   H1712     1.0  0.68732  0.30802  0.15194  1.0000
  H   H1713     1.0  0.69848  0.27803  0.16839  1.0000
  C   C1068     1.0  0.74308  0.29285  0.08125  1.0000
  H   H1714     1.0  0.68266  0.27867  0.16718  1.0000
  C   C1069     1.0  0.73971  0.30385  0.06338  1.0000
  C   C1070     1.0  0.75553  0.30510  0.11578  1.0000
  H   H1715     1.0  0.71389  0.31077  0.10001  1.0000
  H   H1716     1.0  0.75548  0.28683  0.48707  1.0000
  C   C1071     1.0  0.66832  0.22231  0.60991  1.0000
  H   H1717     1.0  0.69090  0.28825  0.19325  1.0000
  H   H1718     1.0  0.73964  0.28384  0.07504  1.0000
  C   C1072     1.0  0.74425  0.31545  0.07190  1.0000
  H   H1719     1.0  0.74167  0.32402  0.05846  1.0000
  H   H1720     1.0  0.75081  0.30488  0.41425  1.0000
  C   C1073     1.0  0.69207  0.28457  0.16602  1.0000
  C   C1074     1.0  0.79797  0.32202  0.06544  1.0000
  S   S424      1.0  0.72950  0.30344  0.03144  1.0000
  N   N107      1.0  0.69720  0.29519  0.12837  1.0000
  H   H1721     1.0  0.72944  0.20875  0.06222  1.0000
  C   C1075     1.0  0.79759  0.29954  0.07962  1.0000
  N   N108      1.0  0.75922  0.30727  0.46241  1.0000
  C   C1076     1.0  0.82044  0.29729  0.62885  1.0000
  H   H1722     1.0  0.77678  0.30216  0.46382  1.0000
  H   H1723     1.0  0.70553  0.28382  0.09313  1.0000
  Fe  Fe213     1.0  0.72209  0.28528  0.01432  1.0000
  H   H1724     1.0  0.76642  0.31539  0.39788  1.0000
  H   H1725     1.0  0.70900  0.30696  0.15403  1.0000
  C   C1077     1.0  0.70969  0.30270  0.12806  1.0000
  H   H1726     1.0  0.71659  0.29667  0.12951  1.0000
  S   S425      1.0  0.70444  0.28407  0.99306  1.0000
  C   C1078     1.0  0.68846  0.30365  0.12615  1.0000
  H   H1727     1.0  0.69209  0.31175  0.09800  1.0000
  H   H1728     1.0  0.81899  0.31400  0.67402  1.0000
  C   C1079     1.0  0.75217  0.31609  0.09778  1.0000
  H   H1729     1.0  0.80184  0.30938  0.64060  1.0000
  S   S426      1.0  0.71581  0.26504  0.05448  1.0000
  C   C1080     1.0  0.71257  0.18532  0.62504  1.0000
  S   S427      1.0  0.79438  0.22241  0.56904  1.0000
  C   C1081     1.0  0.75133  0.29499  0.49123  1.0000
  H   H1730     1.0  0.68946  0.28367  0.09315  1.0000
  H   H1731     1.0  0.75887  0.32714  0.44798  1.0000
  H   H1732     1.0  0.66925  0.20347  0.60354  1.0000
  C   C1082     1.0  0.70931  0.30812  0.73447  1.0000
  H   H1733     1.0  0.81350  0.29300  0.65912  1.0000
  H   H1734     1.0  0.76380  0.25876  0.53123  1.0000
  H   H1735     1.0  0.70210  0.29756  0.06423  1.0000
  S   S428      1.0  0.73261  0.28013  0.96082  1.0000
  Fe  Fe214     1.0  0.78530  0.32617  0.55413  1.0000
  C   C1083     1.0  0.69946  0.29410  0.70014  1.0000
  Fe  Fe215     1.0  0.71448  0.27710  0.94285  1.0000
  S   S429      1.0  0.71653  0.28415  0.87585  1.0000
  H   H1736     1.0  0.74651  0.20009  0.99728  1.0000
  S   S430      1.0  0.71042  0.25883  0.69459  1.0000
  C   C1084     1.0  0.75285  0.28796  0.60481  1.0000
  H   H1737     1.0  0.69193  0.28872  0.72860  1.0000
  H   H1738     1.0  0.71628  0.18215  0.55016  1.0000
  Fe  Fe216     1.0  0.70592  0.27019  0.64107  1.0000
  S   S431      1.0  0.68529  0.26653  0.67270  1.0000
  S   S432      1.0  0.71694  0.29057  0.60783  1.0000
  H   H1739     1.0  0.73291  0.25384  0.81226  1.0000
  C   C1085     1.0  0.73332  0.29429  0.60266  1.0000
  H   H1740     1.0  0.73853  0.19588  0.10857  1.0000
  C   C1086     1.0  0.70687  0.27532  0.85278  1.0000
  C   C1087     1.0  0.69592  0.26578  0.87564  1.0000
  C   C1088     1.0  0.70296  0.27100  0.79106  1.0000
  C   C1089     1.0  0.71035  0.27792  0.81048  1.0000
  H   H1741     1.0  0.74157  0.29278  0.48767  1.0000
  H   H1742     1.0  0.77159  0.31055  0.49998  1.0000
  H   H1743     1.0  0.70577  0.27296  0.75855  1.0000
  H   H1744     1.0  0.71885  0.28525  0.79270  1.0000
  C   C1090     1.0  0.73965  0.28467  0.61095  1.0000
  H   H1745     1.0  0.74718  0.26625  0.80194  1.0000
  S   S433      1.0  0.80553  0.33291  0.51691  1.0000
  H   H1746     1.0  0.75844  0.32047  0.57388  1.0000
  H   H1747     1.0  0.70718  0.28904  0.69755  1.0000
  S   S434      1.0  0.70748  0.25636  0.97738  1.0000
  C   C1091     1.0  0.71449  0.31416  0.66155  1.0000
  H   H1748     1.0  0.81731  0.29212  0.60759  1.0000
  H   H1749     1.0  0.71726  0.30341  0.73398  1.0000
  C   C1092     1.0  0.69387  0.31411  0.70082  1.0000
  H   H1750     1.0  0.68604  0.30955  0.72911  1.0000
  H   H1751     1.0  0.71111  0.31373  0.63433  1.0000
  H   H1752     1.0  0.73535  0.31469  0.58273  1.0000
  H   H1753     1.0  0.68975  0.31385  0.67492  1.0000
  S   S435      1.0  0.77634  0.30488  0.58029  1.0000
  H   H1754     1.0  0.82316  0.24789  0.62669  1.0000
  C   C1093     1.0  0.75972  0.30088  0.59087  1.0000
  C   C1094     1.0  0.69184  0.26167  0.81374  1.0000
  H   H1755     1.0  0.69729  0.32438  0.69956  1.0000
  H   H1756     1.0  0.71472  0.19451  0.60097  1.0000
  N   N109      1.0  0.70428  0.30762  0.69928  1.0000
  H   H1757     1.0  0.72260  0.30965  0.65978  1.0000
  H   H1758     1.0  0.79900  0.32287  0.03279  1.0000
  C   C1095     1.0  0.68834  0.25909  0.85609  1.0000
  H   H1759     1.0  0.70189  0.30318  0.76352  1.0000
  C   C1096     1.0  0.75331  0.31048  0.58363  1.0000
  H   H1760     1.0  0.73631  0.18337  0.62078  1.0000
  H   H1761     1.0  0.73733  0.17423  0.58471  1.0000
  H   H1762     1.0  0.71820  0.32446  0.65939  1.0000
  H   H1763     1.0  0.73486  0.17277  0.04597  1.0000
  H   H1764     1.0  0.67891  0.29832  0.12644  1.0000
  H   H1765     1.0  0.75774  0.28050  0.61068  1.0000
  C   C1097     1.0  0.74019  0.30719  0.58900  1.0000
  H   H1766     1.0  0.74355  0.31602  0.46547  1.0000
  H   H1767     1.0  0.69541  0.29346  0.67430  1.0000
  H   H1768     1.0  0.71295  0.31822  0.73478  1.0000
  H   H1769     1.0  0.75323  0.19084  0.03181  1.0000
  N   N110      1.0  0.80384  0.31212  0.08346  1.0000
  H   H1770     1.0  0.80975  0.32378  0.60103  1.0000
  H   H1771     1.0  0.73440  0.27469  0.62146  1.0000
  H   H1772     1.0  0.69318  0.26371  0.90825  1.0000
  C   C1098     1.0  0.73763  0.26165  0.82336  1.0000
  H   H1773     1.0  0.73205  0.26901  0.82171  1.0000
  C   C1099     1.0  0.82055  0.22529  0.55663  1.0000
  C   C1100     1.0  0.82584  0.31770  0.64348  1.0000
  H   H1774     1.0  0.77781  0.23739  0.53118  1.0000
  H   H1775     1.0  0.81635  0.21067  0.12413  1.0000
  H   H1776     1.0  0.80656  0.30403  0.14137  1.0000
  S   S436      1.0  0.80119  0.21917  0.07058  1.0000
  C   C1101     1.0  0.81598  0.22639  0.07630  1.0000
  H   H1777     1.0  0.81861  0.24347  0.02854  1.0000
  H   H1778     1.0  0.79206  0.30886  0.14367  1.0000
  H   H1779     1.0  0.79897  0.20631  0.30909  1.0000
  C   C1102     1.0  0.82253  0.24168  0.60700  1.0000
  C   C1103     1.0  0.80962  0.22836  0.57571  1.0000
  H   H1780     1.0  0.82690  0.32824  0.63346  1.0000
  C   C1104     1.0  0.81749  0.31556  0.06224  1.0000
  H   H1781     1.0  0.80239  0.23891  0.61643  1.0000
  C   C1105     1.0  0.81073  0.23657  0.60097  1.0000
  C   C1106     1.0  0.82285  0.23846  0.04984  1.0000
  H   H1782     1.0  0.71227  0.31919  0.99960  1.0000
  H   H1783     1.0  0.82226  0.30832  0.07506  1.0000
  H   H1784     1.0  0.71601  0.18769  0.65053  1.0000
  C   C1107     1.0  0.73478  0.18732  0.09896  1.0000
  H   H1785     1.0  0.82819  0.31189  0.55161  1.0000
  H   H1786     1.0  0.71918  0.17394  0.06723  1.0000
  C   C1108     1.0  0.71416  0.32819  0.00905  1.0000
  N   N111      1.0  0.82163  0.31122  0.61444  1.0000
  H   H1787     1.0  0.75628  0.17641  0.35629  1.0000
  H   H1788     1.0  0.66967  0.26461  0.96149  1.0000
  C   C1109     1.0  0.73245  0.18113  0.59590  1.0000
  C   C1110     1.0  0.71393  0.17325  0.57548  1.0000
  N   N112      1.0  0.71858  0.17587  0.60974  1.0000
  H   H1789     1.0  0.71227  0.33268  0.93239  1.0000
  H   H1790     1.0  0.73209  0.32794  0.94505  1.0000
  H   H1791     1.0  0.66565  0.28956  0.58731  1.0000
  H   H1792     1.0  0.66486  0.27415  0.61941  1.0000
  C   C1111     1.0  0.66248  0.21187  0.08916  1.0000
  Fe  Fe217     1.0  0.67286  0.33550  0.71228  1.0000
  H   H1793     1.0  0.73930  0.33514  0.97795  1.0000
  Fe  Fe218     1.0  0.79887  0.34655  0.47408  1.0000
  H   H1794     1.0  0.68137  0.39073  0.79800  1.0000
  C   C1112     1.0  0.71827  0.37947  0.19743  1.0000
  H   H1795     1.0  0.74313  0.37428  0.07814  1.0000
  S   S437      1.0  0.68346  0.38572  0.12258  1.0000
  C   C1113     1.0  0.79981  0.38178  0.39981  1.0000
  C   C1114     1.0  0.78264  0.39139  0.39058  1.0000
  Fe  Fe219     1.0  0.69526  0.34914  0.07929  1.0000
  H   H1796     1.0  0.79913  0.37683  0.37570  1.0000
  Fe  Fe220     1.0  0.77115  0.35203  0.14873  1.0000
  H   H1797     1.0  0.66619  0.41258  0.73955  1.0000
  H   H1798     1.0  0.68033  0.38971  0.69338  1.0000
  H   H1799     1.0  0.74635  0.33808  0.14459  1.0000
  S   S438      1.0  0.78693  0.35779  0.17670  1.0000
  H   H1800     1.0  0.82595  0.37435  0.58933  1.0000
  H   H1801     1.0  0.78165  0.38705  0.36536  1.0000
  S   S439      1.0  0.66444  0.35181  0.72052  1.0000
  H   H1802     1.0  0.72257  0.35963  0.16979  1.0000
  H   H1803     1.0  0.66351  0.37782  0.75466  1.0000
  N   N113      1.0  0.71015  0.37205  0.17823  1.0000
  H   H1804     1.0  0.72850  0.38047  0.18338  1.0000
  H   H1805     1.0  0.70737  0.37332  0.11934  1.0000
  H   H1806     1.0  0.70678  0.35337  0.16757  1.0000
  C   C1115     1.0  0.71322  0.37876  0.13477  1.0000
  H   H1807     1.0  0.69034  0.36541  0.18351  1.0000
  C   C1116     1.0  0.78862  0.38940  0.45303  1.0000
  Fe  Fe221     1.0  0.80755  0.34788  0.55128  1.0000
  H   H1808     1.0  0.72257  0.36350  0.07048  1.0000
  S   S440      1.0  0.81714  0.34831  0.10478  1.0000
  Fe  Fe222     1.0  0.68416  0.37219  0.08314  1.0000
  H   H1809     1.0  0.80688  0.39120  0.38568  1.0000
  Fe  Fe223     1.0  0.69017  0.36430  0.00472  1.0000
  H   H1810     1.0  0.78178  0.36413  0.45921  1.0000
  C   C1117     1.0  0.72400  0.35092  0.98845  1.0000
  H   H1811     1.0  0.71128  0.38844  0.13003  1.0000
  C   C1118     1.0  0.67127  0.39374  0.12393  1.0000
  S   S441      1.0  0.70203  0.36988  0.04491  1.0000
  S   S442      1.0  0.67282  0.36884  0.03943  1.0000
  H   H1812     1.0  0.71622  0.37470  0.23029  1.0000
  S   S443      1.0  0.68440  0.34332  0.03715  1.0000
  C   C1119     1.0  0.69669  0.37090  0.19760  1.0000
  Fe  Fe224     1.0  0.66813  0.34819  0.07517  1.0000
  H   H1813     1.0  0.69461  0.38050  0.19412  1.0000
  H   H1814     1.0  0.69397  0.36593  0.23048  1.0000
  C   C1120     1.0  0.72765  0.35793  0.08688  1.0000
  H   H1815     1.0  0.76891  0.37122  0.45473  1.0000
  C   C1121     1.0  0.71241  0.35910  0.18298  1.0000
  C   C1122     1.0  0.73932  0.36403  0.09117  1.0000
  S   S444      1.0  0.80604  0.35078  0.40589  1.0000
  H   H1816     1.0  0.68866  0.40589  0.68745  1.0000
  H   H1817     1.0  0.77935  0.39055  0.46936  1.0000
  H   H1818     1.0  0.77682  0.36579  0.41368  1.0000
  C   C1123     1.0  0.77829  0.37055  0.43760  1.0000
  C   C1124     1.0  0.74606  0.35695  0.11256  1.0000
  C   C1125     1.0  0.78116  0.34158  0.32294  1.0000
  H   H1819     1.0  0.71684  0.38931  0.19423  1.0000
  S   S445      1.0  0.76014  0.36495  0.12049  1.0000
  S   S446      1.0  0.67836  0.35179  0.12089  1.0000
  H   H1820     1.0  0.79543  0.39902  0.44129  1.0000
  C   C1126     1.0  0.72262  0.34471  0.10409  1.0000
  C   C1127     1.0  0.67328  0.40900  0.75371  1.0000
  H   H1821     1.0  0.72335  0.38004  0.11914  1.0000
  N   N114      1.0  0.78735  0.38329  0.42025  1.0000
  H   H1822     1.0  0.80375  0.37587  0.42137  1.0000
  H   H1823     1.0  0.78922  0.40112  0.37704  1.0000
  H   H1824     1.0  0.77320  0.39260  0.40498  1.0000
  H   H1825     1.0  0.81209  0.35067  0.32229  1.0000
  C   C1128     1.0  0.79629  0.34723  0.37445  1.0000
  H   H1826     1.0  0.74101  0.33699  0.67662  1.0000
  S   S447      1.0  0.78746  0.34008  0.59154  1.0000
  C   C1129     1.0  0.66339  0.38466  0.62971  1.0000
  Fe  Fe225     1.0  0.67805  0.35570  0.75707  1.0000
  H   H1827     1.0  0.66992  0.40780  0.78683  1.0000
  H   H1828     1.0  0.66905  0.39376  0.18626  1.0000
  H   H1829     1.0  0.68233  0.41661  0.74162  1.0000
  S   S448      1.0  0.70055  0.36955  0.93857  1.0000
  Fe  Fe226     1.0  0.77727  0.33918  0.22528  1.0000
  C   C1130     1.0  0.80188  0.34800  0.33387  1.0000
  S   S449      1.0  0.76818  0.36545  0.54566  1.0000
  S   S450      1.0  0.78205  0.34186  0.11084  1.0000
  H   H1830     1.0  0.76039  0.34433  0.61897  1.0000
  H   H1831     1.0  0.72948  0.34981  0.01125  1.0000
  C   C1131     1.0  0.73190  0.35106  0.65128  1.0000
  H   H1832     1.0  0.82277  0.36776  0.14789  1.0000
  S   S451      1.0  0.69379  0.36885  0.70421  1.0000
  C   C1132     1.0  0.75280  0.34907  0.61847  1.0000
  H   H1833     1.0  0.67127  0.39536  0.06194  1.0000
  S   S452      1.0  0.68787  0.34688  0.65546  1.0000
  C   C1133     1.0  0.67931  0.39879  0.70104  1.0000
  C   C1134     1.0  0.77558  0.34121  0.36318  1.0000
  H   H1834     1.0  0.79200  0.38346  0.47624  1.0000
  H   H1835     1.0  0.74510  0.37377  0.56079  1.0000
  C   C1135     1.0  0.74179  0.34492  0.65113  1.0000
  H   H1836     1.0  0.68575  0.38315  0.75931  1.0000
  N   N115      1.0  0.67494  0.39680  0.74528  1.0000
  C   C1136     1.0  0.68440  0.39241  0.76455  1.0000
  Fe  Fe227     1.0  0.68046  0.36372  0.66732  1.0000
  C   C1137     1.0  0.67771  0.36149  0.85005  1.0000
  C   C1138     1.0  0.69093  0.36433  0.83790  1.0000
  C   C1139     1.0  0.69786  0.36677  0.86536  1.0000
  C   C1140     1.0  0.69160  0.36615  0.90518  1.0000
  C   C1141     1.0  0.67837  0.36306  0.91751  1.0000
  C   C1142     1.0  0.67146  0.36088  0.88984  1.0000
  H   H1837     1.0  0.69583  0.36482  0.80727  1.0000
  H   H1838     1.0  0.70810  0.36916  0.85570  1.0000
  H   H1839     1.0  0.67348  0.36255  0.94816  1.0000
  Fe  Fe228     1.0  0.79698  0.34566  0.14343  1.0000
  H   H1840     1.0  0.69380  0.39948  0.75262  1.0000
  H   H1841     1.0  0.72547  0.36613  0.61807  1.0000
  S   S453      1.0  0.80243  0.36210  0.50508  1.0000
  S   S454      1.0  0.66875  0.35929  0.81577  1.0000
  C   C1143     1.0  0.66702  0.39741  0.08973  1.0000
  C   C1144     1.0  0.74120  0.34368  0.12854  1.0000
  H   H1842     1.0  0.70986  0.35362  0.21538  1.0000
  C   C1145     1.0  0.73302  0.36133  0.61823  1.0000
  C   C1146     1.0  0.74416  0.36564  0.58583  1.0000
  Fe  Fe229     1.0  0.69978  0.35089  0.69708  1.0000
  S   S455      1.0  0.71852  0.34569  0.69396  1.0000
  S   S456      1.0  0.67659  0.37822  0.61822  1.0000
  C   C1147     1.0  0.66581  0.39658  0.15969  1.0000
  H   H1843     1.0  0.72943  0.35953  0.96298  1.0000
  Fe  Fe230     1.0  0.78219  0.35315  0.54249  1.0000
  C   C1148     1.0  0.75411  0.35957  0.58596  1.0000
  C   C1149     1.0  0.79435  0.34511  0.30822  1.0000
  H   H1844     1.0  0.76538  0.33875  0.37438  1.0000
  H   H1845     1.0  0.73951  0.34490  0.92942  1.0000
  C   C1150     1.0  0.78310  0.34390  0.38894  1.0000
  S   S457      1.0  0.77849  0.33853  0.50840  1.0000
  S   S458      1.0  0.68503  0.33825  0.75355  1.0000
  C   C1151     1.0  0.71422  0.34121  0.94416  1.0000
  H   H1846     1.0  0.67249  0.40235  0.68548  1.0000
  H   H1847     1.0  0.77873  0.34349  0.41987  1.0000
  H   H1848     1.0  0.70494  0.34301  0.95739  1.0000
  H   H1849     1.0  0.79876  0.34549  0.27724  1.0000
  H   H1850     1.0  0.71937  0.34968  0.91788  1.0000
  S   S459      1.0  0.82545  0.34905  0.57345  1.0000
  H   H1851     1.0  0.66633  0.39526  0.56781  1.0000
  N   N116      1.0  0.72151  0.33927  0.97430  1.0000
  H   H1852     1.0  0.71501  0.35301  0.00283  1.0000
  C   C1152     1.0  0.66272  0.38699  0.76194  1.0000
  C   C1153     1.0  0.72955  0.33758  0.12433  1.0000
  S   S460      1.0  0.70756  0.33688  0.10207  1.0000
  C   C1154     1.0  0.73365  0.33674  0.95575  1.0000
  S   S461      1.0  0.77117  0.33698  0.29327  1.0000
  H   H1853     1.0  0.66205  0.95906  0.46890  1.0000
  S   S462      1.0  0.85610  0.25982  0.77383  1.0000
  C   C1155     1.0  0.89594  0.29182  0.12296  1.0000
  H   H1854     1.0  0.88316  0.30336  0.07737  1.0000
  C   C1156     1.0  0.84091  0.23740  0.07689  1.0000
  Fe  Fe231     1.0  0.97509  0.32917  0.17958  1.0000
  S   S463      1.0  0.85692  0.24329  0.07546  1.0000
  H   H1855     1.0  0.89894  0.29196  0.09054  1.0000
  H   H1856     1.0  0.84040  0.25327  0.02976  1.0000
  C   C1157     1.0  0.97747  0.32869  0.34788  1.0000
  H   H1857     1.0  0.90125  0.24679  0.50238  1.0000
  H   H1858     1.0  0.82966  0.29535  0.63159  1.0000
  H   H1859     1.0  0.85728  0.32985  0.64149  1.0000
  H   H1860     1.0  0.86725  0.24679  0.51758  1.0000
  C   C1158     1.0  0.88878  0.33447  0.63381  1.0000
  C   C1159     1.0  0.88668  0.30227  0.17121  1.0000
  H   H1861     1.0  0.87040  0.22638  0.94072  1.0000
  C   C1160     1.0  0.85140  0.23331  0.91342  1.0000
  C   C1161     1.0  0.89211  0.24751  0.49566  1.0000
  H   H1862     1.0  0.84053  0.31508  0.57591  1.0000
  H   H1863     1.0  0.88863  0.28264  0.13884  1.0000
  H   H1864     1.0  0.86693  0.33025  0.03841  1.0000
  H   H1865     1.0  0.88296  0.30582  0.80867  1.0000
  C   C1162     1.0  0.83235  0.23034  0.56286  1.0000
  H   H1866     1.0  0.87540  0.26054  0.47507  1.0000
  H   H1867     1.0  0.89408  0.25138  0.46234  1.0000
  C   C1163     1.0  0.83522  0.24400  0.05032  1.0000
  H   H1868     1.0  0.87667  0.31192  0.11098  1.0000
  H   H1869     1.0  0.88588  0.23760  0.50459  1.0000
  C   C1164     1.0  0.83396  0.22546  0.10392  1.0000
  N   N117      1.0  0.85228  0.23066  0.95558  1.0000
  C   C1165     1.0  0.90117  0.31495  0.10710  1.0000
  S   S464      1.0  0.84864  0.24457  0.59483  1.0000
  C   C1166     1.0  0.87401  0.25646  0.50797  1.0000
  H   H1870     1.0  0.87714  0.24048  0.57230  1.0000
  H   H1871     1.0  0.97478  0.32401  0.38000  1.0000
  S   S465      1.0  0.97779  0.31915  0.12978  1.0000
  C   C1167     1.0  0.83345  0.23857  0.58804  1.0000
  H   H1872     1.0  0.91605  0.30692  0.01797  1.0000
  C   C1168     1.0  0.92460  0.29278  0.04573  1.0000
  C   C1169     1.0  0.89321  0.32084  0.00074  1.0000
  C   C1170     1.0  0.92301  0.30519  0.03406  1.0000
  S   S466      1.0  0.94832  0.32668  0.07582  1.0000
  Fe  Fe232     1.0  0.89717  0.27844  0.01533  1.0000
  Fe  Fe233     1.0  0.96475  0.33003  0.10459  1.0000
  H   H1873     1.0  0.93523  0.28123  0.07500  1.0000
  C   C1171     1.0  0.93046  0.31541  0.04323  1.0000
  C   C1172     1.0  0.93386  0.29078  0.06604  1.0000
  S   S467      1.0  0.97145  0.31949  0.24650  1.0000
  C   C1173     1.0  0.87683  0.33031  0.02916  1.0000
  Fe  Fe234     1.0  0.86987  0.26194  0.03239  1.0000
  H   H1874     1.0  0.91225  0.33021  0.99780  1.0000
  H   H1875     1.0  0.90947  0.31520  0.11970  1.0000
  S   S468      1.0  0.91540  0.27954  0.03508  1.0000
  C   C1174     1.0  0.88030  0.30325  0.10973  1.0000
  C   C1175     1.0  0.97295  0.32230  0.32130  1.0000
  H   H1876     1.0  0.96673  0.31273  0.33329  1.0000
  C   C1176     1.0  0.94130  0.30101  0.07530  1.0000
  S   S469      1.0  0.86877  0.30804  0.00935  1.0000
  N   N118      1.0  0.88613  0.25576  0.51746  1.0000
  C   C1177     1.0  0.97654  0.32817  0.27940  1.0000
  H   H1877     1.0  0.92911  0.32497  0.03415  1.0000
  H   H1878     1.0  0.88291  0.31064  0.17571  1.0000
  H   H1879     1.0  0.89610  0.31363  0.98760  1.0000
  H   H1880     1.0  0.90386  0.26867  0.51211  1.0000
  H   H1881     1.0  0.89263  0.24972  0.57003  1.0000
  C   C1178     1.0  0.93960  0.31340  0.06407  1.0000
  C   C1179     1.0  0.90237  0.33026  0.00658  1.0000
  Fe  Fe235     1.0  0.87603  0.29084  0.00140  1.0000
  S   S470      1.0  0.87847  0.27782  0.05622  1.0000
  H   H1882     1.0  0.94829  0.29930  0.09125  1.0000
  C   C1180     1.0  0.88040  0.32073  0.01234  1.0000
  H   H1883     1.0  0.86085  0.23805  0.89132  1.0000
  H   H1884     1.0  0.86711  0.24782  0.94296  1.0000
  H   H1885     1.0  0.89456  0.30212  0.18569  1.0000
  C   C1181     1.0  0.86665  0.32822  0.63510  1.0000
  C   C1182     1.0  0.92663  0.29252  0.55081  1.0000
  S   S471      1.0  0.88885  0.26128  0.99597  1.0000
  H   H1886     1.0  0.85108  0.26206  0.85485  1.0000
  C   C1183     1.0  0.94396  0.28633  0.88940  1.0000
  Fe  Fe236     1.0  0.85597  0.25886  0.62836  1.0000
  S   S472      1.0  0.84666  0.26796  0.67428  1.0000
  H   H1887     1.0  0.92350  0.28480  0.86015  1.0000
  Fe  Fe237     1.0  0.88272  0.27382  0.62445  1.0000
  S   S473      1.0  0.87567  0.28396  0.67011  1.0000
  H   H1888     1.0  0.83828  0.22030  0.12464  1.0000
  Fe  Fe238     1.0  0.86201  0.26508  0.70501  1.0000
  Fe  Fe239     1.0  0.86092  0.28629  0.63704  1.0000
  S   S474      1.0  0.85564  0.30510  0.62534  1.0000
  S   S475      1.0  0.87027  0.25439  0.66237  1.0000
  N   N119      1.0  0.93136  0.28765  0.90905  1.0000
  S   S476      1.0  0.90290  0.27619  0.58792  1.0000
  C   C1184     1.0  0.93282  0.29719  0.93241  1.0000
  H   H1889     1.0  0.89047  0.27525  0.52117  1.0000
  S   S477      1.0  0.89524  0.29240  0.96177  1.0000
  H   H1890     1.0  0.95005  0.29562  0.86836  1.0000
  Fe  Fe240     1.0  0.88545  0.27536  0.94537  1.0000
  S   S478      1.0  0.89261  0.27474  0.88054  1.0000
  S   S479      1.0  0.86589  0.27495  0.98042  1.0000
  H   H1891     1.0  0.88777  0.29588  0.73376  1.0000
  H   H1892     1.0  0.89780  0.32371  0.10933  1.0000
  C   C1185     1.0  0.92365  0.27512  0.93666  1.0000
  C   C1186     1.0  0.88371  0.25025  0.56144  1.0000
  C   C1187     1.0  0.86641  0.26454  0.80232  1.0000
  C   C1188     1.0  0.87957  0.26801  0.78626  1.0000
  C   C1189     1.0  0.88748  0.27114  0.81056  1.0000
  C   C1190     1.0  0.88232  0.27100  0.85087  1.0000
  C   C1191     1.0  0.86916  0.26788  0.86655  1.0000
  C   C1192     1.0  0.86125  0.26455  0.84248  1.0000
  H   H1893     1.0  0.88365  0.26799  0.75542  1.0000
  H   H1894     1.0  0.89765  0.27358  0.79811  1.0000
  H   H1895     1.0  0.86508  0.26807  0.89714  1.0000
  H   H1896     1.0  0.92348  0.29837  0.94789  1.0000
  H   H1897     1.0  0.85686  0.30428  0.75821  1.0000
  N   N120      1.0  0.87675  0.30831  0.75451  1.0000
  H   H1898     1.0  0.89688  0.31039  0.73923  1.0000
  H   H1899     1.0  0.94548  0.30504  0.52234  1.0000
  C   C1193     1.0  0.86858  0.31717  0.62394  1.0000
  C   C1194     1.0  0.88076  0.31524  0.61528  1.0000
  C   C1195     1.0  0.89083  0.32386  0.62032  1.0000
  H   H1900     1.0  0.88242  0.30700  0.60513  1.0000
  H   H1901     1.0  0.90015  0.32207  0.61486  1.0000
  S   S480      1.0  0.94674  0.32629  0.56050  1.0000
  H   H1902     1.0  0.86445  0.29216  0.74598  1.0000
  H   H1903     1.0  0.93859  0.30679  0.91271  1.0000
  H   H1904     1.0  0.92140  0.31724  0.61131  1.0000
  H   H1905     1.0  0.84752  0.22433  0.90595  1.0000
  C   C1196     1.0  0.88840  0.30628  0.73025  1.0000
  H   H1906     1.0  0.86944  0.32412  0.76720  1.0000
  H   H1907     1.0  0.87917  0.32725  0.71677  1.0000
  H   H1908     1.0  0.86711  0.30707  0.70847  1.0000
  H   H1909     1.0  0.93055  0.30130  0.85617  1.0000
  H   H1910     1.0  0.87227  0.29462  0.12525  1.0000
  H   H1911     1.0  0.93746  0.29418  0.95658  1.0000
  H   H1912     1.0  0.91415  0.27586  0.95211  1.0000
  C   C1197     1.0  0.92287  0.31043  0.59403  1.0000
  H   H1913     1.0  0.92809  0.27160  0.96087  1.0000
  H   H1914     1.0  0.86922  0.26256  0.52421  1.0000
  H   H1915     1.0  0.87923  0.25626  0.57857  1.0000
  H   H1916     1.0  0.94899  0.28308  0.91220  1.0000
  H   H1917     1.0  0.92218  0.26767  0.92020  1.0000
  C   C1198     1.0  0.93463  0.31254  0.56581  1.0000
  H   H1918     1.0  0.94319  0.27918  0.87156  1.0000
  C   C1199     1.0  0.91488  0.29042  0.57911  1.0000
  C   C1200     1.0  0.91301  0.29950  0.60040  1.0000
  C   C1201     1.0  0.92498  0.29191  0.87782  1.0000
  H   H1919     1.0  0.90466  0.31578  0.07444  1.0000
  C   C1202     1.0  0.87481  0.30198  0.79774  1.0000
  H   H1920     1.0  0.86612  0.30333  0.81701  1.0000
  C   C1203     1.0  0.89467  0.26881  0.50494  1.0000
  H   H1921     1.0  0.83228  0.32699  0.56261  1.0000
  H   H1922     1.0  0.91545  0.29304  0.89155  1.0000
  H   H1923     1.0  0.89016  0.31096  0.69747  1.0000
  C   C1204     1.0  0.93645  0.30358  0.54392  1.0000
  H   H1924     1.0  0.92820  0.28552  0.53434  1.0000
  S   S481      1.0  0.86897  0.27774  0.58849  1.0000
  H   H1925     1.0  0.90405  0.29801  0.62231  1.0000
  H   H1926     1.0  0.89673  0.27332  0.47196  1.0000
  H   H1927     1.0  0.88635  0.32683  0.75737  1.0000
  C   C1205     1.0  0.86581  0.30271  0.74126  1.0000
  H   H1928     1.0  0.83520  0.31635  0.64659  1.0000
  C   C1206     1.0  0.87797  0.32221  0.74884  1.0000
  Fe  Fe241     1.0  0.96596  0.33587  0.51442  1.0000
  H   H1929     1.0  0.86154  0.21990  0.99301  1.0000
  N   N121      1.0  0.89102  0.30307  0.12778  1.0000
  H   H1930     1.0  0.87900  0.29341  0.18777  1.0000
  S   S482      1.0  0.98456  0.33131  0.48895  1.0000
  H   H1931     1.0  0.90435  0.29157  0.13482  1.0000
  H   H1932     1.0  0.83526  0.21524  0.97857  1.0000
  C   C1207     1.0  0.85753  0.24285  0.96386  1.0000
  H   H1933     1.0  0.84510  0.23980  0.90809  1.0000
  H   H1934     1.0  0.87373  0.29149  0.80306  1.0000
  C   C1208     1.0  0.83105  0.31649  0.57439  1.0000
  H   H1935     1.0  0.85132  0.24954  0.96056  1.0000
  H   H1936     1.0  0.84068  0.22779  0.54813  1.0000
  H   H1937     1.0  0.83290  0.23075  0.98028  1.0000
  H   H1938     1.0  0.98795  0.30853  0.19812  1.0000
  H   H1939     1.0  0.85849  0.24118  0.99522  1.0000
  H   H1940     1.0  0.85702  0.21269  0.95558  1.0000
  C   C1209     1.0  0.86069  0.22201  0.96143  1.0000
  H   H1941     1.0  0.99068  0.30019  0.24355  1.0000
  C   C1210     1.0  0.83953  0.22450  0.98372  1.0000
  H   H1942     1.0  0.83982  0.22243  0.01588  1.0000
  C   C1211     1.0  0.99492  0.30407  0.21023  1.0000
  H   H1943     1.0  0.93616  0.34885  0.04300  1.0000
  S   S483      1.0  0.97608  0.37485  0.11215  1.0000
  C   C1212     1.0  0.95788  0.41282  0.08055  1.0000
  H   H1944     1.0  0.84324  0.38136  0.14806  1.0000
  H   H1945     1.0  0.86308  0.41073  0.93635  1.0000
  Fe  Fe242     1.0  0.98473  0.43641  0.17388  1.0000
  C   C1213     1.0  0.98935  0.34678  0.29074  1.0000
  H   H1946     1.0  0.95120  0.38390  0.01764  1.0000
  H   H1947     1.0  0.84101  0.38812  0.61444  1.0000
  H   H1948     1.0  0.97194  0.45826  0.47778  1.0000
  S   S484      1.0  0.98898  0.42147  0.21999  1.0000
  C   C1214     1.0  0.84322  0.37452  0.13029  1.0000
  C   C1215     1.0  0.95916  0.43585  0.60227  1.0000
  C   C1216     1.0  0.96287  0.42459  0.60019  1.0000
  S   S485      1.0  0.97302  0.38341  0.47552  1.0000
  H   H1949     1.0  0.95069  0.38023  0.55116  1.0000
  C   C1217     1.0  0.95742  0.42414  0.13292  1.0000
  C   C1218     1.0  0.95706  0.39821  0.20999  1.0000
  H   H1950     1.0  0.96842  0.38018  0.19322  1.0000
  Fe  Fe243     1.0  0.90582  0.36914  0.03464  1.0000
  H   H1951     1.0  0.94989  0.36226  0.11606  1.0000
  H   H1952     1.0  0.95479  0.36685  0.21246  1.0000
  S   S486      1.0  0.99213  0.43217  0.31299  1.0000
  C   C1219     1.0  0.89879  0.33956  0.02457  1.0000
  Fe  Fe244     1.0  0.99115  0.44991  0.56831  1.0000
  H   H1953     1.0  0.95027  0.35462  0.53115  1.0000
  H   H1954     1.0  0.84618  0.39765  0.99871  1.0000
  C   C1220     1.0  0.96420  0.41946  0.10349  1.0000
  H   H1955     1.0  0.98274  0.37395  0.34439  1.0000
  H   H1956     1.0  0.92780  0.41414  0.12067  1.0000
  H   H1957     1.0  0.93209  0.38689  0.23476  1.0000
  C   C1221     1.0  0.94620  0.43553  0.61044  1.0000
  H   H1958     1.0  0.93296  0.37284  0.10176  1.0000
  S   S487      1.0  0.90217  0.40330  0.02896  1.0000
  C   C1222     1.0  0.96883  0.43796  0.44719  1.0000
  H   H1959     1.0  0.93832  0.39324  0.68685  1.0000
  H   H1960     1.0  0.98212  0.41337  0.55452  1.0000
  S   S488      1.0  0.86922  0.38359  0.10753  1.0000
  H   H1961     1.0  0.96041  0.37519  0.24612  1.0000
  H   H1962     1.0  0.96351  0.37632  0.02788  1.0000
  C   C1223     1.0  0.94182  0.35858  0.53244  1.0000
  H   H1963     1.0  0.86420  0.37282  0.99444  1.0000
  Fe  Fe245     1.0  0.97782  0.35460  0.12076  1.0000
  C   C1224     1.0  0.96520  0.44922  0.49829  1.0000
  H   H1964     1.0  0.93975  0.37984  0.27045  1.0000
  S   S489      1.0  0.90367  0.37671  0.08903  1.0000
  C   C1225     1.0  0.94318  0.35835  0.02951  1.0000
  H   H1965     1.0  0.95762  0.38991  0.14349  1.0000
  S   S490      1.0  0.90091  0.34366  0.64737  1.0000
  C   C1226     1.0  0.86549  0.40166  0.93255  1.0000
  C   C1227     1.0  0.93850  0.38047  0.23968  1.0000
  C   C1228     1.0  0.84303  0.35690  0.08450  1.0000
  S   S491      1.0  0.96666  0.34964  0.45595  1.0000
  C   C1229     1.0  0.93792  0.41556  0.11569  1.0000
  H   H1966     1.0  0.94386  0.37675  0.16554  1.0000
  H   H1967     1.0  0.92482  0.35834  0.09296  1.0000
  H   H1968     1.0  0.93354  0.37073  0.23949  1.0000
  H   H1969     1.0  0.84304  0.35005  0.06678  1.0000
  H   H1970     1.0  0.92293  0.36892  0.60133  1.0000
  H   H1971     1.0  0.93432  0.35119  0.52812  1.0000
  S   S492      1.0  0.93723  0.40173  0.05781  1.0000
  H   H1972     1.0  0.93085  0.35142  0.63469  1.0000
  C   C1230     1.0  0.94859  0.38625  0.16802  1.0000
  C   C1231     1.0  0.95031  0.42945  0.50443  1.0000
  H   H1973     1.0  0.97575  0.44670  0.42547  1.0000
  C   C1232     1.0  0.94469  0.41080  0.08641  1.0000
  C   C1233     1.0  0.98813  0.38495  0.12332  1.0000
  H   H1974     1.0  0.96605  0.40256  0.18531  1.0000
  H   H1975     1.0  0.95228  0.35645  0.01514  1.0000
  S   S493      1.0  0.97568  0.35129  0.53768  1.0000
  C   C1234     1.0  0.85480  0.37344  0.10754  1.0000
  H   H1976     1.0  0.93885  0.42575  0.16123  1.0000
  S   S494      1.0  0.98094  0.34693  0.06693  1.0000
  H   H1977     1.0  0.95782  0.35538  0.07948  1.0000
  H   H1978     1.0  0.87517  0.34516  0.65007  1.0000
  H   H1979     1.0  0.91842  0.35971  0.56851  1.0000
  C   C1235     1.0  0.95893  0.37649  0.21544  1.0000
  H   H1980     1.0  0.86774  0.40621  0.00336  1.0000
  C   C1236     1.0  0.83160  0.36681  0.13026  1.0000
  H   H1981     1.0  0.95816  0.45190  0.52051  1.0000
  H   H1982     1.0  0.94291  0.43160  0.52695  1.0000
  H   H1983     1.0  0.97091  0.39104  0.34151  1.0000
  H   H1984     1.0  0.97428  0.43227  0.46352  1.0000
  Fe  Fe246     1.0  0.97752  0.36446  0.47786  1.0000
  H   H1985     1.0  0.92897  0.37337  0.05529  1.0000
  N   N122      1.0  0.94455  0.36523  0.06049  1.0000
  S   S495      1.0  0.99297  0.34887  0.36360  1.0000
  H   H1986     1.0  0.97434  0.42105  0.09817  1.0000
  C   C1237     1.0  0.85313  0.37521  0.61991  1.0000
  H   H1987     1.0  0.92722  0.42413  0.61944  1.0000
  C   C1238     1.0  0.98708  0.39725  0.12446  1.0000
  C   C1239     1.0  0.93228  0.36750  0.07866  1.0000
  N   N123      1.0  0.98977  0.39313  0.34822  1.0000
  H   H1988     1.0  0.94165  0.34790  0.10717  1.0000
  H   H1989     1.0  0.95530  0.38310  0.06427  1.0000
  C   C1240     1.0  0.83400  0.37124  0.59627  1.0000
  C   C1241     1.0  0.94424  0.42215  0.13872  1.0000
  N   N124      1.0  0.95078  0.38535  0.20829  1.0000
  Fe  Fe247     1.0  0.91769  0.39474  0.04699  1.0000
  H   H1990     1.0  0.97066  0.44395  0.51571  1.0000
  S   S496      1.0  0.91031  0.35015  0.03627  1.0000
  C   C1242     1.0  0.94798  0.37119  0.57611  1.0000
  Fe  Fe248     1.0  0.88844  0.38442  0.06688  1.0000
  H   H1991     1.0  0.94711  0.44302  0.43568  1.0000
  H   H1992     1.0  0.93982  0.36388  0.00535  1.0000
  H   H1993     1.0  0.95544  0.42362  0.52171  1.0000
  H   H1994     1.0  0.96329  0.40927  0.05795  1.0000
  H   H1995     1.0  0.94512  0.37373  0.60507  1.0000
  C   C1243     1.0  0.99031  0.38449  0.51947  1.0000
  C   C1244     1.0  0.95408  0.37767  0.04165  1.0000
  H   H1996     1.0  0.94446  0.45140  0.47386  1.0000
  C   C1245     1.0  0.97716  0.39582  0.35729  1.0000
  N   N125      1.0  0.95905  0.44133  0.47573  1.0000
  H   H1997     1.0  0.95824  0.45771  0.43115  1.0000
  H   H1998     1.0  0.95940  0.39790  0.23918  1.0000
  H   H1999     1.0  0.94252  0.39291  0.16162  1.0000
  C   C1246     1.0  0.93442  0.34968  0.60482  1.0000
  C   C1247     1.0  0.98468  0.40560  0.54377  1.0000
  C   C1248     1.0  0.94863  0.35736  0.09234  1.0000
  H   H2000     1.0  0.95092  0.40498  0.20655  1.0000
  C   C1249     1.0  0.85463  0.36451  0.08486  1.0000
  H   H2001     1.0  0.86344  0.36336  0.06792  1.0000
  S   S497      1.0  0.96471  0.43191  0.16474  1.0000
  H   H2002     1.0  0.96459  0.43214  0.42913  1.0000
  S   S498      1.0  0.88954  0.37518  0.01606  1.0000
  C   C1250     1.0  0.83145  0.35798  0.10723  1.0000
  S   S499      1.0  0.92035  0.38656  0.99308  1.0000
  C   C1251     1.0  0.85500  0.36343  0.61469  1.0000
  H   H2003     1.0  0.92849  0.37577  0.54761  1.0000
  S   S500      1.0  0.93054  0.39929  0.60759  1.0000
  H   H2004     1.0  0.88316  0.34677  0.04991  1.0000
  H   H2005     1.0  0.87573  0.40416  0.91590  1.0000
  H   H2006     1.0  0.97233  0.39236  0.39034  1.0000
  C   C1252     1.0  0.95189  0.44869  0.45309  1.0000
  H   H2007     1.0  0.88061  0.40017  0.98152  1.0000
  H   H2008     1.0  0.97074  0.40438  0.51030  1.0000
  C   C1253     1.0  0.87029  0.39747  0.99687  1.0000
  C   C1254     1.0  0.98103  0.38988  0.50672  1.0000
  H   H2009     1.0  0.94537  0.42327  0.48863  1.0000
  Fe  Fe249     1.0  0.89249  0.37532  0.72799  1.0000
  S   S501      1.0  0.90958  0.37203  0.68901  1.0000
  S   S502      1.0  0.89193  0.36995  0.79470  1.0000
  Fe  Fe250     1.0  0.88098  0.38086  0.65682  1.0000
  Fe  Fe251     1.0  0.89635  0.36129  0.66201  1.0000
  H   H2010     1.0  0.87653  0.38232  0.95003  1.0000
  Fe  Fe252     1.0  0.90993  0.38959  0.64240  1.0000
  S   S503      1.0  0.87901  0.36279  0.70481  1.0000
  S   S504      1.0  0.89345  0.39377  0.68305  1.0000
  C   C1255     1.0  0.84647  0.35565  0.60035  1.0000
  H   H2011     1.0  0.91219  0.39238  0.73801  1.0000
  H   H2012     1.0  0.86872  0.39042  0.02644  1.0000
  H   H2013     1.0  0.93684  0.39422  0.79310  1.0000
  C   C1256     1.0  0.92640  0.36673  0.57210  1.0000
  H   H2014     1.0  0.86098  0.37615  0.94603  1.0000
  Fe  Fe253     1.0  0.90386  0.39343  0.97896  1.0000
  S   S505      1.0  0.90253  0.40304  0.91634  1.0000
  S   S506      1.0  0.86371  0.38543  0.63772  1.0000
  H   H2015     1.0  0.92430  0.40228  0.79760  1.0000
  H   H2016     1.0  0.95698  0.40482  0.60022  1.0000
  H   H2017     1.0  0.94354  0.41594  0.68990  1.0000
  H   H2018     1.0  0.94986  0.41148  0.73190  1.0000
  H   H2019     1.0  0.94512  0.38898  0.72802  1.0000
  N   N126      1.0  0.93133  0.39991  0.73836  1.0000
  H   H2020     1.0  0.92159  0.40465  0.69307  1.0000
  C   C1257     1.0  0.93711  0.42415  0.61473  1.0000
  C   C1258     1.0  0.99428  0.40053  0.55528  1.0000
  S   S507      1.0  0.97068  0.45052  0.59154  1.0000
  H   H2021     1.0  0.86003  0.39795  0.91286  1.0000
  H   H2022     1.0  0.86309  0.36036  0.62142  1.0000
  H   H2023     1.0  0.97274  0.42464  0.59526  1.0000
  C   C1259     1.0  0.84257  0.37904  0.61057  1.0000
  H   H2024     1.0  0.94442  0.36728  0.50640  1.0000
  C   C1260     1.0  0.94098  0.41308  0.61036  1.0000
  S   S508      1.0  0.99171  0.34596  0.14723  1.0000
  C   C1261     1.0  0.89460  0.37946  0.82793  1.0000
  C   C1262     1.0  0.89626  0.37353  0.86533  1.0000
  C   C1263     1.0  0.89876  0.38066  0.89248  1.0000
  C   C1264     1.0  0.89956  0.39382  0.88259  1.0000
  C   C1265     1.0  0.89780  0.39977  0.84533  1.0000
  C   C1266     1.0  0.89531  0.39262  0.81807  1.0000
  H   H2025     1.0  0.89568  0.36334  0.87330  1.0000
  H   H2026     1.0  0.90009  0.37595  0.92104  1.0000
  H   H2027     1.0  0.89830  0.40993  0.83761  1.0000
  H   H2028     1.0  0.89379  0.39724  0.78975  1.0000
  H   H2029     1.0  0.95666  0.36761  0.57559  1.0000
  H   H2030     1.0  0.84815  0.34664  0.59616  1.0000
  Fe  Fe254     1.0  0.98566  0.34621  0.43145  1.0000
  H   H2031     1.0  0.84318  0.38471  0.97588  1.0000
  C   C1267     1.0  0.94099  0.41232  0.72345  1.0000
  H   H2032     1.0  0.92922  0.38078  0.73168  1.0000
  H   H2033     1.0  0.98734  0.34527  0.23239  1.0000
  H   H2034     1.0  0.92116  0.38597  0.79509  1.0000
  H   H2035     1.0  0.93754  0.41981  0.73608  1.0000
  C   C1268     1.0  0.84916  0.38897  0.99337  1.0000
  C   C1269     1.0  0.95387  0.41332  0.60365  1.0000
  C   C1270     1.0  0.98586  0.34089  0.33257  1.0000
  S   S509      1.0  0.99183  0.45237  0.20079  1.0000
  C   C1271     1.0  0.93623  0.39031  0.72045  1.0000
  C   C1272     1.0  0.83590  0.35948  0.59104  1.0000
  N   N127      1.0  0.93766  0.36155  0.57138  1.0000
  H   H2036     1.0  0.91583  0.40883  0.73902  1.0000
  S   S510      1.0  0.89762  0.37846  0.61254  1.0000
  N   N128      1.0  0.86279  0.39211  0.97203  1.0000
  C   C1273     1.0  0.86626  0.38033  0.96536  1.0000
  H   H2037     1.0  0.84691  0.38191  0.02356  1.0000
  C   C1274     1.0  0.97812  0.40038  0.51920  1.0000
  H   H2038     1.0  0.94324  0.44421  0.61227  1.0000
  C   C1275     1.0  0.92830  0.39541  0.78295  1.0000
  C   C1276     1.0  0.91974  0.40154  0.72656  1.0000
  H   H2039     1.0  0.99324  0.39601  0.40357  1.0000
  H   H2040     1.0  0.97933  0.40065  0.11629  1.0000
  H   H2041     1.0  0.97788  0.40630  0.34768  1.0000
  C   C1277     1.0  0.98830  0.37913  0.36118  1.0000
  H   H2042     1.0  0.94276  0.34560  0.60556  1.0000
  H   H2043     1.0  0.98330  0.37506  0.39394  1.0000
  H   H2044     1.0  0.99267  0.37639  0.51003  1.0000
  H   H2045     1.0  0.98770  0.42665  0.39860  1.0000
  C   C1278     1.0  0.98458  0.34055  0.26438  1.0000
  Fe  Fe255     1.0  0.99426  0.34812  0.50809  1.0000
  H   H2046     1.0  0.92687  0.34211  0.60147  1.0000
  C   C1279     1.0  0.88602  0.33971  0.03546  1.0000
  S   S511      1.0  0.96096  0.33857  0.15720  1.0000
  H   H2047     1.0  0.99019  0.39364  0.28652  1.0000
  C   C1280     1.0  0.87678  0.33690  0.63998  1.0000
  S   S512      1.0  0.99459  0.43838  0.52400  1.0000
  Fe  Fe256     1.0  0.99362  0.33698  0.09598  1.0000
  H   H2048     1.0  0.99477  0.41448  0.13835  1.0000
