data_image0
_chemical_formula_structural       FeS2FeS2FeSFeS3NHSHCSH2SHFe2SH2SH5SH3C3FeHCHCFeC6H4C6H5NH2CH2SCH2NH2SH3CH2CHCH3SHCNHCHC3H2CH2CHFeHCH2NHCH2CH2CH2CH2CHC2SC2SH4FeSCFeHFeHSHCSH2SHFeS2HSC6H2C2SH2C3SCFeC2H2SH2SFeC3HCHFeC2HFeH2SHCNH2CHNH4CH4S2HSHFeS2FeSFeHS2C4HC2SH7C2H3C7H11CH2NFe2CHFeCHC3H3CH2FeS2HSH2CSH4CH5CHCH2SCH2NCFeSCHN2CH3C3SHCSC2H2C3H4CHCNH3CHSFeHCH3CHC2HCH4FeCH3C2HCHCSH3SH4CSH2C2H4FeCSHC2FeCFeC2FeHS3CSHCHCNHSHFeCH3S3HCHSH2FeSHCFeCH3SHC2SH6C3H3NH5CHC2FeS2HFe2S2FeHFeS3C3H3CNHNH2C3NHC6H4CHC2H2SCHNSH3CH4CHC2HS2H5C3H4CH2C2H3CSCH2CH9CH6NH2SH2C3H2CSHSH2C2HSCHSHCNHC2H4CH2SCHCH2SC2H3FeCH2SC2NH4FeS2FeS2FeSFeS3CSHC2HCSHC7H3C3HFeC2HCH3C4H2FeH2CNHCH4CHCH2CHSH4SC2H2CH2CNHCHCSH7FeH2CHC3H7CHSCH2CHCHCHS2HFeS2FeS2FeSFeNS2HC3HC2H4SHC3H5CH2NC7H4CH3SNC5H3CHCHCH3CH2FeH2CH4SH3NH4C2H2C2H3CHSCH3CHC2H3CSFeCHFeH3C2H2CH2NHCH2CNC2HCH6C2HSH2CHCH3SH3CHSHCHCHCH3C2H5SFeS2FeS2FeSFeS2CFeC3H3C6H3C3H3NC3H4FeH4SH2C2HCN2H3SH4CFeCH4NCHCSC4H5SH6SHCHCHC2H2CH6CHFeH2C2H5SC5FeS2FeSFeCH2CHC2HFeH2SCS2HCH2CNCH2C2HSHCSH2C4HCSHSHSNH2CFe2CSH2CH3CHNHSH2C2H6SCH2SC5H3FeHCH3CNSHCH2CSHC2FeSHFeSCFeS2C2S2FeSFeSHSH2C2SHC3HC4HC2H4C5H2FeH2C6H4FeSFeHNC4H12C2H2SFeCSHCHSHC2H4CFeSHNC3H4CH6CNCH5CSCHCH2FeCH2CSCH4CH2CH4FeH2FeNSFe2SHC2HS2HSC4HSCHC2SC3HCFeH4NC4HCH3C3H5SH2S2FeCHSC3HFeH9NCH6CNHCH4CHC2H2FeH4FeS2HFeS2HS2FeHFeHSH2FeC6FeH3C7H4C3H3SCSC2HSNHSHSCSHCH3NC4H12CHNHCFeH2CSHCSFeH2SH3CSHCH10CNC2HCH2FeSFeSFeS2Fe2S7HFeSHSCFeC7H4C6H2CH2C4H3CH2CH4CHFeCN2FeHCHSH4SHC2HFe2HSC2HCH2CHCH5CHNH4C2H3CH5CH2C2NH5C3HSCHFeSHSH2FeHCFeS3HC2S2CHCFeCH2SFeH9CH2CHCHC2HCH3Fe2NHC3HCHCH2CH2NC4H2SC2FeS2FeHSHSHCS2FeSFeS2CH2FeHFeCHCH6C3HSH2C6H3C3HSHC2SH3SFeCHSCHCHCNH3C3HSCNCH6NCHSHFeCHFeHCNCHCHCHSC3H10CH11CNCHCHSCSC3FeSHC3HSFeHCHSCH4CH2SH2C3HCH4N2CHFeCH5CFeH2SH4CHCH3CSH3CHCH4SHCHCH2CFeSHFeHFeHC2SHFeSHFeSHSHC6H3CHSHNH4CSFeHC2FeHCSHCH2SH2NC2HC2NSCH3FeS2FeS2FeS2Fe2S3C6H3C8H3CHC4HCH3SH2SHFeHCH3CH2CH3NHC3H2NH3CH2CHCHSCH4CH4NFeHCHNHSHCH6CH2CH2CSCH5C2HCH2CH2SHCH3CSC2HCHCH3SH2CHCHC2H2CH4SHSNCFeSFeS3H2C3HCHC4H4C6H4CHCSHCH2SNCHCH5CH2CHNHC2HCFeSC2SH2FeHNC4H13NFeH3C2H2CHCHCH2CSH2SH4CHCH4CHC2FeH3FeCH3CSFeS2FeS2FeSFeS3H2C6H2CHC3H2CH2C8H4C3H3CH3NCHCH3CNHCH2CH5CSCSH3SCHCHCH2SHNHNH7CH2CHSH2FeH8C2SH2SC4SH8SHCH2S2CHCHCSH2NH3CH4SH2CH2CFeHC2HCHCHFeS2FeSHS2H2CFeHSH3C2HSCSHC6H7CHNH3CSH3C2HNH4SH3NC4HC2H2CH2CFeCHCH2CSHCH3FeH2S2H5CH4C3Fe2CFeHSNHFeS4H6CFeHC2HC4H3SHCHCSH2CHC2NSH2SH2SH2C5H2FeCH5C2NH4CHCHC3NC2SH4C3SHCH5NHCHC6H3FeCHSH2C2HSH5CHSCHCH2SH2CS2FeSHCFeS2FeS2FeSHCSCH2SCHFeHC3H4FeC6H7CSH3CH2FeHCNC2SH2C2H8CHC2H2C2SHNH2CFeSHCHC3H8C2H3SHC2H2SHCFeHCH2NC2H5CNCHFeS2HSHFe2SHSFeSHFeS2FeSHSC3H3C3SC7H5CHFeHCSHCNHNS2C2H8FeH3CHC4H4C2HFeSHFeSHFeSFeSHSH2SH2FeSHFeS2FeS2Fe2S3HC2HCH2C6H5SH2C6H8CH3C7HC3HC2NH2NHC3H3SC2H4NCH3SH3SH2C2H2C3H3CHSH5SH3CNHC2H6CH
_chemical_formula_sum              "Fe192 S384 N96 H1536 C960"
_cell_length_a       61.2032
_cell_length_b       61.0351
_cell_length_c       60.663
_cell_angle_alpha    80.0592
_cell_angle_beta     80.0501
_cell_angle_gamma    80.1047

_space_group_name_H-M_alt    "P 1"
_space_group_IT_number       1

loop_
  _space_group_symop_operation_xyz
  'x, y, z'

loop_
  _atom_site_type_symbol
  _atom_site_label
  _atom_site_symmetry_multiplicity
  _atom_site_fract_x
  _atom_site_fract_y
  _atom_site_fract_z
  _atom_site_occupancy
  Fe  Fe1       1.0  0.08784  0.24951  0.21652  1.0000
  S   S1        1.0  0.06972  0.22027  0.21780  1.0000
  S   S2        1.0  0.09644  0.27394  0.18535  1.0000
  Fe  Fe2       1.0  0.09118  0.24037  0.26692  1.0000
  S   S3        1.0  0.07331  0.21019  0.27251  1.0000
  S   S4        1.0  0.10007  0.25404  0.29610  1.0000
  Fe  Fe3       1.0  0.09505  0.20221  0.24015  1.0000
  S   S5        1.0  0.11220  0.16727  0.23540  1.0000
  Fe  Fe4       1.0  0.04952  0.23093  0.24984  1.0000
  S   S6        1.0  0.01163  0.23762  0.25986  1.0000
  S   S7        1.0  0.11468  0.23082  0.23632  1.0000
  S   S8        1.0  0.06589  0.26185  0.24671  1.0000
  N   N1        1.0  0.12441  0.17177  0.31400  1.0000
  H   H1        1.0  0.18086  0.25199  0.03329  1.0000
  S   S9        1.0  0.21383  0.14090  0.24959  1.0000
  H   H2        1.0  0.17968  0.22044  0.29131  1.0000
  C   C1        1.0  0.13004  0.23648  0.03454  1.0000
  S   S10       1.0  0.18354  0.28277  0.07018  1.0000
  H   H3        1.0  0.20504  0.31927  0.31134  1.0000
  H   H4        1.0  0.13571  0.22253  0.02427  1.0000
  S   S11       1.0  0.21306  0.23316  0.06430  1.0000
  H   H5        1.0  0.15878  0.16049  0.30088  1.0000
  Fe  Fe5       1.0  0.21311  0.26870  0.04658  1.0000
  Fe  Fe6       1.0  0.18540  0.24792  0.08933  1.0000
  S   S12       1.0  0.15548  0.23022  0.10323  1.0000
  H   H6        1.0  0.12166  0.27951  0.04103  1.0000
  H   H7        1.0  0.10952  0.20564  0.30347  1.0000
  S   S13       1.0  0.21237  0.28204  0.00912  1.0000
  H   H8        1.0  0.11390  0.31498  0.26507  1.0000
  H   H9        1.0  0.16392  0.18992  0.13977  1.0000
  H   H10       1.0  0.18576  0.21730  0.14680  1.0000
  H   H11       1.0  0.01196  0.20252  0.23217  1.0000
  H   H12       1.0  0.21065  0.19691  0.14520  1.0000
  S   S14       1.0  0.20246  0.31993  0.10653  1.0000
  H   H13       1.0  0.03990  0.30160  0.18810  1.0000
  H   H14       1.0  0.12613  0.14729  0.29176  1.0000
  H   H15       1.0  0.16669  0.23255  0.05423  1.0000
  C   C2        1.0  0.12658  0.24707  0.30516  1.0000
  C   C3        1.0  0.14484  0.23528  0.29273  1.0000
  C   C4        1.0  0.16560  0.22970  0.30087  1.0000
  Fe  Fe7       1.0  0.23548  0.24187  0.08610  1.0000
  H   H16       1.0  0.00585  0.28746  0.16310  1.0000
  C   C5        1.0  0.14761  0.17606  0.30525  1.0000
  H   H17       1.0  0.14298  0.23047  0.27688  1.0000
  C   C6        1.0  0.16820  0.24035  0.03613  1.0000
  Fe  Fe8       1.0  0.23412  0.11666  0.22713  1.0000
  C   C7        1.0  0.14078  0.16067  0.23829  1.0000
  C   C8        1.0  0.15248  0.13976  0.23369  1.0000
  C   C9        1.0  0.17506  0.13373  0.23673  1.0000
  C   C10       1.0  0.18595  0.14852  0.24461  1.0000
  C   C11       1.0  0.17433  0.16951  0.24903  1.0000
  C   C12       1.0  0.15185  0.17565  0.24568  1.0000
  H   H18       1.0  0.14400  0.12806  0.22801  1.0000
  H   H19       1.0  0.18381  0.11736  0.23359  1.0000
  H   H20       1.0  0.18274  0.18105  0.25504  1.0000
  H   H21       1.0  0.14303  0.19177  0.24928  1.0000
  C   C13       1.0  0.11322  0.26131  0.16301  1.0000
  C   C14       1.0  0.12820  0.27347  0.14763  1.0000
  C   C15       1.0  0.14151  0.26381  0.12950  1.0000
  C   C16       1.0  0.13934  0.24220  0.12625  1.0000
  C   C17       1.0  0.12418  0.23008  0.14148  1.0000
  C   C18       1.0  0.11141  0.23947  0.16007  1.0000
  H   H22       1.0  0.12970  0.29035  0.14984  1.0000
  H   H23       1.0  0.15321  0.27328  0.11788  1.0000
  H   H24       1.0  0.12240  0.21339  0.13899  1.0000
  H   H25       1.0  0.09981  0.23002  0.17181  1.0000
  H   H26       1.0  0.14962  0.29366  0.31074  1.0000
  N   N2        1.0  0.14424  0.31399  0.27893  1.0000
  H   H27       1.0  0.01990  0.24922  0.18163  1.0000
  H   H28       1.0  0.21578  0.23396  0.00691  1.0000
  C   C19       1.0  0.15869  0.29789  0.29336  1.0000
  H   H29       1.0  0.02380  0.24510  0.21076  1.0000
  H   H30       1.0  0.24353  0.32148  0.30204  1.0000
  S   S15       1.0  0.20776  0.25398  0.11243  1.0000
  C   C20       1.0  0.13844  0.27052  0.04434  1.0000
  H   H31       1.0  0.11337  0.24497  0.03031  1.0000
  H   H32       1.0  0.15499  0.18278  0.31781  1.0000
  N   N3        1.0  0.14646  0.25242  0.03024  1.0000
  H   H33       1.0  0.22969  0.19321  0.09241  1.0000
  H   H34       1.0  0.16851  0.20130  0.19724  1.0000
  S   S16       1.0  0.23834  0.27636  0.06626  1.0000
  H   H35       1.0  0.00101  0.31093  0.17847  1.0000
  H   H36       1.0  0.09812  0.15888  0.30295  1.0000
  H   H37       1.0  0.15207  0.18190  0.19135  1.0000
  C   C21       1.0  0.16297  0.19484  0.18336  1.0000
  H   H38       1.0  0.13098  0.28791  0.26790  1.0000
  H   H39       1.0  0.17170  0.32895  0.25822  1.0000
  C   C22       1.0  0.11024  0.19302  0.31903  1.0000
  H   H40       1.0  0.04495  0.27843  0.17229  1.0000
  C   C23       1.0  0.16829  0.23628  0.32122  1.0000
  H   H41       1.0  0.14818  0.18865  0.28966  1.0000
  H   H42       1.0  0.09265  0.19048  0.32599  1.0000
  H   H43       1.0  0.12767  0.22879  0.05271  1.0000
  S   S17       1.0  0.22257  0.09498  0.20640  1.0000
  H   H44       1.0  0.21977  0.15571  0.10966  1.0000
  C   C24       1.0  0.19579  0.20343  0.15694  1.0000
  N   N4        1.0  0.18232  0.18548  0.16778  1.0000
  H   H45       1.0  0.21124  0.15996  0.16941  1.0000
  C   C25       1.0  0.23878  0.18320  0.10530  1.0000
  H   H46       1.0  0.16152  0.27460  0.00247  1.0000
  C   C26       1.0  0.17413  0.17646  0.15013  1.0000
  C   C27       1.0  0.19634  0.16721  0.18061  1.0000
  C   C28       1.0  0.00672  0.28669  0.21911  1.0000
  H   H47       1.0  0.00608  0.30511  0.21842  1.0000
  H   H48       1.0  0.16453  0.28185  0.28631  1.0000
  C   C29       1.0  0.24191  0.31003  0.12478  1.0000
  H   H49       1.0  0.20260  0.17326  0.19431  1.0000
  H   H50       1.0  0.16359  0.16312  0.15765  1.0000
  C   C30       1.0  0.12518  0.30340  0.27593  1.0000
  H   H51       1.0  0.18832  0.16892  0.13835  1.0000
  Fe  Fe9       1.0  0.20867  0.28778  0.09114  1.0000
  H   H52       1.0  0.18680  0.15319  0.18863  1.0000
  C   C31       1.0  0.23318  0.16194  0.11509  1.0000
  H   H53       1.0  0.20211  0.21087  0.16966  1.0000
  H   H54       1.0  0.01800  0.27823  0.23158  1.0000
  N   N5        1.0  0.01471  0.27957  0.19663  1.0000
  H   H55       1.0  0.15237  0.20905  0.17433  1.0000
  C   C32       1.0  0.15742  0.32048  0.25661  1.0000
  H   H56       1.0  0.17380  0.30487  0.29512  1.0000
  H   H57       1.0  0.13326  0.27132  0.00082  1.0000
  C   C33       1.0  0.14936  0.26230  0.00605  1.0000
  H   H58       1.0  0.04936  0.27381  0.20117  1.0000
  H   H59       1.0  0.11450  0.17526  0.28113  1.0000
  C   C34       1.0  0.03817  0.28359  0.18917  1.0000
  H   H60       1.0  0.15012  0.28324  0.04088  1.0000
  H   H61       1.0  0.13716  0.26373  0.06276  1.0000
  C   C35       1.0  0.11542  0.16284  0.29680  1.0000
  H   H62       1.0  0.11484  0.29837  0.29247  1.0000
  H   H63       1.0  0.17499  0.22669  0.02572  1.0000
  C   C36       1.0  0.22102  0.32352  0.12438  1.0000
  H   H64       1.0  0.16444  0.30558  0.24798  1.0000
  C   C37       1.0  0.00039  0.29258  0.18018  1.0000
  C   C38       1.0  0.24479  0.14878  0.13190  1.0000
  S   S18       1.0  0.23639  0.12284  0.14488  1.0000
  C   C39       1.0  0.12929  0.25362  0.32544  1.0000
  C   C40       1.0  0.01356  0.25536  0.19812  1.0000
  S   S19       1.0  0.19431  0.22882  0.33133  1.0000
  H   H65       1.0  0.11682  0.20074  0.33142  1.0000
  H   H66       1.0  0.24676  0.29690  0.11420  1.0000
  H   H67       1.0  0.13495  0.13901  0.33161  1.0000
  H   H68       1.0  0.11442  0.31865  0.62649  1.0000
  Fe  Fe10      1.0  0.20580  0.23407  0.59509  1.0000
  S   S20       1.0  0.19041  0.25529  0.56609  1.0000
  C   C41       1.0  0.10427  0.28787  0.64557  1.0000
  Fe  Fe11      1.0  0.18415  0.28259  0.58766  1.0000
  H   H69       1.0  0.18906  0.23507  0.48709  1.0000
  Fe  Fe12      1.0  0.22421  0.26647  0.55517  1.0000
  H   H70       1.0  0.04953  0.27848  0.65812  1.0000
  S   S21       1.0  0.19635  0.26049  0.61761  1.0000
  H   H71       1.0  0.14833  0.30495  0.48879  1.0000
  C   C42       1.0  0.18908  0.31739  0.63493  1.0000
  S   S22       1.0  0.17678  0.27080  0.37790  1.0000
  H   H72       1.0  0.14976  0.25748  0.60379  1.0000
  H   H73       1.0  0.13107  0.16152  0.34819  1.0000
  S   S23       1.0  0.21854  0.29329  0.38782  1.0000
  H   H74       1.0  0.18023  0.31327  0.62197  1.0000
  Fe  Fe13      1.0  0.20247  0.26253  0.40183  1.0000
  S   S24       1.0  0.19354  0.25052  0.43945  1.0000
  S   S25       1.0  0.22640  0.23999  0.37985  1.0000
  H   H75       1.0  0.20648  0.24368  0.51805  1.0000
  S   S26       1.0  0.23865  0.27391  0.51793  1.0000
  C   C43       1.0  0.22541  0.26783  0.49640  1.0000
  C   C44       1.0  0.23994  0.18036  0.60856  1.0000
  C   C45       1.0  0.22032  0.27394  0.45654  1.0000
  C   C46       1.0  0.20557  0.25803  0.46109  1.0000
  C   C47       1.0  0.20044  0.24743  0.48343  1.0000
  C   C48       1.0  0.21023  0.25234  0.50103  1.0000
  H   H76       1.0  0.02469  0.29042  0.64569  1.0000
  H   H77       1.0  0.15184  0.25325  0.34920  1.0000
  C   C49       1.0  0.10755  0.26436  0.64767  1.0000
  C   C50       1.0  0.23594  0.15925  0.65364  1.0000
  S   S27       1.0  0.21682  0.29554  0.57524  1.0000
  H   H78       1.0  0.11521  0.26273  0.33516  1.0000
  H   H79       1.0  0.17688  0.30857  0.54737  1.0000
  C   C51       1.0  0.03097  0.28311  0.66192  1.0000
  C   C52       1.0  0.13363  0.28957  0.61310  1.0000
  C   C53       1.0  0.23036  0.27865  0.47410  1.0000
  S   S28       1.0  0.19639  0.20079  0.61237  1.0000
  C   C54       1.0  0.13695  0.26608  0.61524  1.0000
  Fe  Fe14      1.0  0.20205  0.25091  0.35465  1.0000
  C   C55       1.0  0.11702  0.30049  0.62804  1.0000
  C   C56       1.0  0.21728  0.17258  0.64512  1.0000
  H   H80       1.0  0.19323  0.29428  0.52522  1.0000
  H   H81       1.0  0.14820  0.28349  0.55006  1.0000
  S   S29       1.0  0.21908  0.28027  0.33720  1.0000
  H   H82       1.0  0.13574  0.28247  0.52559  1.0000
  H   H83       1.0  0.12637  0.23535  0.63387  1.0000
  S   S30       1.0  0.15131  0.30510  0.59278  1.0000
  Fe  Fe15      1.0  0.22990  0.27068  0.60356  1.0000
  C   C57       1.0  0.12368  0.25352  0.63228  1.0000
  C   C58       1.0  0.15149  0.28463  0.53126  1.0000
  C   C59       1.0  0.16351  0.30687  0.49565  1.0000
  H   H84       1.0  0.20133  0.17486  0.65599  1.0000
  C   C60       1.0  0.17975  0.30846  0.52876  1.0000
  H   H85       1.0  0.24192  0.29082  0.47045  1.0000
  Fe  Fe16      1.0  0.24085  0.27146  0.36434  1.0000
  C   C61       1.0  0.21939  0.18337  0.62267  1.0000
  C   C62       1.0  0.15007  0.24833  0.33340  1.0000
  H   H86       1.0  0.20158  0.30246  0.63946  1.0000
  Fe  Fe17      1.0  0.19536  0.29957  0.36179  1.0000
  H   H87       1.0  0.22405  0.28252  0.43949  1.0000
  H   H88       1.0  0.24410  0.23319  0.42691  1.0000
  S   S31       1.0  0.24050  0.24255  0.58258  1.0000
  H   H89       1.0  0.04271  0.24067  0.65347  1.0000
  C   C63       1.0  0.02436  0.24618  0.65802  1.0000
  N   N6        1.0  0.17321  0.32334  0.65502  1.0000
  H   H90       1.0  0.16434  0.27010  0.52699  1.0000
  H   H91       1.0  0.17695  0.29304  0.49072  1.0000
  C   C64       1.0  0.12438  0.15523  0.33488  1.0000
  H   H92       1.0  0.10712  0.15161  0.34196  1.0000
  N   N7        1.0  0.15902  0.30624  0.52049  1.0000
  H   H93       1.0  0.01733  0.25269  0.64201  1.0000
  H   H94       1.0  0.24150  0.18843  0.59113  1.0000
  H   H95       1.0  0.16916  0.32296  0.48694  1.0000
  H   H96       1.0  0.18634  0.32426  0.52058  1.0000
  C   C65       1.0  0.14136  0.32496  0.52641  1.0000
  H   H97       1.0  0.12544  0.32390  0.52041  1.0000
  H   H98       1.0  0.13763  0.32475  0.54512  1.0000
  H   H99       1.0  0.09183  0.29641  0.65732  1.0000
  H   H100      1.0  0.15254  0.29863  0.65357  1.0000
  S   S32       1.0  0.11371  0.24071  0.77259  1.0000
  S   S33       1.0  0.06699  0.25177  0.73395  1.0000
  H   H101      1.0  0.18571  0.21900  0.74089  1.0000
  S   S34       1.0  0.07389  0.29817  0.75160  1.0000
  H   H102      1.0  0.20231  0.29714  0.96427  1.0000
  Fe  Fe18      1.0  0.19541  0.26140  0.84665  1.0000
  S   S35       1.0  0.19345  0.22725  0.86756  1.0000
  S   S36       1.0  0.17135  0.28467  0.82570  1.0000
  Fe  Fe19      1.0  0.20928  0.24034  0.89281  1.0000
  S   S37       1.0  0.20147  0.22925  0.93082  1.0000
  Fe  Fe20      1.0  0.22878  0.21866  0.85049  1.0000
  H   H103      1.0  0.10990  0.32666  0.77105  1.0000
  S   S38       1.0  0.20798  0.27529  0.87341  1.0000
  S   S39       1.0  0.22954  0.25155  0.82770  1.0000
  C   C66       1.0  0.13775  0.32545  0.72867  1.0000
  C   C67       1.0  0.20435  0.24418  0.95244  1.0000
  C   C68       1.0  0.20897  0.23215  0.97347  1.0000
  C   C69       1.0  0.23001  0.04630  0.78427  1.0000
  H   H104      1.0  0.22025  0.31591  0.76746  1.0000
  C   C70       1.0  0.20434  0.27895  0.96684  1.0000
  C   C71       1.0  0.20178  0.26766  0.94929  1.0000
  S   S40       1.0  0.01079  0.29795  0.74319  1.0000
  H   H105      1.0  0.23182  0.03490  0.80048  1.0000
  H   H106      1.0  0.22551  0.02625  0.70313  1.0000
  H   H107      1.0  0.19756  0.27712  0.93341  1.0000
  H   H108      1.0  0.22753  0.10245  0.76578  1.0000
  H   H109      1.0  0.19685  0.31813  0.78960  1.0000
  H   H110      1.0  0.18146  0.20294  0.69669  1.0000
  H   H111      1.0  0.14911  0.30805  0.68056  1.0000
  C   C72       1.0  0.21502  0.18378  0.78441  1.0000
  C   C73       1.0  0.22049  0.19091  0.80341  1.0000
  H   H112      1.0  0.23446  0.15141  0.67112  1.0000
  H   H113      1.0  0.20222  0.19398  0.77535  1.0000
  H   H114      1.0  0.21185  0.20647  0.80897  1.0000
  C   C74       1.0  0.23707  0.17775  0.81523  1.0000
  C   C75       1.0  0.13034  0.25293  0.78667  1.0000
  C   C76       1.0  0.13081  0.27610  0.78262  1.0000
  C   C77       1.0  0.14377  0.28560  0.79442  1.0000
  C   C78       1.0  0.15634  0.27200  0.81028  1.0000
  C   C79       1.0  0.15638  0.24873  0.81387  1.0000
  C   C80       1.0  0.14336  0.23923  0.80210  1.0000
  H   H115      1.0  0.12104  0.28663  0.77053  1.0000
  H   H116      1.0  0.14413  0.30349  0.79128  1.0000
  H   H117      1.0  0.16607  0.23810  0.82602  1.0000
  H   H118      1.0  0.14312  0.22127  0.80526  1.0000
  H   H119      1.0  0.02768  0.29662  0.67281  1.0000
  H   H120      1.0  0.21824  0.29420  0.79172  1.0000
  H   H121      1.0  0.22364  0.30196  0.82894  1.0000
  H   H122      1.0  0.14401  0.19878  0.76334  1.0000
  H   H123      1.0  0.17377  0.28913  0.67147  1.0000
  H   H124      1.0  0.24084  0.07932  0.75115  1.0000
  H   H125      1.0  0.21114  0.09502  0.80612  1.0000
  C   C81       1.0  0.13995  0.21247  0.71922  1.0000
  H   H126      1.0  0.24497  0.05582  0.71144  1.0000
  H   H127      1.0  0.17364  0.23603  0.71741  1.0000
  N   N8        1.0  0.16090  0.20469  0.72914  1.0000
  Fe  Fe21      1.0  0.08416  0.26614  0.70016  1.0000
  Fe  Fe22      1.0  0.09065  0.30828  0.71618  1.0000
  C   C82       1.0  0.22725  0.08443  0.76479  1.0000
  H   H128      1.0  0.21425  0.04402  0.77870  1.0000
  Fe  Fe23      1.0  0.09386  0.26411  0.74766  1.0000
  C   C83       1.0  0.22637  0.16371  0.77701  1.0000
  H   H129      1.0  0.13270  0.19814  0.71570  1.0000
  C   C84       1.0  0.23969  0.02147  0.71230  1.0000
  C   C85       1.0  0.15615  0.18975  0.75079  1.0000
  C   C86       1.0  0.02962  0.25391  0.69420  1.0000
  H   H130      1.0  0.02784  0.26684  0.70553  1.0000
  H   H131      1.0  0.23716  0.28892  0.92021  1.0000
  H   H132      1.0  0.11304  0.32594  0.81140  1.0000
  C   C87       1.0  0.24276  0.15064  0.78903  1.0000
  H   H133      1.0  0.19501  0.07555  0.79978  1.0000
  H   H134      1.0  0.01027  0.24998  0.74467  1.0000
  Fe  Fe24      1.0  0.04830  0.28679  0.73492  1.0000
  S   S41       1.0  0.11259  0.27528  0.71358  1.0000
  S   S42       1.0  0.06358  0.30008  0.69987  1.0000
  H   H135      1.0  0.14887  0.17498  0.74842  1.0000
  S   S43       1.0  0.21999  0.15488  0.75291  1.0000
  H   H136      1.0  0.12694  0.22172  0.73087  1.0000
  H   H137      1.0  0.23744  0.26115  0.91382  1.0000
  C   C88       1.0  0.16994  0.22431  0.73333  1.0000
  S   S44       1.0  0.09198  0.24840  0.66979  1.0000
  H   H138      1.0  0.17140  0.17719  0.70995  1.0000
  H   H139      1.0  0.02117  0.23964  0.70376  1.0000
  H   H140      1.0  0.21088  0.21396  0.97607  1.0000
  H   H141      1.0  0.19362  0.18622  0.72023  1.0000
  C   C89       1.0  0.20929  0.26692  0.98775  1.0000
  H   H142      1.0  0.15779  0.23400  0.74531  1.0000
  H   H143      1.0  0.17170  0.18319  0.75850  1.0000
  H   H144      1.0  0.13084  0.30985  0.73293  1.0000
  H   H145      1.0  0.21109  0.08331  0.75931  1.0000
  H   H146      1.0  0.14279  0.22401  0.70297  1.0000
  C   C90       1.0  0.17757  0.19225  0.71329  1.0000
  H   H147      1.0  0.22923  0.32902  0.83202  1.0000
  C   C91       1.0  0.15558  0.32842  0.73902  1.0000
  H   H148      1.0  0.04777  0.24742  0.69059  1.0000
  H   H149      1.0  0.20187  0.32558  0.82691  1.0000
  S   S45       1.0  0.24515  0.18595  0.83868  1.0000
  C   C92       1.0  0.21154  0.07712  0.80416  1.0000
  H   H150      1.0  0.21325  0.06673  0.82093  1.0000
  H   H151      1.0  0.16240  0.31507  0.75127  1.0000
  N   N9        1.0  0.23012  0.07000  0.78662  1.0000
  C   C93       1.0  0.21163  0.24344  0.99100  1.0000
  Fe  Fe25      1.0  0.24198  0.26290  0.85570  1.0000
  S   S46       1.0  0.24454  0.22915  0.87702  1.0000
  C   C94       1.0  0.21529  0.31267  0.78613  1.0000
  H   H152      1.0  0.24415  0.04036  0.77146  1.0000
  N   N10       1.0  0.22763  0.32475  0.79793  1.0000
  N   N11       1.0  0.02014  0.26342  0.67322  1.0000
  C   C95       1.0  0.22023  0.32021  0.82256  1.0000
  H   H153      1.0  0.15604  0.24917  0.99493  1.0000
  H   H154      1.0  0.19874  0.31532  0.67667  1.0000
  H   H155      1.0  0.01662  0.23099  0.66619  1.0000
  C   C96       1.0  0.24686  0.99857  0.71945  1.0000
  C   C97       1.0  0.18569  0.32941  0.67136  1.0000
  C   C98       1.0  0.16168  0.30392  0.66567  1.0000
  S   S47       1.0  0.23034  0.38961  0.19328  1.0000
  H   H156      1.0  0.21995  0.65454  0.23697  1.0000
  C   C99       1.0  0.21001  0.54882  0.19628  1.0000
  S   S48       1.0  0.18900  0.37923  0.24917  1.0000
  C   C100      1.0  0.18749  0.36730  0.27770  1.0000
  C   C101      1.0  0.20251  0.55460  0.23533  1.0000
  H   H157      1.0  0.19828  0.50833  0.21304  1.0000
  H   H158      1.0  0.21843  0.42456  0.12495  1.0000
  C   C102      1.0  0.13563  0.33423  0.28989  1.0000
  C   C103      1.0  0.19640  0.33583  0.30673  1.0000
  C   C104      1.0  0.18134  0.63275  0.21329  1.0000
  H   H159      1.0  0.19917  0.57315  0.23021  1.0000
  H   H160      1.0  0.16316  0.39445  0.28912  1.0000
  H   H161      1.0  0.24504  0.37863  0.11500  1.0000
  H   H162      1.0  0.16763  0.54020  0.20409  1.0000
  C   C105      1.0  0.17267  0.37819  0.29404  1.0000
  H   H163      1.0  0.23014  0.42479  0.15009  1.0000
  C   C106      1.0  0.20179  0.51803  0.22566  1.0000
  N   N12       1.0  0.19669  0.54255  0.21852  1.0000
  H   H164      1.0  0.15868  0.37672  0.32932  1.0000
  H   H165      1.0  0.22828  0.54473  0.19721  1.0000
  H   H166      1.0  0.23125  0.36215  0.30480  1.0000
  C   C107      1.0  0.16612  0.65240  0.20896  1.0000
  H   H167      1.0  0.22063  0.55007  0.23717  1.0000
  S   S49       1.0  0.19386  0.61722  0.19139  1.0000
  Fe  Fe26      1.0  0.22419  0.37924  0.23084  1.0000
  H   H168      1.0  0.16839  0.56739  0.21133  1.0000
  C   C108      1.0  0.17258  0.54891  0.21673  1.0000
  H   H169      1.0  0.20656  0.53970  0.18318  1.0000
  H   H170      1.0  0.19266  0.55052  0.25233  1.0000
  H   H171      1.0  0.16196  0.54457  0.23324  1.0000
  C   C109      1.0  0.19956  0.34617  0.28409  1.0000
  H   H172      1.0  0.20634  0.56719  0.19021  1.0000
  C   C110      1.0  0.17008  0.36812  0.31675  1.0000
  C   C111      1.0  0.18671  0.62571  0.23512  1.0000
  H   H173      1.0  0.19872  0.35095  0.13789  1.0000
  C   C112      1.0  0.22989  0.41457  0.13657  1.0000
  H   H174      1.0  0.19818  0.61051  0.23873  1.0000
  H   H175      1.0  0.18126  0.63268  0.26940  1.0000
  H   H176      1.0  0.14698  0.33249  0.24522  1.0000
  H   H177      1.0  0.21073  0.33752  0.27143  1.0000
  Fe  Fe27      1.0  0.23066  0.60651  0.19262  1.0000
  C   C113      1.0  0.17702  0.63824  0.25253  1.0000
  H   H178      1.0  0.22451  0.35692  0.16303  1.0000
  H   H179      1.0  0.19181  0.51260  0.24225  1.0000
  H   H180      1.0  0.21984  0.51294  0.22755  1.0000
  C   C114      1.0  0.22954  0.34403  0.15225  1.0000
  C   C115      1.0  0.18179  0.34682  0.32315  1.0000
  H   H181      1.0  0.12488  0.34692  0.27937  1.0000
  C   C116      1.0  0.21493  0.34058  0.13807  1.0000
  H   H182      1.0  0.23503  0.66221  0.25655  1.0000
  C   C117      1.0  0.16261  0.65839  0.24805  1.0000
  S   S50       1.0  0.24664  0.40159  0.23840  1.0000
  H   H183      1.0  0.22235  0.39928  0.14478  1.0000
  H   H184      1.0  0.14958  0.34247  0.29258  1.0000
  H   H185      1.0  0.16175  0.65780  0.19212  1.0000
  S   S51       1.0  0.24388  0.59108  0.22472  1.0000
  H   H186      1.0  0.12556  0.33002  0.30677  1.0000
  H   H187      1.0  0.24050  0.40349  0.09471  1.0000
  H   H188      1.0  0.22651  0.33370  0.33914  1.0000
  H   H189      1.0  0.14388  0.34733  0.66279  1.0000
  C   C118      1.0  0.24349  0.33569  0.34192  1.0000
  S   S52       1.0  0.17756  0.33440  0.35167  1.0000
  H   H190      1.0  0.14656  0.34155  0.51878  1.0000
  H   H191      1.0  0.19853  0.33146  0.62680  1.0000
  C   C119      1.0  0.15639  0.34263  0.64808  1.0000
  C   C120      1.0  0.23227  0.66010  0.66383  1.0000
  H   H192      1.0  0.16441  0.35773  0.64024  1.0000
  H   H193      1.0  0.19438  0.34421  0.66398  1.0000
  H   H194      1.0  0.24131  0.34917  0.35268  1.0000
  H   H195      1.0  0.14692  0.33862  0.63551  1.0000
  Fe  Fe28      1.0  0.21641  0.61962  0.76089  1.0000
  C   C121      1.0  0.15555  0.36598  0.71805  1.0000
  S   S53       1.0  0.20958  0.39811  0.69668  1.0000
  H   H196      1.0  0.07043  0.37393  0.79311  1.0000
  C   C122      1.0  0.13745  0.36314  0.70798  1.0000
  C   C123      1.0  0.14722  0.63799  0.78534  1.0000
  Fe  Fe29      1.0  0.23675  0.61746  0.71183  1.0000
  C   C124      1.0  0.09837  0.34280  0.77173  1.0000
  Fe  Fe30      1.0  0.24454  0.38006  0.68907  1.0000
  C   C125      1.0  0.10149  0.34220  0.81096  1.0000
  C   C126      1.0  0.21064  0.50273  0.71021  1.0000
  Fe  Fe31      1.0  0.22239  0.57529  0.74116  1.0000
  H   H197      1.0  0.10552  0.35131  0.82380  1.0000
  S   S54       1.0  0.21488  0.59309  0.70692  1.0000
  S   S55       1.0  0.18405  0.35336  0.74962  1.0000
  S   S56       1.0  0.22096  0.40023  0.74714  1.0000
  C   C127      1.0  0.12833  0.34301  0.71357  1.0000
  S   S57       1.0  0.15188  0.62704  0.72151  1.0000
  H   H198      1.0  0.20763  0.53765  0.71452  1.0000
  C   C128      1.0  0.16427  0.34879  0.73395  1.0000
  H   H199      1.0  0.20119  0.50639  0.69616  1.0000
  C   C129      1.0  0.23115  0.47573  0.73613  1.0000
  N   N13       1.0  0.10377  0.35562  0.78815  1.0000
  H   H200      1.0  0.16208  0.38182  0.71426  1.0000
  S   S58       1.0  0.21435  0.45868  0.70386  1.0000
  H   H201      1.0  0.23770  0.45854  0.74222  1.0000
  Fe  Fe32      1.0  0.22557  0.42103  0.71269  1.0000
  C   C130      1.0  0.23480  0.49349  0.74651  1.0000
  H   H202      1.0  0.13015  0.37676  0.69629  1.0000
  H   H203      1.0  0.17433  0.33370  0.68688  1.0000
  H   H204      1.0  0.24679  0.54992  0.69671  1.0000
  S   S59       1.0  0.23321  0.53774  0.75112  1.0000
  S   S60       1.0  0.19318  0.59498  0.76065  1.0000
  S   S61       1.0  0.24215  0.35604  0.72123  1.0000
  H   H205      1.0  0.18245  0.65277  0.69014  1.0000
  C   C131      1.0  0.21426  0.52049  0.72060  1.0000
  H   H206      1.0  0.22117  0.64781  0.67083  1.0000
  S   S62       1.0  0.20872  0.64039  0.72841  1.0000
  H   H207      1.0  0.14402  0.63218  0.76989  1.0000
  H   H208      1.0  0.08097  0.33868  0.77621  1.0000
  Fe  Fe33      1.0  0.18752  0.61454  0.72683  1.0000
  S   S63       1.0  0.21114  0.63940  0.78999  1.0000
  H   H209      1.0  0.16460  0.63037  0.78815  1.0000
  C   C132      1.0  0.21906  0.48028  0.71788  1.0000
  Fe  Fe34      1.0  0.20851  0.37589  0.73028  1.0000
  C   C133      1.0  0.22643  0.51594  0.73877  1.0000
  H   H210      1.0  0.20478  0.35565  0.79344  1.0000
  H   H211      1.0  0.09981  0.35243  0.75431  1.0000
  H   H212      1.0  0.09173  0.38716  0.80048  1.0000
  S   S64       1.0  0.10455  0.34048  0.70243  1.0000
  H   H213      1.0  0.13555  0.63092  0.79993  1.0000
  C   C134      1.0  0.22299  0.34915  0.79007  1.0000
  C   C135      1.0  0.08817  0.37699  0.78830  1.0000
  S   S65       1.0  0.24639  0.59837  0.74463  1.0000
  H   H214      1.0  0.24428  0.48981  0.76054  1.0000
  H   H215      1.0  0.13937  0.34484  0.78141  1.0000
  H   H216      1.0  0.08415  0.33811  0.81649  1.0000
  H   H217      1.0  0.12948  0.37037  0.76425  1.0000
  H   H218      1.0  0.08956  0.38745  0.77127  1.0000
  H   H219      1.0  0.13168  0.37042  0.79335  1.0000
  C   C136      1.0  0.23157  0.65566  0.79224  1.0000
  C   C137      1.0  0.12704  0.36054  0.78153  1.0000
  C   C138      1.0  0.14880  0.65503  0.70812  1.0000
  H   H220      1.0  0.22831  0.35304  0.77154  1.0000
  H   H221      1.0  0.11443  0.66245  0.72349  1.0000
  H   H222      1.0  0.23229  0.35885  0.79832  1.0000
  N   N14       1.0  0.14446  0.66280  0.78280  1.0000
  H   H223      1.0  0.16711  0.66301  0.80621  1.0000
  H   H224      1.0  0.18107  0.83969  0.30233  1.0000
  H   H225      1.0  0.03820  0.68991  0.23686  1.0000
  H   H226      1.0  0.22484  0.81068  0.31401  1.0000
  H   H227      1.0  0.19548  0.91273  0.18797  1.0000
  C   C139      1.0  0.17303  0.73408  0.32253  1.0000
  H   H228      1.0  0.19915  0.70690  0.33104  1.0000
  C   C140      1.0  0.19596  0.78618  0.13874  1.0000
  C   C141      1.0  0.03405  0.70790  0.23667  1.0000
  Fe  Fe35      1.0  0.23073  0.87181  0.21473  1.0000
  S   S66       1.0  0.19516  0.86514  0.22479  1.0000
  S   S67       1.0  0.11076  0.72769  0.28391  1.0000
  H   H229      1.0  0.06677  0.71168  0.24332  1.0000
  Fe  Fe36      1.0  0.13966  0.71154  0.26095  1.0000
  Fe  Fe37      1.0  0.14935  0.75616  0.23268  1.0000
  S   S68       1.0  0.12081  0.77546  0.25311  1.0000
  S   S69       1.0  0.17658  0.77089  0.20679  1.0000
  Fe  Fe38      1.0  0.13317  0.75341  0.28336  1.0000
  H   H230      1.0  0.19965  0.71335  0.21265  1.0000
  Fe  Fe39      1.0  0.10091  0.74798  0.25146  1.0000
  S   S70       1.0  0.06461  0.75975  0.24536  1.0000
  S   S71       1.0  0.16263  0.73573  0.26302  1.0000
  S   S72       1.0  0.12882  0.73019  0.22836  1.0000
  C   C142      1.0  0.04511  0.74344  0.24026  1.0000
  C   C143      1.0  0.02359  0.75421  0.23632  1.0000
  C   C144      1.0  0.00223  0.71549  0.29239  1.0000
  H   H231      1.0  0.01951  0.77222  0.23600  1.0000
  H   H232      1.0  0.24110  0.70644  0.20619  1.0000
  H   H233      1.0  0.19120  0.74824  0.16825  1.0000
  C   C145      1.0  0.01245  0.71865  0.23299  1.0000
  N   N15       1.0  0.22029  0.69010  0.23429  1.0000
  H   H234      1.0  0.19444  0.78870  0.15674  1.0000
  N   N16       1.0  0.18774  0.94492  0.19967  1.0000
  H   H235      1.0  0.21648  0.81488  0.25412  1.0000
  H   H236      1.0  0.23609  0.81631  0.27251  1.0000
  C   C146      1.0  0.15699  0.66542  0.22627  1.0000
  C   C147      1.0  0.22896  0.75849  0.14178  1.0000
  C   C148      1.0  0.05028  0.72019  0.24037  1.0000
  N   N17       1.0  0.20294  0.81177  0.28945  1.0000
  H   H237      1.0  0.15427  0.94956  0.19153  1.0000
  C   C149      1.0  0.19019  0.83922  0.21898  1.0000
  C   C150      1.0  0.20639  0.82585  0.20577  1.0000
  C   C151      1.0  0.20209  0.80498  0.20192  1.0000
  C   C152      1.0  0.18170  0.79726  0.21147  1.0000
  C   C153      1.0  0.16560  0.81074  0.22455  1.0000
  C   C154      1.0  0.16975  0.83166  0.22818  1.0000
  H   H238      1.0  0.22211  0.83166  0.19829  1.0000
  H   H239      1.0  0.21463  0.79479  0.19164  1.0000
  H   H240      1.0  0.14968  0.80532  0.23157  1.0000
  H   H241      1.0  0.15706  0.84194  0.23825  1.0000
  C   C155      1.0  0.22176  0.68603  0.03216  1.0000
  H   H242      1.0  0.23136  0.85882  0.31905  1.0000
  C   C156      1.0  0.16256  0.75569  0.32606  1.0000
  C   C157      1.0  0.18429  0.80035  0.28683  1.0000
  H   H243      1.0  0.21892  0.73015  0.01450  1.0000
  H   H244      1.0  0.17882  0.79029  0.13395  1.0000
  S   S73       1.0  0.13971  0.76923  0.31223  1.0000
  C   C158      1.0  0.22171  0.80797  0.27096  1.0000
  H   H245      1.0  0.20612  0.70633  0.26329  1.0000
  N   N18       1.0  0.20615  0.76294  0.13551  1.0000
  S   S74       1.0  0.24398  0.89471  0.23290  1.0000
  H   H246      1.0  0.16957  0.80342  0.30012  1.0000
  H   H247      1.0  0.17477  0.75013  0.14612  1.0000
  H   H248      1.0  0.19923  0.72920  0.14771  1.0000
  C   C159      1.0  0.19510  0.83616  0.28848  1.0000
  H   H249      1.0  0.19051  0.76318  0.10630  1.0000
  H   H250      1.0  0.18926  0.78180  0.28810  1.0000
  H   H251      1.0  0.16064  0.92590  0.21273  1.0000
  H   H252      1.0  0.01025  0.70577  0.30691  1.0000
  C   C160      1.0  0.00737  0.74193  0.23262  1.0000
  H   H253      1.0  0.18853  0.93612  0.16664  1.0000
  C   C161      1.0  0.19930  0.93675  0.21964  1.0000
  C   C162      1.0  0.19713  0.93077  0.18183  1.0000
  H   H254      1.0  0.19741  0.91888  0.22640  1.0000
  S   S75       1.0  0.24018  0.70330  0.08376  1.0000
  S   S76       1.0  0.24386  0.88754  0.17990  1.0000
  H   H255      1.0  0.15591  0.95396  0.21972  1.0000
  H   H256      1.0  0.17837  0.80634  0.27020  1.0000
  H   H257      1.0  0.22208  0.68727  0.05021  1.0000
  H   H258      1.0  0.21626  0.78419  0.31299  1.0000
  H   H259      1.0  0.21756  0.93778  0.21533  1.0000
  C   C163      1.0  0.19107  0.96849  0.19105  1.0000
  C   C164      1.0  0.22002  0.66752  0.24780  1.0000
  C   C165      1.0  0.16355  0.94356  0.20620  1.0000
  H   H260      1.0  0.19889  0.68403  0.21204  1.0000
  H   H261      1.0  0.18451  0.97964  0.20416  1.0000
  H   H262      1.0  0.18256  0.97528  0.17599  1.0000
  H   H263      1.0  0.16659  0.72504  0.31183  1.0000
  C   C166      1.0  0.24046  0.68978  0.21692  1.0000
  H   H264      1.0  0.21527  0.93184  0.17614  1.0000
  H   H265      1.0  0.21753  0.77223  0.10008  1.0000
  C   C167      1.0  0.20744  0.76018  0.11155  1.0000
  C   C168      1.0  0.21060  0.80266  0.31150  1.0000
  H   H266      1.0  0.14563  0.68081  0.22279  1.0000
  H   H267      1.0  0.18452  0.69718  0.23578  1.0000
  H   H268      1.0  0.20622  0.79872  0.12825  1.0000
  C   C169      1.0  0.20001  0.69645  0.22312  1.0000
  S   S77       1.0  0.15349  0.67498  0.26974  1.0000
  C   C170      1.0  0.23532  0.72166  0.01944  1.0000
  H   H269      1.0  0.20469  0.69350  0.02832  1.0000
  H   H270      1.0  0.18892  0.84346  0.27216  1.0000
  C   C171      1.0  0.19226  0.74689  0.15002  1.0000
  H   H271      1.0  0.21969  0.72402  0.24004  1.0000
  H   H272      1.0  0.22786  0.78972  0.27102  1.0000
  H   H273      1.0  0.19260  0.94692  0.23354  1.0000
  H   H274      1.0  0.20883  0.84537  0.29005  1.0000
  H   H275      1.0  0.01265  0.72880  0.28416  1.0000
  H   H276      1.0  0.20922  0.96992  0.18584  1.0000
  H   H277      1.0  0.23259  0.84172  0.11853  1.0000
  H   H278      1.0  0.19693  0.80554  0.32585  1.0000
  H   H279      1.0  0.21543  0.74293  0.10844  1.0000
  C   C172      1.0  0.22065  0.70658  0.24939  1.0000
  H   H280      1.0  0.22856  0.76053  0.15974  1.0000
  H   H281      1.0  0.23614  0.70277  0.25746  1.0000
  H   H282      1.0  0.00322  0.70385  0.27986  1.0000
  H   H283      1.0  0.23523  0.72389  0.03726  1.0000
  H   H284      1.0  0.22680  0.66584  0.11619  1.0000
  H   H285      1.0  0.22418  0.66782  0.03069  1.0000
  N   N19       1.0  0.23925  0.69757  0.01694  1.0000
  H   H286      1.0  0.23723  0.74115  0.13945  1.0000
  H   H287      1.0  0.23982  0.77038  0.13113  1.0000
  S   S78       1.0  0.24590  0.80573  0.09185  1.0000
  H   H288      1.0  0.24086  0.67705  0.20566  1.0000
  H   H289      1.0  0.20492  0.66709  0.26101  1.0000
  C   C173      1.0  0.24491  0.66333  0.11232  1.0000
  C   C174      1.0  0.15949  0.78610  0.65247  1.0000
  C   C175      1.0  0.23574  0.85206  0.44144  1.0000
  H   H290      1.0  0.15371  0.80427  0.64720  1.0000
  H   H291      1.0  0.18642  0.77721  0.61414  1.0000
  C   C176      1.0  0.17070  0.76700  0.34051  1.0000
  S   S79       1.0  0.22276  0.72182  0.36131  1.0000
  H   H292      1.0  0.20965  0.75225  0.65403  1.0000
  S   S80       1.0  0.22958  0.71932  0.62162  1.0000
  H   H293      1.0  0.16245  0.78358  0.34355  1.0000
  H   H294      1.0  0.21701  0.82903  0.41713  1.0000
  C   C177      1.0  0.24019  0.69132  0.55256  1.0000
  C   C178      1.0  0.23440  0.85366  0.64914  1.0000
  H   H295      1.0  0.22888  0.69918  0.53992  1.0000
  S   S81       1.0  0.24337  0.82586  0.35656  1.0000
  C   C179      1.0  0.19293  0.78690  0.62490  1.0000
  H   H296      1.0  0.19546  0.76569  0.36231  1.0000
  S   S82       1.0  0.22726  0.77326  0.39495  1.0000
  H   H297      1.0  0.21152  0.78322  0.62192  1.0000
  C   C180      1.0  0.18938  0.75689  0.35113  1.0000
  N   N20       1.0  0.18422  0.78099  0.64909  1.0000
  H   H298      1.0  0.18463  0.74624  0.64617  1.0000
  C   C181      1.0  0.19969  0.73519  0.34776  1.0000
  C   C182      1.0  0.22489  0.67941  0.64923  1.0000
  H   H299      1.0  0.23703  0.73632  0.54435  1.0000
  H   H300      1.0  0.15197  0.77608  0.64283  1.0000
  H   H301      1.0  0.18848  0.81268  0.65757  1.0000
  H   H302      1.0  0.22048  0.81267  0.44445  1.0000
  C   C183      1.0  0.24441  0.86910  0.65734  1.0000
  H   H303      1.0  0.18837  0.80517  0.61894  1.0000
  H   H304      1.0  0.22968  0.68967  0.56957  1.0000
  S   S83       1.0  0.23277  0.82384  0.62064  1.0000
  C   C184      1.0  0.19339  0.79427  0.66260  1.0000
  H   H305      1.0  0.22870  0.77356  0.49944  1.0000
  C   C185      1.0  0.23921  0.69534  0.63996  1.0000
  H   H306      1.0  0.21776  0.85027  0.65679  1.0000
  H   H307      1.0  0.23762  0.72684  0.57391  1.0000
  S   S84       1.0  0.24265  0.76347  0.45439  1.0000
  C   C186      1.0  0.24589  0.84255  0.63117  1.0000
  C   C187      1.0  0.19108  0.75672  0.65626  1.0000
  H   H308      1.0  0.20812  0.68189  0.64493  1.0000
  H   H309      1.0  0.21206  0.79110  0.66020  1.0000
  H   H310      1.0  0.22317  0.86302  0.43159  1.0000
  Fe  Fe40      1.0  0.24028  0.74403  0.37629  1.0000
  C   C188      1.0  0.22956  0.81919  0.42769  1.0000
  H   H311      1.0  0.22683  0.84646  0.45858  1.0000
  H   H312      1.0  0.23741  0.80430  0.41946  1.0000
  S   S85       1.0  0.24627  0.77423  0.58457  1.0000
  C   C189      1.0  0.19143  0.72380  0.33350  1.0000
  C   C190      1.0  0.24681  0.76981  0.49708  1.0000
  N   N21       1.0  0.24669  0.83264  0.43002  1.0000
  H   H313      1.0  0.24618  0.85113  0.39642  1.0000
  H   H314      1.0  0.23837  0.69546  0.82262  1.0000
  H   H315      1.0  0.20962  0.73738  0.71155  1.0000
  H   H316      1.0  0.23545  0.83063  0.76335  1.0000
  Fe  Fe41      1.0  0.09080  0.77608  0.73458  1.0000
  S   S86       1.0  0.10804  0.78436  0.69905  1.0000
  S   S87       1.0  0.05446  0.79080  0.74465  1.0000
  Fe  Fe42      1.0  0.13456  0.75400  0.75185  1.0000
  S   S88       1.0  0.15509  0.76140  0.71806  1.0000
  S   S89       1.0  0.15412  0.73211  0.77768  1.0000
  Fe  Fe43      1.0  0.13393  0.79502  0.71527  1.0000
  S   S90       1.0  0.14839  0.82569  0.69686  1.0000
  Fe  Fe44      1.0  0.12777  0.75004  0.70486  1.0000
  S   S91       1.0  0.23270  0.97809  0.71282  1.0000
  S   S92       1.0  0.11572  0.78910  0.75064  1.0000
  S   S93       1.0  0.10822  0.74018  0.73898  1.0000
  C   C191      1.0  0.08863  0.84255  0.71082  1.0000
  S   S94       1.0  0.23943  0.91648  0.75121  1.0000
  H   H317      1.0  0.06702  0.85437  0.76365  1.0000
  C   C192      1.0  0.10669  0.85694  0.73649  1.0000
  C   C193      1.0  0.23320  0.82444  0.78186  1.0000
  H   H318      1.0  0.10468  0.86697  0.75056  1.0000
  C   C194      1.0  0.22104  0.72233  0.70623  1.0000
  S   S95       1.0  0.20046  0.87372  0.75145  1.0000
  H   H319      1.0  0.21511  0.82915  0.78837  1.0000
  C   C195      1.0  0.12849  0.66916  0.71272  1.0000
  C   C196      1.0  0.19474  0.76784  0.81318  1.0000
  C   C197      1.0  0.17811  0.78039  0.80099  1.0000
  C   C198      1.0  0.16598  0.76962  0.78947  1.0000
  C   C199      1.0  0.17017  0.74622  0.79049  1.0000
  C   C200      1.0  0.18709  0.73374  0.80231  1.0000
  C   C201      1.0  0.19950  0.74455  0.81343  1.0000
  H   H320      1.0  0.17444  0.79842  0.80064  1.0000
  H   H321      1.0  0.15299  0.77937  0.78036  1.0000
  H   H322      1.0  0.19046  0.71565  0.80310  1.0000
  C   C202      1.0  0.12122  0.67233  0.77934  1.0000
  C   C203      1.0  0.16437  0.83761  0.71181  1.0000
  C   C204      1.0  0.16451  0.83074  0.73501  1.0000
  H   H323      1.0  0.09958  0.85016  0.69584  1.0000
  Fe  Fe45      1.0  0.22615  0.89483  0.73176  1.0000
  C   C205      1.0  0.18801  0.86571  0.71243  1.0000
  C   C206      1.0  0.17627  0.85498  0.70051  1.0000
  H   H324      1.0  0.15559  0.81719  0.74382  1.0000
  C   C207      1.0  0.14953  0.66969  0.80335  1.0000
  H   H325      1.0  0.19700  0.87924  0.70366  1.0000
  H   H326      1.0  0.00771  0.80883  0.74744  1.0000
  H   H327      1.0  0.22421  0.86449  0.79660  1.0000
  C   C208      1.0  0.24251  0.68382  0.81049  1.0000
  C   C209      1.0  0.01101  0.79622  0.73628  1.0000
  C   C210      1.0  0.03289  0.78481  0.73157  1.0000
  C   C211      1.0  0.03701  0.76872  0.71694  1.0000
  H   H328      1.0  0.05742  0.87843  0.71694  1.0000
  H   H329      1.0  0.17852  0.69311  0.67332  1.0000
  Fe  Fe46      1.0  0.24383  0.94018  0.71848  1.0000
  H   H330      1.0  0.05379  0.75983  0.71314  1.0000
  H   H331      1.0  0.07257  0.84086  0.70543  1.0000
  C   C212      1.0  0.12645  0.69205  0.70362  1.0000
  N   N22       1.0  0.08488  0.85579  0.72969  1.0000
  H   H332      1.0  0.17629  0.86028  0.68254  1.0000
  C   C213      1.0  0.01933  0.76392  0.70732  1.0000
  H   H333      1.0  0.10892  0.66642  0.79397  1.0000
  H   H334      1.0  0.23659  0.72803  0.69614  1.0000
  H   H335      1.0  0.21271  0.71522  0.69466  1.0000
  H   H336      1.0  0.20993  0.67311  0.81768  1.0000
  C   C214      1.0  0.07038  0.84484  0.74907  1.0000
  H   H337      1.0  0.05396  0.84323  0.74438  1.0000
  C   C215      1.0  0.07387  0.87875  0.72228  1.0000
  H   H338      1.0  0.11879  0.69107  0.77714  1.0000
  H   H339      1.0  0.23343  0.67808  0.70658  1.0000
  C   C216      1.0  0.14445  0.70062  0.68925  1.0000
  H   H340      1.0  0.23548  0.87747  0.67130  1.0000
  S   S96       1.0  0.22722  0.92003  0.69993  1.0000
  H   H341      1.0  0.08443  0.88740  0.70765  1.0000
  H   H342      1.0  0.20838  0.68543  0.75364  1.0000
  H   H343      1.0  0.09710  0.82531  0.71591  1.0000
  H   H344      1.0  0.11077  0.70295  0.70726  1.0000
  S   S97       1.0  0.14206  0.72912  0.67762  1.0000
  C   C217      1.0  0.20505  0.69833  0.73872  1.0000
  C   C218      1.0  0.24117  0.68578  0.71812  1.0000
  H   H345      1.0  0.24106  0.70294  0.75611  1.0000
  H   H346      1.0  0.07077  0.88924  0.73612  1.0000
  C   C219      1.0  0.18747  0.85940  0.73577  1.0000
  H   H347      1.0  0.07822  0.82747  0.75508  1.0000
  H   H348      1.0  0.15246  0.78199  0.67056  1.0000
  C   C220      1.0  0.17581  0.84182  0.74701  1.0000
  N   N23       1.0  0.22612  0.70547  0.72601  1.0000
  H   H349      1.0  0.19610  0.69102  0.72788  1.0000
  C   C221      1.0  0.23711  0.71536  0.74102  1.0000
  H   H350      1.0  0.21232  0.73476  0.82272  1.0000
  C   C222      1.0  0.16462  0.68643  0.68438  1.0000
  S   S98       1.0  0.20911  0.78143  0.82835  1.0000
  H   H351      1.0  0.17548  0.83680  0.76506  1.0000
  H   H352      1.0  0.18714  0.79038  0.68097  1.0000
  H   H353      1.0  0.14765  0.68833  0.80200  1.0000
  H   H354      1.0  0.22603  0.73009  0.74752  1.0000
  H   H355      1.0  0.02263  0.75130  0.69616  1.0000
  H   H356      1.0  0.19339  0.71273  0.74521  1.0000
  H   H357      1.0  0.17767  0.66445  0.76517  1.0000
  Fe  Fe47      1.0  0.23993  0.75973  0.83958  1.0000
  H   H358      1.0  0.24164  0.67734  0.99060  1.0000
  H   H359      1.0  0.23669  0.80573  0.78442  1.0000
  C   C223      1.0  0.16004  0.67124  0.76301  1.0000
  H   H360      1.0  0.15825  0.68991  0.76038  1.0000
  C   C224      1.0  0.99742  0.77520  0.71213  1.0000
  C   C225      1.0  0.22638  0.67114  0.80763  1.0000
  C   C226      1.0  0.24209  0.85894  0.79004  1.0000
  H   H361      1.0  0.11539  0.83988  0.74227  1.0000
  H   H362      1.0  0.22170  0.70266  0.98821  1.0000
  H   H363      1.0  0.11826  0.86463  0.72210  1.0000
  H   H364      1.0  0.22600  0.82976  0.82545  1.0000
  H   H365      1.0  0.18437  0.75150  0.67427  1.0000
  H   H366      1.0  0.24469  0.86584  0.77173  1.0000
  H   H367      1.0  0.15696  0.66604  0.74728  1.0000
  C   C227      1.0  0.23836  0.69528  0.99326  1.0000
  H   H368      1.0  0.11700  0.66740  0.76390  1.0000
  S   S99       1.0  0.24496  0.72329  0.85516  1.0000
  C   C228      1.0  0.24391  0.82561  0.81805  1.0000
  H   H369      1.0  0.24507  0.67243  0.73249  1.0000
  H   H370      1.0  0.13825  0.66345  0.81871  1.0000
  C   C229      1.0  0.16688  0.66370  0.69400  1.0000
  H   H371      1.0  0.35007  0.03674  0.19340  1.0000
  C   C230      1.0  0.31349  0.00554  0.22839  1.0000
  H   H372      1.0  0.27193  0.14644  0.15093  1.0000
  C   C231      1.0  0.30032  0.15736  0.26456  1.0000
  H   H373      1.0  0.47540  0.24966  0.21292  1.0000
  S   S100      1.0  0.31777  0.10671  0.21619  1.0000
  S   S101      1.0  0.27626  0.08176  0.18592  1.0000
  H   H374      1.0  0.27316  0.19687  0.26048  1.0000
  Fe  Fe48      1.0  0.36754  0.21093  0.22814  1.0000
  S   S102      1.0  0.38400  0.18849  0.25584  1.0000
  S   S103      1.0  0.34574  0.20396  0.20437  1.0000
  Fe  Fe49      1.0  0.38002  0.25305  0.24037  1.0000
  S   S104      1.0  0.39670  0.23461  0.26988  1.0000
  S   S105      1.0  0.37975  0.28916  0.22463  1.0000
  Fe  Fe50      1.0  0.41207  0.20963  0.24627  1.0000
  S   S106      1.0  0.44913  0.19518  0.24074  1.0000
  Fe  Fe51      1.0  0.36740  0.21516  0.27711  1.0000
  N   N24       1.0  0.27595  0.16092  0.26368  1.0000
  S   S107      1.0  0.39708  0.22940  0.21628  1.0000
  S   S108      1.0  0.34936  0.23629  0.24999  1.0000
  H   H375      1.0  0.25103  0.02712  0.18375  1.0000
  C   C232      1.0  0.47036  0.20944  0.24538  1.0000
  C   C233      1.0  0.46548  0.22700  0.25833  1.0000
  C   C234      1.0  0.48264  0.23859  0.26098  1.0000
  H   H376      1.0  0.31348  0.01164  0.18371  1.0000
  C   C235      1.0  0.30267  0.26028  0.21299  1.0000
  C   C236      1.0  0.26566  0.18258  0.27134  1.0000
  H   H377      1.0  0.31716  0.06094  0.21073  1.0000
  H   H378      1.0  0.47870  0.25229  0.27089  1.0000
  H   H379      1.0  0.29438  0.04843  0.22815  1.0000
  H   H380      1.0  0.41986  0.26947  0.19342  1.0000
  S   S109      1.0  0.26392  0.21765  0.09944  1.0000
  H   H381      1.0  0.28519  0.30416  0.21040  1.0000
  C   C237      1.0  0.34387  0.30207  0.25605  1.0000
  C   C238      1.0  0.35587  0.30718  0.23446  1.0000
  C   C239      1.0  0.30915  0.02721  0.19174  1.0000
  H   H382      1.0  0.30776  0.25810  0.23007  1.0000
  H   H383      1.0  0.34412  0.28899  0.18379  1.0000
  H   H384      1.0  0.34917  0.28672  0.26689  1.0000
  H   H385      1.0  0.31670  0.31371  0.28096  1.0000
  H   H386      1.0  0.27285  0.12584  0.27292  1.0000
  C   C240      1.0  0.31577  0.26258  0.32999  1.0000
  H   H387      1.0  0.26814  0.18287  0.28905  1.0000
  H   H388      1.0  0.30887  0.24418  0.20607  1.0000
  N   N25       1.0  0.31181  0.27938  0.19794  1.0000
  C   C241      1.0  0.26248  0.15671  0.13843  1.0000
  C   C242      1.0  0.32621  0.13355  0.21176  1.0000
  C   C243      1.0  0.31562  0.15163  0.19804  1.0000
  C   C244      1.0  0.32198  0.17308  0.19565  1.0000
  C   C245      1.0  0.33882  0.17664  0.20711  1.0000
  C   C246      1.0  0.34956  0.15852  0.22068  1.0000
  C   C247      1.0  0.34343  0.13699  0.22279  1.0000
  H   H389      1.0  0.30265  0.14909  0.18908  1.0000
  H   H390      1.0  0.31381  0.18697  0.18487  1.0000
  H   H391      1.0  0.36272  0.16104  0.22939  1.0000
  H   H392      1.0  0.35184  0.12304  0.23329  1.0000
  C   C248      1.0  0.31285  0.04576  0.22269  1.0000
  H   H393      1.0  0.34281  0.27301  0.21149  1.0000
  H   H394      1.0  0.49653  0.18971  0.22545  1.0000
  H   H395      1.0  0.28230  0.18372  0.13314  1.0000
  S   S110      1.0  0.34625  0.20353  0.30981  1.0000
  N   N26       1.0  0.44862  0.27631  0.20551  1.0000
  C   C249      1.0  0.46384  0.29348  0.20059  1.0000
  C   C250      1.0  0.46172  0.25407  0.20229  1.0000
  C   C251      1.0  0.43162  0.28211  0.19004  1.0000
  C   C252      1.0  0.43729  0.27560  0.22915  1.0000
  C   C253      1.0  0.49264  0.20324  0.23556  1.0000
  H   H396      1.0  0.30391  0.15754  0.28190  1.0000
  H   H397      1.0  0.26827  0.14140  0.29637  1.0000
  H   H398      1.0  0.43947  0.28290  0.17202  1.0000
  C   C254      1.0  0.33117  0.24649  0.31919  1.0000
  H   H399      1.0  0.45097  0.24047  0.20698  1.0000
  C   C255      1.0  0.32552  0.31736  0.26400  1.0000
  H   H400      1.0  0.30850  0.14092  0.25933  1.0000
  C   C256      1.0  0.32623  0.22468  0.32075  1.0000
  H   H401      1.0  0.44958  0.27217  0.24129  1.0000
  H   H402      1.0  0.35065  0.00675  0.19726  1.0000
  H   H403      1.0  0.47270  0.29450  0.18289  1.0000
  C   C257      1.0  0.26564  0.14238  0.27852  1.0000
  H   H404      1.0  0.42629  0.26226  0.23371  1.0000
  H   H405      1.0  0.32001  0.27917  0.32947  1.0000
  Fe  Fe52      1.0  0.28342  0.10425  0.20878  1.0000
  H   H406      1.0  0.31037  0.31500  0.19712  1.0000
  H   H407      1.0  0.27989  0.17489  0.22839  1.0000
  C   C258      1.0  0.26845  0.17776  0.12823  1.0000
  H   H408      1.0  0.35341  0.02038  0.22049  1.0000
  H   H409      1.0  0.34320  0.25915  0.18768  1.0000
  H   H410      1.0  0.26692  0.30643  0.31521  1.0000
  H   H411      1.0  0.28553  0.28522  0.17730  1.0000
  S   S111      1.0  0.26100  0.08971  0.23890  1.0000
  H   H412      1.0  0.32147  0.00338  0.24392  1.0000
  H   H413      1.0  0.27298  0.30352  0.13851  1.0000
  H   H414      1.0  0.28402  0.26282  0.21518  1.0000
  N   N27       1.0  0.32004  0.02512  0.21209  1.0000
  H   H415      1.0  0.29057  0.03032  0.19602  1.0000
  H   H416      1.0  0.44847  0.23169  0.26626  1.0000
  H   H417      1.0  0.46970  0.25366  0.18442  1.0000
  H   H418      1.0  0.31006  0.26665  0.16743  1.0000
  C   C259      1.0  0.34465  0.02206  0.20552  1.0000
  C   C260      1.0  0.30383  0.30022  0.20808  1.0000
  H   H419      1.0  0.32095  0.04508  0.23790  1.0000
  H   H420      1.0  0.34721  0.25067  0.31041  1.0000
  C   C261      1.0  0.34896  0.32706  0.22052  1.0000
  C   C262      1.0  0.33657  0.27495  0.19502  1.0000
  H   H421      1.0  0.27964  0.14508  0.23405  1.0000
  H   H422      1.0  0.42644  0.29180  0.23194  1.0000
  H   H423      1.0  0.47689  0.28951  0.21202  1.0000
  C   C263      1.0  0.25648  0.19115  0.11177  1.0000
  H   H424      1.0  0.42120  0.29867  0.19223  1.0000
  S   S112      1.0  0.25719  0.13287  0.19876  1.0000
  C   C264      1.0  0.30418  0.28199  0.17567  1.0000
  H   H425      1.0  0.31044  0.29651  0.16399  1.0000
  H   H426      1.0  0.30877  0.17069  0.25300  1.0000
  H   H427      1.0  0.31411  0.04150  0.17883  1.0000
  C   C265      1.0  0.25672  0.31379  0.13861  1.0000
  H   H428      1.0  0.30930  0.29890  0.22490  1.0000
  C   C266      1.0  0.27218  0.16128  0.24021  1.0000
  C   C267      1.0  0.25214  0.01063  0.19386  1.0000
  H   H429      1.0  0.45447  0.31044  0.20296  1.0000
  H   H430      1.0  0.29502  0.00752  0.23386  1.0000
  H   H431      1.0  0.49520  0.17845  0.31086  1.0000
  C   C268      1.0  0.25205  0.00853  0.21719  1.0000
  S   S113      1.0  0.25107  0.03214  0.23101  1.0000
  Fe  Fe53      1.0  0.25177  0.06895  0.21550  1.0000
  C   C269      1.0  0.26003  0.32304  0.30632  1.0000
  H   H432      1.0  0.25397  0.16393  0.23885  1.0000
  Fe  Fe54      1.0  0.24779  0.10943  0.17858  1.0000
  H   H433      1.0  0.27134  0.32636  0.29007  1.0000
  H   H434      1.0  0.24722  0.14459  0.27823  1.0000
  H   H435      1.0  0.24726  0.18580  0.27079  1.0000
  C   C270      1.0  0.30544  0.21934  0.33219  1.0000
  C   C271      1.0  0.29657  0.23455  0.63780  1.0000
  H   H436      1.0  0.26731  0.27150  0.43338  1.0000
  H   H437      1.0  0.27200  0.23251  0.39143  1.0000
  C   C272      1.0  0.25647  0.15615  0.63944  1.0000
  H   H438      1.0  0.32644  0.31595  0.65185  1.0000
  H   H439      1.0  0.30201  0.21540  0.44132  1.0000
  N   N28       1.0  0.27845  0.23883  0.42325  1.0000
  H   H440      1.0  0.28660  0.27135  0.40734  1.0000
  C   C273      1.0  0.27238  0.26344  0.41779  1.0000
  H   H441      1.0  0.25337  0.23541  0.45278  1.0000
  H   H442      1.0  0.25815  0.26774  0.40787  1.0000
  C   C274      1.0  0.24831  0.30112  0.63843  1.0000
  N   N29       1.0  0.28924  0.21219  0.64142  1.0000
  C   C275      1.0  0.26451  0.21497  0.64365  1.0000
  C   C276      1.0  0.24854  0.30379  0.66091  1.0000
  H   H443      1.0  0.29299  0.20918  0.60608  1.0000
  C   C277      1.0  0.28968  0.23570  0.34217  1.0000
  H   H444      1.0  0.30022  0.23642  0.39153  1.0000
  H   H445      1.0  0.27406  0.16370  0.60567  1.0000
  H   H446      1.0  0.27364  0.23146  0.35080  1.0000
  H   H447      1.0  0.25830  0.19848  0.64733  1.0000
  H   H448      1.0  0.25638  0.22469  0.65756  1.0000
  H   H449      1.0  0.29211  0.24104  0.45302  1.0000
  C   C278      1.0  0.25878  0.22900  0.43628  1.0000
  C   C279      1.0  0.25831  0.16636  0.61680  1.0000
  H   H450      1.0  0.29526  0.18294  0.62479  1.0000
  S   S114      1.0  0.28055  0.14129  0.64995  1.0000
  H   H451      1.0  0.28855  0.32660  0.33375  1.0000
  H   H452      1.0  0.31210  0.24105  0.42752  1.0000
  C   C280      1.0  0.29929  0.20039  0.62193  1.0000
  H   H453      1.0  0.29056  0.21053  0.40532  1.0000
  C   C281      1.0  0.28566  0.22907  0.40202  1.0000
  H   H454      1.0  0.25835  0.22415  0.62788  1.0000
  H   H455      1.0  0.30157  0.20251  0.33331  1.0000
  H   H456      1.0  0.26244  0.21035  0.43998  1.0000
  S   S115      1.0  0.27698  0.27682  0.35676  1.0000
  H   H457      1.0  0.31521  0.19627  0.66117  1.0000
  H   H458      1.0  0.31789  0.19902  0.61907  1.0000
  H   H459      1.0  0.29150  0.24487  0.62197  1.0000
  C   C282      1.0  0.29700  0.23385  0.43688  1.0000
  H   H460      1.0  0.29745  0.32219  0.66372  1.0000
  S   S116      1.0  0.24814  0.27414  0.63195  1.0000
  H   H461      1.0  0.24920  0.31775  0.60405  1.0000
  C   C283      1.0  0.29510  0.25714  0.34163  1.0000
  H   H462      1.0  0.25050  0.31975  0.35180  1.0000
  C   C284      1.0  0.29662  0.19881  0.66226  1.0000
  H   H463      1.0  0.26911  0.01457  0.65125  1.0000
  C   C285      1.0  0.25999  0.99993  0.65298  1.0000
  H   H464      1.0  0.31510  0.23315  0.63651  1.0000
  H   H465      1.0  0.28882  0.24418  0.65190  1.0000
  H   H466      1.0  0.24972  0.00286  0.63901  1.0000
  C   C286      1.0  0.24920  0.31970  0.62144  1.0000
  C   C287      1.0  0.31486  0.32402  0.66539  1.0000
  H   H467      1.0  0.29144  0.18177  0.66528  1.0000
  H   H468      1.0  0.47205  0.22536  0.78721  1.0000
  H   H469      1.0  0.32679  0.21522  0.69167  1.0000
  H   H470      1.0  0.28928  0.20705  0.67741  1.0000
  H   H471      1.0  0.30481  0.30253  0.81589  1.0000
  S   S117      1.0  0.27676  0.11242  0.75111  1.0000
  Fe  Fe55      1.0  0.42315  0.25516  0.74328  1.0000
  S   S118      1.0  0.40540  0.27247  0.71398  1.0000
  S   S119      1.0  0.46044  0.24167  0.74231  1.0000
  Fe  Fe56      1.0  0.37936  0.25395  0.77580  1.0000
  S   S120      1.0  0.35813  0.27177  0.74978  1.0000
  S   S121      1.0  0.36487  0.23833  0.81038  1.0000
  Fe  Fe57      1.0  0.37968  0.24920  0.72675  1.0000
  S   S122      1.0  0.35951  0.23719  0.70446  1.0000
  Fe  Fe58      1.0  0.38502  0.29372  0.73912  1.0000
  S   S123      1.0  0.39926  0.22960  0.75361  1.0000
  S   S124      1.0  0.40442  0.27819  0.76764  1.0000
  C   C288      1.0  0.33812  0.16767  0.72904  1.0000
  Fe  Fe59      1.0  0.27781  0.09041  0.72470  1.0000
  C   C289      1.0  0.35148  0.21038  0.71404  1.0000
  C   C290      1.0  0.33463  0.20380  0.70470  1.0000
  C   C291      1.0  0.32789  0.18251  0.71225  1.0000
  H   H472      1.0  0.28549  0.25347  0.89168  1.0000
  H   H473      1.0  0.31495  0.17748  0.70503  1.0000
  H   H474      1.0  0.45470  0.24142  0.84496  1.0000
  C   C292      1.0  0.29477  0.27219  0.83592  1.0000
  C   C293      1.0  0.30973  0.28473  0.82097  1.0000
  C   C294      1.0  0.33111  0.27432  0.81257  1.0000
  C   C295      1.0  0.33788  0.25153  0.81986  1.0000
  C   C296      1.0  0.32301  0.23905  0.83503  1.0000
  C   C297      1.0  0.30128  0.24922  0.84263  1.0000
  H   H475      1.0  0.34259  0.28409  0.80099  1.0000
  H   H476      1.0  0.32831  0.22147  0.84085  1.0000
  H   H477      1.0  0.28984  0.23941  0.85412  1.0000
  C   C298      1.0  0.36160  0.19555  0.73088  1.0000
  C   C299      1.0  0.44177  0.23494  0.83804  1.0000
  C   C300      1.0  0.48105  0.25732  0.74605  1.0000
  H   H478      1.0  0.30981  0.19520  0.82624  1.0000
  H   H479      1.0  0.32263  0.28181  0.70925  1.0000
  H   H480      1.0  0.48226  0.23058  0.81148  1.0000
  N   N30       1.0  0.30551  0.19818  0.79136  1.0000
  C   C301      1.0  0.28723  0.21733  0.79329  1.0000
  C   C302      1.0  0.30705  0.18477  0.81394  1.0000
  C   C303      1.0  0.30079  0.18382  0.77598  1.0000
  H   H481      1.0  0.29777  0.24212  0.91689  1.0000
  H   H482      1.0  0.27081  0.21145  0.80025  1.0000
  H   H483      1.0  0.28552  0.22771  0.77654  1.0000
  H   H484      1.0  0.32657  0.21670  0.76513  1.0000
  Fe  Fe60      1.0  0.27646  0.13045  0.68755  1.0000
  H   H485      1.0  0.31373  0.16865  0.77502  1.0000
  H   H486      1.0  0.28429  0.17782  0.78179  1.0000
  H   H487      1.0  0.25111  0.13490  0.78403  1.0000
  H   H488      1.0  0.30056  0.19295  0.75846  1.0000
  S   S125      1.0  0.30499  0.10697  0.70143  1.0000
  H   H489      1.0  0.43183  0.22999  0.78584  1.0000
  H   H490      1.0  0.25101  0.28139  0.89347  1.0000
  C   C304      1.0  0.30463  0.32542  0.70539  1.0000
  C   C305      1.0  0.26329  0.25950  0.94608  1.0000
  H   H491      1.0  0.29136  0.17750  0.82094  1.0000
  C   C306      1.0  0.34358  0.31695  0.68955  1.0000
  N   N31       1.0  0.44635  0.23731  0.81308  1.0000
  N   N32       1.0  0.32042  0.31404  0.68811  1.0000
  H   H492      1.0  0.24811  0.99993  0.66910  1.0000
  H   H493      1.0  0.34119  0.19269  0.78080  1.0000
  H   H494      1.0  0.26174  0.32585  0.80166  1.0000
  S   S126      1.0  0.26833  0.28563  0.84670  1.0000
  H   H495      1.0  0.44912  0.26372  0.78485  1.0000
  H   H496      1.0  0.27205  0.23383  0.91308  1.0000
  H   H497      1.0  0.26072  0.14724  0.81726  1.0000
  H   H498      1.0  0.46031  0.26815  0.80883  1.0000
  C   C307      1.0  0.46837  0.22425  0.80596  1.0000
  Fe  Fe61      1.0  0.30119  0.13107  0.72634  1.0000
  C   C308      1.0  0.32699  0.20670  0.78229  1.0000
  H   H499      1.0  0.32107  0.17051  0.81321  1.0000
  H   H500      1.0  0.36307  0.16278  0.75118  1.0000
  H   H501      1.0  0.37479  0.20031  0.73796  1.0000
  H   H502      1.0  0.45980  0.28939  0.74431  1.0000
  N   N33       1.0  0.26865  0.26715  0.92152  1.0000
  C   C309      1.0  0.28159  0.24830  0.91031  1.0000
  H   H503      1.0  0.30888  0.31909  0.72272  1.0000
  C   C310      1.0  0.27601  0.00937  0.73617  1.0000
  S   S127      1.0  0.32960  0.14124  0.73968  1.0000
  C   C311      1.0  0.42865  0.22880  0.80461  1.0000
  C   C312      1.0  0.26888  0.03226  0.72901  1.0000
  C   C313      1.0  0.35500  0.17425  0.73828  1.0000
  C   C314      1.0  0.47633  0.28047  0.74661  1.0000
  H   H504      1.0  0.48928  0.31013  0.75045  1.0000
  H   H505      1.0  0.43043  0.27178  0.80914  1.0000
  H   H506      1.0  0.41186  0.23860  0.80921  1.0000
  H   H507      1.0  0.35599  0.30890  0.67656  1.0000
  H   H508      1.0  0.27873  0.25334  0.95400  1.0000
  S   S128      1.0  0.27471  0.15581  0.71073  1.0000
  H   H509      1.0  0.33106  0.21770  0.79339  1.0000
  H   H510      1.0  0.29027  0.22850  0.80481  1.0000
  H   H511      1.0  0.29803  0.28055  0.92477  1.0000
  H   H512      1.0  0.42762  0.21087  0.81163  1.0000
  H   H513      1.0  0.34657  0.31547  0.76682  1.0000
  H   H514      1.0  0.34843  0.30917  0.70633  1.0000
  S   S129      1.0  0.28232  0.05265  0.73682  1.0000
  H   H515      1.0  0.42512  0.24445  0.84387  1.0000
  C   C315      1.0  0.28200  0.28583  0.91771  1.0000
  H   H516      1.0  0.24781  0.28944  0.67413  1.0000
  C   C316      1.0  0.24804  0.15757  0.80806  1.0000
  H   H517      1.0  0.46893  0.20611  0.81300  1.0000
  C   C317      1.0  0.44657  0.26129  0.80364  1.0000
  C   C318      1.0  0.25171  0.07220  0.79322  1.0000
  H   H518      1.0  0.44157  0.21703  0.84573  1.0000
  H   H519      1.0  0.28625  0.29194  0.89928  1.0000
  C   C319      1.0  0.24763  0.27501  0.91185  1.0000
  H   H520      1.0  0.33069  0.28057  0.67971  1.0000
  H   H521      1.0  0.30147  0.28682  0.69095  1.0000
  H   H522      1.0  0.28704  0.32300  0.70529  1.0000
  H   H523      1.0  0.25030  0.32686  0.68365  1.0000
  H   H524      1.0  0.25618  0.29868  0.79872  1.0000
  H   H525      1.0  0.26611  0.06716  0.78023  1.0000
  C   C320      1.0  0.31863  0.28977  0.69216  1.0000
  H   H526      1.0  0.25348  0.27331  0.95511  1.0000
  Fe  Fe62      1.0  0.25032  0.13570  0.73385  1.0000
  H   H527      1.0  0.29000  0.00459  0.74560  1.0000
  H   H528      1.0  0.27264  0.30039  0.92586  1.0000
  C   C321      1.0  0.25069  0.03826  0.71697  1.0000
  C   C322      1.0  0.49305  0.29219  0.75012  1.0000
  H   H529      1.0  0.25820  0.32047  0.77452  1.0000
  H   H530      1.0  0.25458  0.06134  0.80948  1.0000
  H   H531      1.0  0.25305  0.24553  0.94948  1.0000
  H   H532      1.0  0.30700  0.32942  0.78076  1.0000
  H   H533      1.0  0.25240  0.08985  0.79523  1.0000
  S   S130      1.0  0.24929  0.11239  0.70905  1.0000
  C   C323      1.0  0.25198  0.31702  0.79295  1.0000
  C   C324      1.0  0.24988  0.32496  0.66636  1.0000
  C   C325      1.0  0.26540  0.50675  0.20767  1.0000
  C   C326      1.0  0.25953  0.46817  0.19038  1.0000
  C   C327      1.0  0.26181  0.42938  0.11348  1.0000
  Fe  Fe63      1.0  0.27001  0.61396  0.21383  1.0000
  S   S131      1.0  0.29414  0.58870  0.19541  1.0000
  S   S132      1.0  0.27661  0.63873  0.23479  1.0000
  Fe  Fe64      1.0  0.27708  0.60508  0.16548  1.0000
  S   S133      1.0  0.29678  0.61773  0.13232  1.0000
  Fe  Fe65      1.0  0.26637  0.56708  0.20325  1.0000
  C   C328      1.0  0.26246  0.50837  0.18503  1.0000
  H   H534      1.0  0.30546  0.65273  0.15578  1.0000
  H   H535      1.0  0.26269  0.52434  0.17407  1.0000
  C   C329      1.0  0.28072  0.34281  0.32483  1.0000
  H   H536      1.0  0.26246  0.45058  0.22391  1.0000
  C   C330      1.0  0.31869  0.33733  0.25007  1.0000
  C   C331      1.0  0.34818  0.64486  0.13425  1.0000
  H   H537      1.0  0.35783  0.62181  0.21242  1.0000
  Fe  Fe66      1.0  0.27336  0.37156  0.23478  1.0000
  H   H538      1.0  0.33558  0.64117  0.12473  1.0000
  H   H539      1.0  0.28464  0.39064  0.13204  1.0000
  S   S134      1.0  0.29628  0.35671  0.26043  1.0000
  C   C332      1.0  0.26739  0.39586  0.14060  1.0000
  S   S135      1.0  0.25469  0.63144  0.18346  1.0000
  S   S136      1.0  0.28387  0.38166  0.19767  1.0000
  H   H540      1.0  0.26078  0.38032  0.14949  1.0000
  C   C333      1.0  0.26530  0.48578  0.22157  1.0000
  H   H541      1.0  0.32515  0.35746  0.21748  1.0000
  H   H542      1.0  0.26758  0.48433  0.23909  1.0000
  C   C334      1.0  0.25954  0.48916  0.17646  1.0000
  N   N34       1.0  0.25269  0.40860  0.12440  1.0000
  C   C335      1.0  0.25743  0.64432  0.12317  1.0000
  H   H543      1.0  0.26884  0.40606  0.15369  1.0000
  H   H544      1.0  0.30974  0.65372  0.09789  1.0000
  C   C336      1.0  0.28085  0.64089  0.11815  1.0000
  C   C337      1.0  0.33018  0.34196  0.22818  1.0000
  H   H545      1.0  0.25871  0.36721  0.29146  1.0000
  S   S137      1.0  0.25594  0.44435  0.17891  1.0000
  H   H546      1.0  0.27909  0.42554  0.10434  1.0000
  C   C338      1.0  0.25166  0.39456  0.10712  1.0000
  S   S138      1.0  0.26833  0.53041  0.21975  1.0000
  H   H547      1.0  0.25118  0.43949  0.10112  1.0000
  H   H548      1.0  0.36263  0.64996  0.12172  1.0000
  C   C339      1.0  0.26236  0.46661  0.21301  1.0000
  C   C340      1.0  0.30423  0.64490  0.22965  1.0000
  C   C341      1.0  0.32208  0.62915  0.22201  1.0000
  C   C342      1.0  0.34405  0.63422  0.21806  1.0000
  H   H549      1.0  0.25747  0.49054  0.15890  1.0000
  C   C343      1.0  0.34830  0.65516  0.22139  1.0000
  S   S139      1.0  0.26966  0.33520  0.16928  1.0000
  H   H550      1.0  0.31904  0.61287  0.21957  1.0000
  S   S140      1.0  0.25010  0.34859  0.23042  1.0000
  H   H551      1.0  0.36225  0.65094  0.17183  1.0000
  S   S141      1.0  0.25152  0.58151  0.17151  1.0000
  N   N35       1.0  0.25816  0.34108  0.32027  1.0000
  H   H552      1.0  0.26267  0.44022  0.12629  1.0000
  H   H553      1.0  0.32420  0.63842  0.17490  1.0000
  C   C344      1.0  0.31921  0.65495  0.16468  1.0000
  Fe  Fe67      1.0  0.25850  0.36075  0.19341  1.0000
  Fe  Fe68      1.0  0.25500  0.40996  0.20058  1.0000
  C   C345      1.0  0.25055  0.33073  0.15242  1.0000
  S   S142      1.0  0.37609  0.66087  0.21548  1.0000
  H   H554      1.0  0.26856  0.38975  0.09757  1.0000
  H   H555      1.0  0.24890  0.63218  0.13522  1.0000
  C   C346      1.0  0.29169  0.65645  0.10215  1.0000
  H   H556      1.0  0.35415  0.62876  0.14467  1.0000
  H   H557      1.0  0.29217  0.34705  0.30882  1.0000
  H   H558      1.0  0.35821  0.33105  0.20381  1.0000
  C   C347      1.0  0.24844  0.36273  0.30811  1.0000
  H   H559      1.0  0.24729  0.37677  0.31795  1.0000
  N   N36       1.0  0.33843  0.66249  0.14852  1.0000
  H   H560      1.0  0.29490  0.65155  0.33075  1.0000
  S   S143      1.0  0.25710  0.36917  0.65477  1.0000
  H   H561      1.0  0.31590  0.34238  0.66190  1.0000
  H   H562      1.0  0.29723  0.52043  0.66405  1.0000
  C   C348      1.0  0.25136  0.34066  0.62677  1.0000
  C   C349      1.0  0.25185  0.34333  0.64919  1.0000
  H   H563      1.0  0.28580  0.54950  0.65667  1.0000
  H   H564      1.0  0.30721  0.65819  0.36578  1.0000
  H   H565      1.0  0.28007  0.35610  0.33546  1.0000
  H   H566      1.0  0.26693  0.65592  0.36545  1.0000
  H   H567      1.0  0.25302  0.35481  0.61342  1.0000
  H   H568      1.0  0.27653  0.51856  0.72578  1.0000
  S   S144      1.0  0.26089  0.40418  0.70281  1.0000
  C   C350      1.0  0.31542  0.33793  0.76534  1.0000
  H   H569      1.0  0.30498  0.34389  0.70228  1.0000
  H   H570      1.0  0.30617  0.38263  0.72430  1.0000
  S   S145      1.0  0.27580  0.36581  0.76321  1.0000
  C   C351      1.0  0.31494  0.36791  0.73350  1.0000
  C   C352      1.0  0.33749  0.36024  0.72583  1.0000
  C   C353      1.0  0.30393  0.35674  0.75328  1.0000
  C   C354      1.0  0.26310  0.55512  0.69780  1.0000
  C   C355      1.0  0.34882  0.34109  0.73764  1.0000
  H   H571      1.0  0.25702  0.64127  0.76744  1.0000
  H   H572      1.0  0.34607  0.36899  0.71063  1.0000
  H   H573      1.0  0.34558  0.33504  0.68724  1.0000
  Fe  Fe69      1.0  0.25488  0.38157  0.73607  1.0000
  H   H574      1.0  0.26462  0.57123  0.68620  1.0000
  C   C356      1.0  0.25285  0.65330  0.77924  1.0000
  H   H575      1.0  0.26349  0.50986  0.70512  1.0000
  H   H576      1.0  0.26218  0.55876  0.71532  1.0000
  H   H577      1.0  0.30589  0.56079  0.68442  1.0000
  C   C357      1.0  0.27875  0.51623  0.70765  1.0000
  N   N37       1.0  0.28208  0.53743  0.69237  1.0000
  S   S146      1.0  0.26391  0.63202  0.68657  1.0000
  H   H578      1.0  0.30269  0.54714  0.71322  1.0000
  C   C358      1.0  0.30312  0.54458  0.69539  1.0000
  H   H579      1.0  0.29317  0.50271  0.70476  1.0000
  H   H580      1.0  0.31790  0.53180  0.69120  1.0000
  C   C359      1.0  0.25423  0.65634  0.66871  1.0000
  S   S147      1.0  0.37639  0.33057  0.72694  1.0000
  H   H581      1.0  0.26742  0.52864  0.66598  1.0000
  C   C360      1.0  0.33777  0.32995  0.75739  1.0000
  C   C361      1.0  0.28324  0.53386  0.66869  1.0000
  Fe  Fe70      1.0  0.26571  0.77730  0.07434  1.0000
  S   S148      1.0  0.29758  0.77789  0.04963  1.0000
  H   H582      1.0  0.29472  0.67796  0.23940  1.0000
  Fe  Fe71      1.0  0.26232  0.72955  0.06973  1.0000
  S   S149      1.0  0.29372  0.72570  0.04458  1.0000
  C   C362      1.0  0.33071  0.68350  0.13402  1.0000
  Fe  Fe72      1.0  0.30754  0.74315  0.06791  1.0000
  S   S150      1.0  0.34171  0.72979  0.07815  1.0000
  S   S151      1.0  0.27697  0.74406  0.09421  1.0000
  C   C363      1.0  0.49413  0.76185  0.22053  1.0000
  C   C364      1.0  0.34813  0.72164  0.32373  1.0000
  S   S152      1.0  0.40351  0.75352  0.21080  1.0000
  S   S153      1.0  0.35956  0.72715  0.21533  1.0000
  Fe  Fe73      1.0  0.38486  0.74113  0.18771  1.0000
  S   S154      1.0  0.36850  0.76456  0.16026  1.0000
  Fe  Fe74      1.0  0.37955  0.73728  0.23854  1.0000
  S   S155      1.0  0.36303  0.76071  0.26339  1.0000
  H   H583      1.0  0.42419  0.75738  0.30421  1.0000
  S   S156      1.0  0.29143  0.88490  0.19857  1.0000
  H   H584      1.0  0.34468  0.68933  0.12121  1.0000
  H   H585      1.0  0.33362  0.68714  0.23169  1.0000
  C   C365      1.0  0.33044  0.67102  0.22894  1.0000
  C   C366      1.0  0.25901  0.85527  0.29187  1.0000
  S   S157      1.0  0.46196  0.70997  0.21530  1.0000
  H   H586      1.0  0.46168  0.75853  0.21287  1.0000
  C   C367      1.0  0.28055  0.84414  0.28542  1.0000
  C   C368      1.0  0.29040  0.82698  0.30071  1.0000
  C   C369      1.0  0.24860  0.83279  0.12260  1.0000
  H   H587      1.0  0.30710  0.81847  0.29583  1.0000
  C   C370      1.0  0.25506  0.96973  0.19640  1.0000
  C   C371      1.0  0.35092  0.75057  0.29086  1.0000
  C   C372      1.0  0.33537  0.76541  0.30301  1.0000
  C   C373      1.0  0.26155  0.68731  0.02298  1.0000
  H   H588      1.0  0.29614  0.71265  0.32825  1.0000
  C   C374      1.0  0.25762  0.83255  0.32912  1.0000
  C   C375      1.0  0.35714  0.72854  0.30112  1.0000
  H   H589      1.0  0.33068  0.78250  0.29518  1.0000
  H   H590      1.0  0.43687  0.74069  0.24662  1.0000
  H   H591      1.0  0.30711  0.67547  0.31524  1.0000
  H   H592      1.0  0.36918  0.71702  0.29184  1.0000
  C   C376      1.0  0.25583  0.67919  0.09681  1.0000
  C   C377      1.0  0.27937  0.80256  0.11746  1.0000
  C   C378      1.0  0.29011  0.81016  0.13272  1.0000
  C   C379      1.0  0.28036  0.82927  0.14266  1.0000
  C   C380      1.0  0.25487  0.96763  0.21975  1.0000
  H   H593      1.0  0.31742  0.68115  0.12456  1.0000
  H   H594      1.0  0.28707  0.78794  0.10965  1.0000
  Fe  Fe75      1.0  0.28091  0.76045  0.02843  1.0000
  H   H595      1.0  0.46169  0.75607  0.27954  1.0000
  H   H596      1.0  0.30928  0.83686  0.20992  1.0000
  C   C381      1.0  0.34796  0.73667  0.10315  1.0000
  C   C382      1.0  0.36974  0.73023  0.10860  1.0000
  C   C383      1.0  0.37576  0.73730  0.12730  1.0000
  C   C384      1.0  0.36002  0.75094  0.14054  1.0000
  C   C385      1.0  0.33793  0.75627  0.13587  1.0000
  C   C386      1.0  0.33187  0.74909  0.11727  1.0000
  H   H597      1.0  0.38222  0.72043  0.09785  1.0000
  H   H598      1.0  0.39288  0.73317  0.13074  1.0000
  H   H599      1.0  0.32561  0.76633  0.14644  1.0000
  H   H600      1.0  0.31494  0.75372  0.11349  1.0000
  Fe  Fe76      1.0  0.42465  0.71955  0.21290  1.0000
  S   S158      1.0  0.29544  0.83951  0.15988  1.0000
  Fe  Fe77      1.0  0.38411  0.69541  0.21623  1.0000
  H   H601      1.0  0.30605  0.80134  0.13676  1.0000
  N   N38       1.0  0.35208  0.81445  0.09092  1.0000
  C   C387      1.0  0.35738  0.83567  0.07678  1.0000
  C   C388      1.0  0.34868  0.81723  0.11509  1.0000
  C   C389      1.0  0.37081  0.79615  0.08661  1.0000
  C   C390      1.0  0.33143  0.80875  0.08517  1.0000
  H   H602      1.0  0.34355  0.84980  0.07979  1.0000
  H   H603      1.0  0.35989  0.83423  0.05844  1.0000
  H   H604      1.0  0.37295  0.84046  0.08056  1.0000
  H   H605      1.0  0.36373  0.82211  0.11987  1.0000
  H   H606      1.0  0.33412  0.83032  0.11924  1.0000
  H   H607      1.0  0.34548  0.80131  0.12630  1.0000
  H   H608      1.0  0.36719  0.77990  0.09694  1.0000
  H   H609      1.0  0.38665  0.79967  0.09100  1.0000
  H   H610      1.0  0.37386  0.79350  0.06857  1.0000
  H   H611      1.0  0.33342  0.80634  0.06711  1.0000
  H   H612      1.0  0.31687  0.82216  0.08818  1.0000
  H   H613      1.0  0.32693  0.79285  0.09552  1.0000
  C   C391      1.0  0.42495  0.73913  0.30357  1.0000
  C   C392      1.0  0.43899  0.70841  0.28217  1.0000
  H   H614      1.0  0.47203  0.73245  0.26482  1.0000
  H   H615      1.0  0.32091  0.78037  0.24330  1.0000
  S   S159      1.0  0.40181  0.70400  0.24247  1.0000
  Fe  Fe78      1.0  0.27480  0.86868  0.23186  1.0000
  C   C393      1.0  0.31935  0.79889  0.23799  1.0000
  S   S160      1.0  0.40833  0.70862  0.18675  1.0000
  H   H616      1.0  0.30125  0.80602  0.24066  1.0000
  C   C394      1.0  0.25933  0.84032  0.13797  1.0000
  H   H617      1.0  0.31992  0.77646  0.20330  1.0000
  S   S161      1.0  0.29573  0.85174  0.25863  1.0000
  H   H618      1.0  0.40732  0.73582  0.30532  1.0000
  C   C395      1.0  0.32597  0.75837  0.32534  1.0000
  C   C396      1.0  0.46140  0.73775  0.28038  1.0000
  H   H619      1.0  0.49063  0.78000  0.21900  1.0000
  H   H620      1.0  0.32759  0.80577  0.24978  1.0000
  H   H621      1.0  0.27813  0.67380  0.31496  1.0000
  H   H622      1.0  0.44834  0.70318  0.26597  1.0000
  C   C397      1.0  0.27883  0.82093  0.32240  1.0000
  Fe  Fe79      1.0  0.27463  0.86218  0.18373  1.0000
  S   S162      1.0  0.25998  0.84459  0.21707  1.0000
  H   H623      1.0  0.44743  0.69809  0.29615  1.0000
  N   N39       1.0  0.32963  0.80463  0.21420  1.0000
  C   C398      1.0  0.35366  0.79521  0.21158  1.0000
  C   C399      1.0  0.31836  0.79509  0.19916  1.0000
  C   C400      1.0  0.32722  0.82932  0.20806  1.0000
  H   H624      1.0  0.31217  0.66713  0.17670  1.0000
  H   H625      1.0  0.35594  0.77660  0.21582  1.0000
  H   H626      1.0  0.36267  0.80161  0.22304  1.0000
  H   H627      1.0  0.36203  0.79931  0.19387  1.0000
  C   C401      1.0  0.47767  0.74972  0.21708  1.0000
  H   H628      1.0  0.32585  0.79906  0.18110  1.0000
  H   H629      1.0  0.28781  0.68785  0.07984  1.0000
  H   H630      1.0  0.26510  0.66910  0.02138  1.0000
  H   H631      1.0  0.33457  0.83434  0.19017  1.0000
  H   H632      1.0  0.33537  0.83710  0.21921  1.0000
  H   H633      1.0  0.30021  0.80206  0.20043  1.0000
  C   C402      1.0  0.24772  0.84974  0.31384  1.0000
  N   N40       1.0  0.43829  0.73274  0.28228  1.0000
  C   C403      1.0  0.25338  0.98695  0.23006  1.0000
  H   H634      1.0  0.42746  0.76405  0.26200  1.0000
  H   H635      1.0  0.46970  0.72876  0.29500  1.0000
  H   H636      1.0  0.25164  0.85506  0.14561  1.0000
  H   H637      1.0  0.25367  0.99312  0.16548  1.0000
  H   H638      1.0  0.34880  0.67931  0.17257  1.0000
  C   C404      1.0  0.48210  0.72627  0.21885  1.0000
  S   S163      1.0  0.25649  0.94609  0.18253  1.0000
  C   C405      1.0  0.42774  0.74564  0.26293  1.0000
  H   H639      1.0  0.41009  0.74273  0.26421  1.0000
  C   C406      1.0  0.25883  0.81416  0.11202  1.0000
  H   H640      1.0  0.42182  0.70391  0.28413  1.0000
  H   H641      1.0  0.43220  0.72956  0.31862  1.0000
  Fe  Fe80      1.0  0.25922  0.90908  0.19803  1.0000
  C   C407      1.0  0.35565  0.66656  0.16109  1.0000
  H   H642      1.0  0.27517  0.69563  0.01190  1.0000
  H   H643      1.0  0.25331  0.98516  0.24813  1.0000
  C   C408      1.0  0.29162  0.67012  0.32584  1.0000
  S   S164      1.0  0.24822  0.76281  0.05199  1.0000
  C   C409      1.0  0.25362  0.99131  0.18355  1.0000
  H   H644      1.0  0.25140  0.86866  0.28021  1.0000
  H   H645      1.0  0.26273  0.68875  0.04079  1.0000
  H   H646      1.0  0.31825  0.98969  0.22086  1.0000
  H   H647      1.0  0.37019  0.67275  0.14946  1.0000
  C   C410      1.0  0.30845  0.66579  0.23329  1.0000
  H   H648      1.0  0.26686  0.71110  0.32854  1.0000
  H   H649      1.0  0.32374  0.69734  0.14415  1.0000
  C   C411      1.0  0.27923  0.67576  0.09181  1.0000
  H   H650      1.0  0.35328  0.70476  0.33184  1.0000
  H   H651      1.0  0.25595  0.95114  0.22985  1.0000
  H   H652      1.0  0.24858  0.73084  0.00872  1.0000
  H   H653      1.0  0.25607  0.68519  0.22479  1.0000
  Fe  Fe81      1.0  0.28854  0.74830  0.37619  1.0000
  H   H654      1.0  0.27647  0.71536  0.35346  1.0000
  H   H655      1.0  0.25249  0.96119  0.64188  1.0000
  Fe  Fe82      1.0  0.29582  0.75963  0.61974  1.0000
  N   N41       1.0  0.47168  0.80202  0.62390  1.0000
  S   S165      1.0  0.31862  0.74883  0.64653  1.0000
  Fe  Fe83      1.0  0.28309  0.76782  0.57175  1.0000
  Fe  Fe84      1.0  0.25406  0.79022  0.37187  1.0000
  S   S166      1.0  0.29724  0.76525  0.53468  1.0000
  H   H656      1.0  0.30268  0.96309  0.63040  1.0000
  C   C412      1.0  0.26861  0.67221  0.65935  1.0000
  C   C413      1.0  0.46460  0.78282  0.64040  1.0000
  H   H657      1.0  0.45396  0.77340  0.63344  1.0000
  S   S167      1.0  0.29255  0.79054  0.59349  1.0000
  S   S168      1.0  0.28976  0.73653  0.59697  1.0000
  H   H658      1.0  0.44068  0.80864  0.61004  1.0000
  S   S169      1.0  0.40001  0.80058  0.64580  1.0000
  C   C414      1.0  0.37048  0.77100  0.66487  1.0000
  C   C415      1.0  0.26317  0.81851  0.44366  1.0000
  C   C416      1.0  0.35240  0.75967  0.66480  1.0000
  C   C417      1.0  0.30348  0.67654  0.35989  1.0000
  H   H659      1.0  0.31921  0.68230  0.35029  1.0000
  S   S170      1.0  0.28050  0.77851  0.39459  1.0000
  C   C418      1.0  0.26564  0.87405  0.64709  1.0000
  H   H660      1.0  0.30096  0.99308  0.62839  1.0000
  C   C419      1.0  0.48528  0.81418  0.63421  1.0000
  C   C420      1.0  0.27266  0.69396  0.56908  1.0000
  S   S171      1.0  0.26478  0.76223  0.35126  1.0000
  C   C421      1.0  0.28186  0.76569  0.51224  1.0000
  C   C422      1.0  0.29344  0.76035  0.49126  1.0000
  C   C423      1.0  0.28179  0.75971  0.47327  1.0000
  H   H661      1.0  0.47923  0.77090  0.64594  1.0000
  C   C424      1.0  0.26453  0.67433  0.35948  1.0000
  Fe  Fe85      1.0  0.25598  0.79421  0.60826  1.0000
  H   H662      1.0  0.31155  0.75654  0.48895  1.0000
  H   H663      1.0  0.29094  0.75544  0.45728  1.0000
  H   H664      1.0  0.25500  0.81223  0.46093  1.0000
  H   H665      1.0  0.27138  0.80338  0.43582  1.0000
  N   N42       1.0  0.27560  0.97855  0.65284  1.0000
  C   C425      1.0  0.25847  0.77074  0.51493  1.0000
  C   C426      1.0  0.45161  0.81740  0.61741  1.0000
  C   C427      1.0  0.25837  0.76424  0.47618  1.0000
  C   C428      1.0  0.26103  0.69183  0.64522  1.0000
  H   H666      1.0  0.32813  0.87756  0.66026  1.0000
  C   C429      1.0  0.29082  0.97909  0.63107  1.0000
  H   H667      1.0  0.27963  0.69007  0.52464  1.0000
  H   H668      1.0  0.27220  0.70405  0.63820  1.0000
  H   H669      1.0  0.28555  0.71695  0.52832  1.0000
  C   C430      1.0  0.25821  0.84075  0.40731  1.0000
  C   C431      1.0  0.26737  0.84706  0.62134  1.0000
  C   C432      1.0  0.27704  0.86307  0.62902  1.0000
  H   H670      1.0  0.26146  0.71543  0.51588  1.0000
  H   H671      1.0  0.37079  0.80265  0.61288  1.0000
  H   H672      1.0  0.45621  0.83204  0.60484  1.0000
  H   H673      1.0  0.27623  0.83872  0.60734  1.0000
  H   H674      1.0  0.29341  0.86691  0.62093  1.0000
  S   S172      1.0  0.32141  0.72783  0.36410  1.0000
  H   H675      1.0  0.35150  0.84095  0.65145  1.0000
  H   H676      1.0  0.26662  0.82653  0.39820  1.0000
  S   S173      1.0  0.27830  0.89376  0.65666  1.0000
  S   S174      1.0  0.25987  0.76492  0.63568  1.0000
  Fe  Fe86      1.0  0.25357  0.74452  0.61102  1.0000
  C   C433      1.0  0.37729  0.78634  0.64606  1.0000
  H   H677      1.0  0.47561  0.82066  0.64966  1.0000
  S   S175      1.0  0.26446  0.72863  0.40058  1.0000
  C   C434      1.0  0.34080  0.76388  0.64611  1.0000
  C   C435      1.0  0.34730  0.77960  0.62751  1.0000
  C   C436      1.0  0.36564  0.79070  0.62743  1.0000
  H   H678      1.0  0.31035  0.84536  0.65667  1.0000
  Fe  Fe87      1.0  0.25422  0.75995  0.41706  1.0000
  H   H679      1.0  0.33847  0.78288  0.61302  1.0000
  H   H680      1.0  0.45452  0.78865  0.65586  1.0000
  H   H681      1.0  0.27993  0.67646  0.56641  1.0000
  H   H682      1.0  0.44107  0.82410  0.63235  1.0000
  H   H683      1.0  0.29914  0.68525  0.37512  1.0000
  H   H684      1.0  0.27123  0.85107  0.40829  1.0000
  H   H685      1.0  0.28689  0.70334  0.56843  1.0000
  H   H686      1.0  0.26312  0.69325  0.58656  1.0000
  H   H687      1.0  0.24934  0.77540  0.53076  1.0000
  N   N43       1.0  0.28517  0.68177  0.34593  1.0000
  C   C437      1.0  0.48519  0.79360  0.60361  1.0000
  H   H688      1.0  0.27661  0.82791  0.44558  1.0000
  H   H689      1.0  0.26122  0.73811  0.55667  1.0000
  H   H690      1.0  0.47537  0.78431  0.59549  1.0000
  H   H691      1.0  0.27384  0.94316  0.65600  1.0000
  H   H692      1.0  0.49099  0.82879  0.62231  1.0000
  H   H693      1.0  0.28130  0.98143  0.61656  1.0000
  C   C438      1.0  0.26266  0.95963  0.65576  1.0000
  N   N44       1.0  0.25818  0.70487  0.55192  1.0000
  H   H694      1.0  0.25909  0.68307  0.37464  1.0000
  C   C439      1.0  0.27179  0.70683  0.52920  1.0000
  H   H695      1.0  0.24719  0.67405  0.54885  1.0000
  H   H696      1.0  0.49084  0.80764  0.59076  1.0000
  H   H697      1.0  0.28561  0.66939  0.66311  1.0000
  H   H698      1.0  0.28661  0.80773  0.33413  1.0000
  C   C440      1.0  0.24805  0.72754  0.55694  1.0000
  H   H699      1.0  0.25026  0.67827  0.34955  1.0000
  C   C441      1.0  0.28101  0.70628  0.33858  1.0000
  C   C442      1.0  0.33251  0.73657  0.33584  1.0000
  H   H700      1.0  0.24820  0.86256  0.44355  1.0000
  H   H701      1.0  0.31412  0.77004  0.33461  1.0000
  Fe  Fe88      1.0  0.45257  0.79477  0.70236  1.0000
  H   H702      1.0  0.25735  0.69042  0.70855  1.0000
  H   H703      1.0  0.26286  0.78705  0.94866  1.0000
  H   H704      1.0  0.34752  0.74744  0.67914  1.0000
  H   H705      1.0  0.35481  0.74268  0.73987  1.0000
  Fe  Fe89      1.0  0.41017  0.77857  0.72933  1.0000
  S   S176      1.0  0.39618  0.75103  0.75456  1.0000
  S   S177      1.0  0.43247  0.80185  0.73587  1.0000
  H   H706      1.0  0.37206  0.83793  0.75472  1.0000
  Fe  Fe90      1.0  0.28912  0.76372  0.83445  1.0000
  S   S178      1.0  0.29845  0.72770  0.84870  1.0000
  S   S179      1.0  0.31321  0.78851  0.82205  1.0000
  H   H707      1.0  0.33086  0.75667  0.72702  1.0000
  S   S180      1.0  0.48995  0.78771  0.68973  1.0000
  S   S181      1.0  0.38690  0.80535  0.71116  1.0000
  Fe  Fe91      1.0  0.26834  0.73400  0.87519  1.0000
  H   H708      1.0  0.31315  0.87913  0.68821  1.0000
  Fe  Fe92      1.0  0.27457  0.72043  0.82751  1.0000
  H   H709      1.0  0.25106  0.70411  0.98129  1.0000
  S   S182      1.0  0.26806  0.75614  0.81105  1.0000
  H   H710      1.0  0.33197  0.84433  0.77206  1.0000
  H   H711      1.0  0.32845  0.69319  0.76960  1.0000
  Fe  Fe93      1.0  0.41063  0.82807  0.71508  1.0000
  C   C443      1.0  0.27529  0.73462  0.93339  1.0000
  C   C444      1.0  0.26750  0.75765  0.93207  1.0000
  C   C445      1.0  0.26889  0.76920  0.94987  1.0000
  C   C446      1.0  0.27763  0.75781  0.96939  1.0000
  C   C447      1.0  0.28544  0.73477  0.97073  1.0000
  C   C448      1.0  0.28436  0.72328  0.95276  1.0000
  Fe  Fe94      1.0  0.41061  0.79834  0.67994  1.0000
  H   H712      1.0  0.29277  0.72596  0.98537  1.0000
  H   H713      1.0  0.29067  0.70550  0.95380  1.0000
  H   H714      1.0  0.29548  0.73966  0.73546  1.0000
  C   C449      1.0  0.33611  0.74553  0.74234  1.0000
  C   C450      1.0  0.37427  0.76149  0.77442  1.0000
  C   C451      1.0  0.36144  0.74657  0.78906  1.0000
  C   C452      1.0  0.34253  0.75479  0.80356  1.0000
  C   C453      1.0  0.33697  0.77790  0.80417  1.0000
  C   C454      1.0  0.35046  0.79271  0.79034  1.0000
  C   C455      1.0  0.36887  0.78457  0.77517  1.0000
  H   H715      1.0  0.36598  0.72868  0.78890  1.0000
  H   H716      1.0  0.33243  0.74319  0.81435  1.0000
  H   H717      1.0  0.34657  0.81051  0.79120  1.0000
  H   H718      1.0  0.37899  0.79612  0.76421  1.0000
  C   C456      1.0  0.33258  0.89105  0.73253  1.0000
  C   C457      1.0  0.36108  0.85272  0.74851  1.0000
  C   C458      1.0  0.33849  0.85633  0.75831  1.0000
  H   H719      1.0  0.27084  0.97503  0.73694  1.0000
  H   H720      1.0  0.35360  0.70606  0.76410  1.0000
  H   H721      1.0  0.29478  0.71269  0.75306  1.0000
  S   S183      1.0  0.27890  0.92373  0.70731  1.0000
  C   C459      1.0  0.32421  0.87537  0.75023  1.0000
  S   S184      1.0  0.43185  0.76932  0.69754  1.0000
  C   C460      1.0  0.30218  0.72859  0.75011  1.0000
  C   C461      1.0  0.33495  0.70960  0.76625  1.0000
  H   H722      1.0  0.32171  0.90596  0.72649  1.0000
  S   S185      1.0  0.29591  0.87904  0.76230  1.0000
  N   N45       1.0  0.32983  0.84612  0.68268  1.0000
  H   H723      1.0  0.28284  0.83484  0.79296  1.0000
  S   S186      1.0  0.25953  0.87540  0.72082  1.0000
  H   H724      1.0  0.26022  0.76655  0.91742  1.0000
  S   S187      1.0  0.28490  0.69582  0.80230  1.0000
  C   C462      1.0  0.26403  0.68092  0.79814  1.0000
  S   S188      1.0  0.27425  0.71931  0.91135  1.0000
  H   H725      1.0  0.37941  0.76757  0.67930  1.0000
  C   C463      1.0  0.26908  0.66586  0.78227  1.0000
  H   H726      1.0  0.32911  0.71762  0.78180  1.0000
  H   H727      1.0  0.31086  0.82109  0.67799  1.0000
  H   H728      1.0  0.32836  0.69599  0.72863  1.0000
  N   N46       1.0  0.33078  0.76397  0.89009  1.0000
  C   C464      1.0  0.34128  0.74918  0.87307  1.0000
  C   C465      1.0  0.34287  0.78351  0.88702  1.0000
  C   C466      1.0  0.33164  0.75126  0.91309  1.0000
  C   C467      1.0  0.30716  0.77195  0.88711  1.0000
  H   H729      1.0  0.35930  0.74326  0.87439  1.0000
  H   H730      1.0  0.34025  0.75807  0.85552  1.0000
  H   H731      1.0  0.33283  0.73402  0.87523  1.0000
  H   H732      1.0  0.33527  0.79510  0.89950  1.0000
  H   H733      1.0  0.36081  0.77817  0.88913  1.0000
  H   H734      1.0  0.34241  0.79336  0.86976  1.0000
  H   H735      1.0  0.32334  0.76176  0.92637  1.0000
  H   H736      1.0  0.34920  0.74515  0.91615  1.0000
  H   H737      1.0  0.32277  0.73630  0.91571  1.0000
  H   H738      1.0  0.29853  0.78285  0.89989  1.0000
  H   H739      1.0  0.29770  0.75757  0.88887  1.0000
  H   H740      1.0  0.30579  0.78192  0.87011  1.0000
  C   C468      1.0  0.32949  0.83813  0.70714  1.0000
  H   H741      1.0  0.34425  0.84226  0.71313  1.0000
  N   N47       1.0  0.32695  0.72406  0.74619  1.0000
  H   H742      1.0  0.29593  0.73691  0.76544  1.0000
  C   C469      1.0  0.36954  0.86854  0.73100  1.0000
  Fe  Fe95      1.0  0.27299  0.89830  0.73836  1.0000
  H   H743      1.0  0.27642  0.80913  0.78692  1.0000
  H   H744      1.0  0.36192  0.90018  0.70982  1.0000
  C   C470      1.0  0.35533  0.88783  0.72321  1.0000
  S   S189      1.0  0.27941  0.77329  0.99104  1.0000
  H   H745      1.0  0.31421  0.84612  0.71733  1.0000
  C   C471      1.0  0.33455  0.71250  0.72611  1.0000
  S   S190      1.0  0.39758  0.86421  0.71825  1.0000
  Fe  Fe96      1.0  0.26206  0.90227  0.69090  1.0000
  H   H746      1.0  0.32839  0.72271  0.71072  1.0000
  H   H747      1.0  0.33004  0.81958  0.71108  1.0000
  S   S191      1.0  0.26045  0.77076  0.86190  1.0000
  H   H748      1.0  0.33042  0.75491  0.75700  1.0000
  H   H749      1.0  0.48704  0.80527  0.73220  1.0000
  H   H750      1.0  0.35320  0.70928  0.72244  1.0000
  C   C472      1.0  0.27151  0.82771  0.78443  1.0000
  S   S192      1.0  0.43264  0.82316  0.68237  1.0000
  H   H751      1.0  0.27502  0.83412  0.76605  1.0000
  C   C473      1.0  0.31047  0.83965  0.67509  1.0000
  H   H752      1.0  0.36587  0.84079  0.67492  1.0000
  H   H753      1.0  0.27801  0.97449  0.68827  1.0000
  H   H754      1.0  0.25284  0.86695  0.79839  1.0000
  H   H755      1.0  0.25083  0.95885  0.67193  1.0000
  H   H756      1.0  0.25305  0.72103  0.73207  1.0000
  H   H757      1.0  0.35264  0.81719  0.67338  1.0000
  H   H758      1.0  0.29427  0.84738  0.68402  1.0000
  H   H759      1.0  0.30120  0.95978  0.67176  1.0000
  H   H760      1.0  0.24818  0.80698  0.82124  1.0000
  H   H761      1.0  0.25439  0.83274  0.82749  1.0000
  C   C474      1.0  0.26517  0.99258  0.73130  1.0000
  N   N48       1.0  0.24768  0.83417  0.79359  1.0000
  C   C475      1.0  0.32857  0.87086  0.67848  1.0000
  C   C476      1.0  0.28894  0.97553  0.67156  1.0000
  H   H762      1.0  0.34323  0.87624  0.68357  1.0000
  C   C477      1.0  0.35086  0.83585  0.67005  1.0000
  H   H763      1.0  0.29841  0.98983  0.67034  1.0000
  H   H764      1.0  0.28573  0.66347  0.77271  1.0000
  Fe  Fe97      1.0  0.70342  0.09219  0.25702  1.0000
  S   S193      1.0  0.67316  0.10151  0.23949  1.0000
  Fe  Fe98      1.0  0.56282  0.23458  0.25063  1.0000
  S   S194      1.0  0.59102  0.25225  0.23023  1.0000
  Fe  Fe99      1.0  0.59448  0.19618  0.27110  1.0000
  S   S195      1.0  0.62525  0.20983  0.25282  1.0000
  S   S196      1.0  0.59857  0.16378  0.29482  1.0000
  Fe  Fe100     1.0  0.60760  0.24310  0.26154  1.0000
  Fe  Fe101     1.0  0.60714  0.21781  0.22276  1.0000
  S   S197      1.0  0.62940  0.20823  0.19110  1.0000
  S   S198      1.0  0.57812  0.22870  0.28280  1.0000
  S   S199      1.0  0.57756  0.20088  0.24036  1.0000
  S   S200      1.0  0.73658  0.07698  0.23985  1.0000
  S   S201      1.0  0.72317  0.28393  0.13594  1.0000
  S   S202      1.0  0.71635  0.12008  0.26788  1.0000
  S   S203      1.0  0.72160  0.25790  0.09284  1.0000
  H   H765      1.0  0.60873  0.23945  0.31090  1.0000
  Fe  Fe102     1.0  0.70020  0.28535  0.11058  1.0000
  S   S204      1.0  0.66310  0.29030  0.12249  1.0000
  H   H766      1.0  0.70376  0.31421  0.31275  1.0000
  S   S205      1.0  0.71406  0.31374  0.08660  1.0000
  C   C478      1.0  0.69078  0.18036  0.18724  1.0000
  Fe  Fe103     1.0  0.73722  0.28630  0.07042  1.0000
  C   C479      1.0  0.54081  0.16252  0.27324  1.0000
  C   C480      1.0  0.65394  0.26744  0.14152  1.0000
  C   C481      1.0  0.63431  0.27094  0.15698  1.0000
  C   C482      1.0  0.62680  0.25287  0.17237  1.0000
  C   C483      1.0  0.63857  0.23114  0.17198  1.0000
  C   C484      1.0  0.65788  0.22758  0.15606  1.0000
  C   C485      1.0  0.66583  0.24576  0.14116  1.0000
  H   H767      1.0  0.62494  0.28765  0.15717  1.0000
  H   H768      1.0  0.61161  0.25570  0.18415  1.0000
  H   H769      1.0  0.66671  0.21080  0.15514  1.0000
  H   H770      1.0  0.68083  0.24292  0.12905  1.0000
  C   C486      1.0  0.65172  0.11756  0.25542  1.0000
  C   C487      1.0  0.63515  0.13191  0.24458  1.0000
  C   C488      1.0  0.61881  0.14606  0.25675  1.0000
  C   C489      1.0  0.61837  0.14518  0.28000  1.0000
  C   C490      1.0  0.63453  0.13032  0.29105  1.0000
  C   C491      1.0  0.65150  0.11685  0.27865  1.0000
  H   H771      1.0  0.63531  0.13254  0.22661  1.0000
  H   H772      1.0  0.60645  0.15751  0.24808  1.0000
  C   C492      1.0  0.72207  0.32061  0.26900  1.0000
  H   H773      1.0  0.70418  0.17990  0.17231  1.0000
  H   H774      1.0  0.69707  0.24860  0.00828  1.0000
  C   C493      1.0  0.67923  0.16612  0.22632  1.0000
  C   C494      1.0  0.50485  0.23263  0.25089  1.0000
  C   C495      1.0  0.71975  0.26644  0.01940  1.0000
  C   C496      1.0  0.67630  0.19642  0.30009  1.0000
  H   H775      1.0  0.66760  0.27156  0.29014  1.0000
  H   H776      1.0  0.71250  0.26356  0.03704  1.0000
  H   H777      1.0  0.67878  0.25875  0.32850  1.0000
  C   C497      1.0  0.50458  0.17315  0.29477  1.0000
  H   H778      1.0  0.69810  0.15423  0.30721  1.0000
  H   H779      1.0  0.67618  0.18315  0.23146  1.0000
  C   C498      1.0  0.50982  0.21481  0.23826  1.0000
  H   H780      1.0  0.63962  0.17878  0.29873  1.0000
  H   H781      1.0  0.53237  0.20469  0.28216  1.0000
  H   H782      1.0  0.69469  0.19581  0.29933  1.0000
  H   H783      1.0  0.69708  0.29339  0.29848  1.0000
  C   C499      1.0  0.71824  0.16967  0.21284  1.0000
  H   H784      1.0  0.66423  0.10571  0.28711  1.0000
  Fe  Fe104     1.0  0.72197  0.09590  0.29918  1.0000
  C   C500      1.0  0.53588  0.19158  0.29681  1.0000
  N   N49       1.0  0.69747  0.16434  0.20696  1.0000
  N   N50       1.0  0.52910  0.17004  0.29467  1.0000
  Fe  Fe105     1.0  0.74621  0.25939  0.11608  1.0000
  H   H785      1.0  0.55370  0.15014  0.31410  1.0000
  C   C501      1.0  0.65716  0.26188  0.30305  1.0000
  H   H786      1.0  0.73242  0.16812  0.19867  1.0000
  S   S206      1.0  0.70553  0.06944  0.28981  1.0000
  H   H787      1.0  0.53662  0.17504  0.25836  1.0000
  H   H788      1.0  0.65578  0.32324  0.15665  1.0000
  H   H789      1.0  0.55937  0.16010  0.27262  1.0000
  H   H790      1.0  0.63683  0.16418  0.32717  1.0000
  S   S207      1.0  0.52560  0.24839  0.25383  1.0000
  H   H791      1.0  0.71464  0.13940  0.18637  1.0000
  C   C502      1.0  0.66350  0.25463  0.32465  1.0000
  C   C503      1.0  0.67961  0.15592  0.30777  1.0000
  H   H792      1.0  0.53616  0.14628  0.27104  1.0000
  Fe  Fe106     1.0  0.73867  0.31031  0.11085  1.0000
  Fe  Fe107     1.0  0.74009  0.05621  0.27392  1.0000
  H   H793      1.0  0.63422  0.12955  0.30904  1.0000
  S   S208      1.0  0.63002  0.26485  0.27080  1.0000
  C   C504      1.0  0.73779  0.27861  0.01281  1.0000
  C   C505      1.0  0.70154  0.14120  0.20140  1.0000
  H   H794      1.0  0.52679  0.21032  0.23009  1.0000
  C   C506      1.0  0.68397  0.32207  0.26251  1.0000
  H   H795      1.0  0.72029  0.32007  0.15928  1.0000
  H   H796      1.0  0.68699  0.19796  0.19104  1.0000
  C   C507      1.0  0.63748  0.25625  0.29798  1.0000
  H   H797      1.0  0.73027  0.02085  0.24505  1.0000
  C   C508      1.0  0.73447  0.00341  0.25215  1.0000
  H   H798      1.0  0.53028  0.13645  0.31290  1.0000
  H   H799      1.0  0.67624  0.15483  0.29057  1.0000
  H   H800      1.0  0.72373  0.15794  0.22774  1.0000
  H   H801      1.0  0.70739  0.12875  0.21566  1.0000
  H   H802      1.0  0.71598  0.18710  0.21684  1.0000
  C   C509      1.0  0.69339  0.31153  0.30036  1.0000
  H   H803      1.0  0.67276  0.19685  0.28262  1.0000
  N   N51       1.0  0.66807  0.17714  0.31563  1.0000
  H   H804      1.0  0.68598  0.13617  0.19785  1.0000
  H   H805      1.0  0.66800  0.21263  0.30571  1.0000
  H   H806      1.0  0.67528  0.17656  0.18224  1.0000
  H   H807      1.0  0.55414  0.18963  0.29759  1.0000
  C   C510      1.0  0.62403  0.24363  0.31460  1.0000
  C   C511      1.0  0.71102  0.25800  0.00306  1.0000
  H   H808      1.0  0.66312  0.16323  0.22190  1.0000
  H   H809      1.0  0.68301  0.15344  0.24120  1.0000
  H   H810      1.0  0.72646  0.30268  0.26646  1.0000
  C   C512      1.0  0.53523  0.15293  0.31388  1.0000
  H   H811      1.0  0.52686  0.19825  0.31238  1.0000
  H   H812      1.0  0.68415  0.32006  0.14296  1.0000
  H   H813      1.0  0.68725  0.30426  0.25943  1.0000
  H   H814      1.0  0.72080  0.03198  0.32378  1.0000
  H   H815      1.0  0.49939  0.18639  0.28083  1.0000
  C   C513      1.0  0.74453  0.13135  0.32729  1.0000
  H   H816      1.0  0.67545  0.31502  0.30794  1.0000
  H   H817      1.0  0.73326  0.32377  0.28044  1.0000
  C   C514      1.0  0.74502  0.99796  0.27147  1.0000
  C   C515      1.0  0.64367  0.17864  0.31594  1.0000
  N   N52       1.0  0.69817  0.32602  0.27843  1.0000
  H   H818      1.0  0.66580  0.32590  0.26913  1.0000
  H   H819      1.0  0.67396  0.14099  0.31926  1.0000
  H   H820      1.0  0.52697  0.15818  0.33037  1.0000
  H   H821      1.0  0.63433  0.19427  0.32206  1.0000
  H   H822      1.0  0.49886  0.15743  0.29254  1.0000
  C   C516      1.0  0.74662  0.15018  0.65657  1.0000
  C   C517      1.0  0.71569  0.13638  0.35951  1.0000
  C   C518      1.0  0.71564  0.17977  0.64990  1.0000
  H   H823      1.0  0.70039  0.13197  0.36991  1.0000
  S   S209      1.0  0.72867  0.27789  0.58314  1.0000
  C   C519      1.0  0.72472  0.12562  0.34065  1.0000
  H   H824      1.0  0.69087  0.17735  0.33889  1.0000
  Fe  Fe108     1.0  0.70399  0.25432  0.59880  1.0000
  S   S210      1.0  0.66791  0.26930  0.60663  1.0000
  H   H825      1.0  0.73533  0.99915  0.36409  1.0000
  S   S211      1.0  0.71895  0.22763  0.57704  1.0000
  H   H826      1.0  0.72860  0.20411  0.53587  1.0000
  H   H827      1.0  0.72474  0.05939  0.37272  1.0000
  Fe  Fe109     1.0  0.71755  0.23336  0.41367  1.0000
  H   H828      1.0  0.67434  0.22512  0.63316  1.0000
  C   C520      1.0  0.65555  0.25832  0.63365  1.0000
  Fe  Fe110     1.0  0.69177  0.23402  0.37488  1.0000
  S   S212      1.0  0.72251  0.23160  0.34903  1.0000
  S   S213      1.0  0.65709  0.23236  0.36840  1.0000
  S   S214      1.0  0.70810  0.23702  0.45095  1.0000
  H   H829      1.0  0.54238  0.25906  0.65233  1.0000
  C   C521      1.0  0.72698  0.31915  0.34747  1.0000
  C   C522      1.0  0.66214  0.23606  0.64298  1.0000
  S   S215      1.0  0.70584  0.20602  0.39998  1.0000
  S   S216      1.0  0.70132  0.26154  0.38987  1.0000
  C   C523      1.0  0.73922  0.19071  0.52687  1.0000
  H   H830      1.0  0.72785  0.31580  0.45403  1.0000
  C   C524      1.0  0.74122  0.32264  0.40933  1.0000
  Fe  Fe111     1.0  0.73376  0.25619  0.36646  1.0000
  C   C525      1.0  0.63947  0.27227  0.64632  1.0000
  H   H831      1.0  0.71626  0.30987  0.36047  1.0000
  H   H832      1.0  0.69428  0.24473  0.49651  1.0000
  S   S217      1.0  0.72263  0.23843  0.62744  1.0000
  Fe  Fe112     1.0  0.74545  0.24979  0.56349  1.0000
  H   H833      1.0  0.70781  0.19370  0.63896  1.0000
  H   H834      1.0  0.63435  0.28950  0.63910  1.0000
  H   H835      1.0  0.71933  0.16108  0.37964  1.0000
  H   H836      1.0  0.61938  0.22740  0.34919  1.0000
  H   H837      1.0  0.70173  0.28856  0.43117  1.0000
  H   H838      1.0  0.68101  0.29827  0.63404  1.0000
  H   H839      1.0  0.71948  0.03151  0.38524  1.0000
  H   H840      1.0  0.68922  0.32420  0.63742  1.0000
  H   H841      1.0  0.74309  0.28330  0.39500  1.0000
  C   C526      1.0  0.71229  0.24433  0.49304  1.0000
  H   H842      1.0  0.71455  0.25114  0.52630  1.0000
  H   H843      1.0  0.73858  0.26670  0.42244  1.0000
  C   C527      1.0  0.72635  0.15291  0.36499  1.0000
  H   H844      1.0  0.66363  0.19304  0.34544  1.0000
  C   C528      1.0  0.73616  0.30054  0.44650  1.0000
  H   H845      1.0  0.66735  0.16290  0.35073  1.0000
  C   C529      1.0  0.72374  0.24797  0.50997  1.0000
  C   C530      1.0  0.74648  0.15822  0.35204  1.0000
  H   H846      1.0  0.54574  0.28746  0.65368  1.0000
  C   C531      1.0  0.72384  0.24044  0.47165  1.0000
  H   H847      1.0  0.71007  0.30005  0.63317  1.0000
  H   H848      1.0  0.70422  0.02760  0.35112  1.0000
  H   H849      1.0  0.68410  0.26557  0.66392  1.0000
  Fe  Fe113     1.0  0.74032  0.21416  0.60432  1.0000
  Fe  Fe114     1.0  0.73761  0.20579  0.37515  1.0000
  N   N53       1.0  0.73768  0.03397  0.35146  1.0000
  H   H850      1.0  0.71306  0.26746  0.66386  1.0000
  C   C532      1.0  0.73687  0.16857  0.64251  1.0000
  C   C533      1.0  0.70851  0.30395  0.42172  1.0000
  C   C534      1.0  0.63005  0.23688  0.33628  1.0000
  H   H851      1.0  0.73446  0.17942  0.57209  1.0000
  C   C535      1.0  0.69285  0.30560  0.64170  1.0000
  H   H852      1.0  0.73911  0.32432  0.39119  1.0000
  C   C536      1.0  0.74494  0.28225  0.41312  1.0000
  H   H853      1.0  0.73417  0.15502  0.55946  1.0000
  H   H854      1.0  0.72783  0.17983  0.52323  1.0000
  C   C537      1.0  0.73202  0.04121  0.37404  1.0000
  H   H855      1.0  0.70519  0.30579  0.40398  1.0000
  H   H856      1.0  0.69863  0.31861  0.42930  1.0000
  N   N54       1.0  0.73271  0.30237  0.42267  1.0000
  C   C538      1.0  0.65243  0.22771  0.66484  1.0000
  C   C539      1.0  0.74514  0.16681  0.56210  1.0000
  C   C540      1.0  0.71714  0.03741  0.34082  1.0000
  C   C541      1.0  0.53882  0.27235  0.66347  1.0000
  H   H857      1.0  0.70953  0.05545  0.33870  1.0000
  H   H858      1.0  0.72902  0.28596  0.45716  1.0000
  S   S218      1.0  0.71091  0.10509  0.33415  1.0000
  C   C542      1.0  0.67267  0.17760  0.33867  1.0000
  C   C543      1.0  0.64984  0.24218  0.34130  1.0000
  Fe  Fe115     1.0  0.70059  0.27537  0.87978  1.0000
  S   S219      1.0  0.73304  0.27011  0.85629  1.0000
  S   S220      1.0  0.66714  0.29098  0.86946  1.0000
  Fe  Fe116     1.0  0.72134  0.25802  0.92243  1.0000
  H   H859      1.0  0.52026  0.27695  0.66708  1.0000
  S   S221      1.0  0.70866  0.25092  0.96003  1.0000
  H   H860      1.0  0.61415  0.28775  0.94267  1.0000
  S   S222      1.0  0.63921  0.32934  0.72391  1.0000
  H   H861      1.0  0.70228  0.32166  0.83488  1.0000
  C   C544      1.0  0.70413  0.17249  0.67128  1.0000
  S   S223      1.0  0.71446  0.29263  0.90298  1.0000
  S   S224      1.0  0.70542  0.24119  0.90027  1.0000
  Fe  Fe117     1.0  0.61214  0.25713  0.72798  1.0000
  S   S225      1.0  0.62503  0.23108  0.70512  1.0000
  Fe  Fe118     1.0  0.61324  0.26196  0.77654  1.0000
  S   S226      1.0  0.62985  0.24008  0.80466  1.0000
  S   S227      1.0  0.58907  0.24859  0.76010  1.0000
  C   C545      1.0  0.51468  0.28096  0.75292  1.0000
  H   H862      1.0  0.68759  0.18094  0.67686  1.0000
  H   H863      1.0  0.65176  0.29644  0.92368  1.0000
  Fe  Fe119     1.0  0.73917  0.23718  0.87897  1.0000
  H   H864      1.0  0.72298  0.05162  0.75696  1.0000
  Fe  Fe120     1.0  0.61786  0.30226  0.73957  1.0000
  C   C546      1.0  0.63682  0.24182  0.67775  1.0000
  H   H865      1.0  0.67525  0.27458  0.92409  1.0000
  C   C547      1.0  0.63943  0.25828  0.91705  1.0000
  H   H866      1.0  0.68150  0.29165  0.79677  1.0000
  H   H867      1.0  0.58110  0.25294  0.69475  1.0000
  H   H868      1.0  0.66292  0.28510  0.94972  1.0000
  H   H869      1.0  0.69193  0.28935  0.82305  1.0000
  H   H870      1.0  0.67084  0.23595  0.94202  1.0000
  H   H871      1.0  0.65498  0.29987  0.66959  1.0000
  C   C548      1.0  0.72045  0.17196  0.82394  1.0000
  C   C549      1.0  0.70837  0.18720  0.83808  1.0000
  C   C550      1.0  0.71966  0.19854  0.84988  1.0000
  H   H872      1.0  0.53591  0.24892  0.75478  1.0000
  S   S228      1.0  0.53534  0.29665  0.75639  1.0000
  H   H873      1.0  0.69025  0.19000  0.84015  1.0000
  H   H874      1.0  0.71024  0.21002  0.86100  1.0000
  C   C551      1.0  0.65628  0.27623  0.85234  1.0000
  C   C552      1.0  0.63795  0.28678  0.84152  1.0000
  C   C553      1.0  0.63006  0.27600  0.82645  1.0000
  C   C554      1.0  0.63996  0.25427  0.82279  1.0000
  C   C555      1.0  0.65800  0.24353  0.83400  1.0000
  C   C556      1.0  0.66635  0.25459  0.84852  1.0000
  H   H875      1.0  0.68057  0.24634  0.85671  1.0000
  H   H876      1.0  0.61599  0.28430  0.81805  1.0000
  H   H877      1.0  0.66569  0.22670  0.83122  1.0000
  C   C557      1.0  0.66767  0.30602  0.67706  1.0000
  C   C558      1.0  0.71400  0.15432  0.68549  1.0000
  C   C559      1.0  0.74388  0.16829  0.82140  1.0000
  H   H878      1.0  0.57778  0.24471  0.66872  1.0000
  S   S229      1.0  0.59434  0.29209  0.71977  1.0000
  H   H879      1.0  0.70967  0.01810  0.74861  1.0000
  C   C560      1.0  0.74306  0.19432  0.84786  1.0000
  C   C561      1.0  0.57318  0.25862  0.67912  1.0000
  S   S230      1.0  0.70592  0.15736  0.81002  1.0000
  H   H880      1.0  0.63158  0.27352  0.90667  1.0000
  H   H881      1.0  0.66268  0.18814  0.72653  1.0000
  H   H882      1.0  0.58108  0.27322  0.66953  1.0000
  S   S231      1.0  0.59531  0.29755  0.77296  1.0000
  Fe  Fe121     1.0  0.57293  0.28455  0.75354  1.0000
  C   C562      1.0  0.63056  0.26420  0.66856  1.0000
  H   H883      1.0  0.62546  0.27624  0.96837  1.0000
  S   S232      1.0  0.73626  0.15750  0.75016  1.0000
  C   C563      1.0  0.72014  0.26176  0.98005  1.0000
  H   H884      1.0  0.70359  0.32717  0.67243  1.0000
  C   C564      1.0  0.65901  0.28075  0.93387  1.0000
  H   H885      1.0  0.62995  0.30346  0.84453  1.0000
  C   C565      1.0  0.73532  0.14324  0.67815  1.0000
  N   N55       1.0  0.54861  0.26460  0.68459  1.0000
  H   H886      1.0  0.52518  0.28765  0.70349  1.0000
  H   H887      1.0  0.61076  0.25957  0.95590  1.0000
  H   H888      1.0  0.55064  0.29815  0.68998  1.0000
  C   C566      1.0  0.70677  0.30847  0.67585  1.0000
  C   C567      1.0  0.73817  0.27392  0.97349  1.0000
  C   C568      1.0  0.51939  0.25778  0.75242  1.0000
  H   H889      1.0  0.54230  0.23059  0.68692  1.0000
  S   S233      1.0  0.63738  0.26775  0.74474  1.0000
  C   C569      1.0  0.62260  0.27214  0.95200  1.0000
  N   N56       1.0  0.69037  0.32225  0.80346  1.0000
  C   C570      1.0  0.67438  0.20160  0.77501  1.0000
  H   H890      1.0  0.67103  0.22024  0.77083  1.0000
  H   H891      1.0  0.69284  0.19619  0.77229  1.0000
  H   H892      1.0  0.66857  0.19735  0.79350  1.0000
  H   H893      1.0  0.66175  0.16073  0.78632  1.0000
  H   H894      1.0  0.68577  0.15968  0.76487  1.0000
  H   H895      1.0  0.65710  0.21032  0.67180  1.0000
  N   N57       1.0  0.66284  0.19048  0.76150  1.0000
  C   C571      1.0  0.66749  0.16585  0.76799  1.0000
  H   H896      1.0  0.68938  0.19081  0.73317  1.0000
  S   S234      1.0  0.69960  0.14582  0.71240  1.0000
  H   H897      1.0  0.61868  0.27525  0.67846  1.0000
  Fe  Fe122     1.0  0.72731  0.13754  0.78408  1.0000
  C   C572      1.0  0.72465  0.01599  0.75643  1.0000
  H   H898      1.0  0.63170  0.19410  0.78416  1.0000
  Fe  Fe123     1.0  0.72327  0.13092  0.73719  1.0000
  H   H899      1.0  0.65874  0.24636  0.96780  1.0000
  C   C573      1.0  0.65468  0.24290  0.95163  1.0000
  N   N58       1.0  0.64391  0.26350  0.93863  1.0000
  C   C574      1.0  0.63843  0.19806  0.76589  1.0000
  H   H900      1.0  0.66758  0.21485  0.73154  1.0000
  C   C575      1.0  0.67103  0.19640  0.73714  1.0000
  H   H901      1.0  0.63445  0.21658  0.76114  1.0000
  C   C576      1.0  0.50263  0.24604  0.74901  1.0000
  H   H902      1.0  0.65921  0.15682  0.75805  1.0000
  S   S235      1.0  0.71233  0.11189  0.77132  1.0000
  C   C577      1.0  0.69386  0.29748  0.80512  1.0000
  C   C578      1.0  0.73216  0.03503  0.76114  1.0000
  C   C579      1.0  0.54358  0.28278  0.69876  1.0000
  H   H903      1.0  0.62915  0.19008  0.75595  1.0000
  H   H904      1.0  0.50639  0.22809  0.74873  1.0000
  H   H905      1.0  0.71099  0.29100  0.79718  1.0000
  H   H906      1.0  0.65519  0.25181  0.90648  1.0000
  H   H907      1.0  0.55081  0.27749  0.71479  1.0000
  H   H908      1.0  0.62809  0.24532  0.91990  1.0000
  H   H909      1.0  0.52034  0.24862  0.70168  1.0000
  H   H910      1.0  0.54600  0.23835  0.71311  1.0000
  H   H911      1.0  0.64379  0.22949  0.95573  1.0000
  H   H912      1.0  0.66515  0.29971  0.69552  1.0000
  C   C580      1.0  0.53888  0.24466  0.69710  1.0000
  H   H913      1.0  0.71250  0.32621  0.77177  1.0000
  H   H914      1.0  0.72340  0.32368  0.81020  1.0000
  H   H915      1.0  0.69363  0.26759  0.68974  1.0000
  H   H916      1.0  0.74533  0.27694  0.95583  1.0000
  H   H917      1.0  0.72438  0.30302  0.66829  1.0000
  H   H918      1.0  0.70542  0.30355  0.69452  1.0000
  H   H919      1.0  0.66295  0.32366  0.83080  1.0000
  H   H920      1.0  0.68325  0.32850  0.76926  1.0000
  H   H921      1.0  0.65482  0.32493  0.80349  1.0000
  H   H922      1.0  0.74284  0.12894  0.68885  1.0000
  H   H923      1.0  0.73917  0.32749  0.84535  1.0000
  C   C581      1.0  0.69561  0.27366  0.67123  1.0000
  N   N59       1.0  0.69072  0.29844  0.66644  1.0000
  C   C582      1.0  0.70550  0.32909  0.81670  1.0000
  H   H924      1.0  0.66373  0.32470  0.67506  1.0000
  C   C583      1.0  0.67132  0.63525  0.25362  1.0000
  H   H925      1.0  0.65454  0.37260  0.16341  1.0000
  S   S236      1.0  0.71751  0.41267  0.25573  1.0000
  C   C584      1.0  0.65094  0.64612  0.26383  1.0000
  S   S237      1.0  0.71124  0.36861  0.21728  1.0000
  C   C585      1.0  0.74082  0.65466  0.32833  1.0000
  C   C586      1.0  0.68205  0.64530  0.23307  1.0000
  C   C587      1.0  0.70836  0.46143  0.32854  1.0000
  Fe  Fe124     1.0  0.73210  0.38864  0.23114  1.0000
  S   S238      1.0  0.73235  0.59451  0.27439  1.0000
  H   H926      1.0  0.69680  0.36130  0.26560  1.0000
  C   C588      1.0  0.73937  0.51306  0.23815  1.0000
  C   C589      1.0  0.72294  0.36019  0.19097  1.0000
  C   C590      1.0  0.68675  0.36359  0.12870  1.0000
  H   H927      1.0  0.69320  0.46053  0.28919  1.0000
  S   S239      1.0  0.73865  0.62774  0.32305  1.0000
  Fe  Fe125     1.0  0.73339  0.61938  0.24242  1.0000
  H   H928      1.0  0.72780  0.43541  0.29720  1.0000
  C   C591      1.0  0.65774  0.34867  0.11611  1.0000
  H   H929      1.0  0.69321  0.36781  0.14329  1.0000
  S   S240      1.0  0.72640  0.38297  0.31428  1.0000
  C   C592      1.0  0.73979  0.34713  0.14824  1.0000
  H   H930      1.0  0.67849  0.61887  0.26138  1.0000
  H   H931      1.0  0.72517  0.65988  0.14705  1.0000
  H   H932      1.0  0.72378  0.51770  0.23124  1.0000
  H   H933      1.0  0.68711  0.33289  0.24582  1.0000
  C   C593      1.0  0.69332  0.34989  0.28182  1.0000
  H   H934      1.0  0.68396  0.37938  0.11663  1.0000
  H   H935      1.0  0.68783  0.48866  0.29631  1.0000
  S   S241      1.0  0.70712  0.63164  0.21972  1.0000
  H   H936      1.0  0.73746  0.49526  0.28759  1.0000
  H   H937      1.0  0.70834  0.48188  0.27274  1.0000
  C   C594      1.0  0.73806  0.37228  0.17581  1.0000
  C   C595      1.0  0.71661  0.34130  0.18492  1.0000
  C   C596      1.0  0.72521  0.33465  0.16371  1.0000
  H   H938      1.0  0.70037  0.35202  0.12005  1.0000
  C   C597      1.0  0.72974  0.48891  0.30500  1.0000
  H   H939      1.0  0.71762  0.50310  0.31123  1.0000
  H   H940      1.0  0.67546  0.35464  0.28895  1.0000
  H   H941      1.0  0.66440  0.65287  0.32573  1.0000
  H   H942      1.0  0.64243  0.63808  0.27948  1.0000
  N   N60       1.0  0.66602  0.35327  0.13610  1.0000
  N   N61       1.0  0.71869  0.46912  0.30522  1.0000
  C   C598      1.0  0.64876  0.36882  0.14822  1.0000
  H   H943      1.0  0.65361  0.36434  0.10427  1.0000
  Fe  Fe126     1.0  0.74595  0.43210  0.24028  1.0000
  C   C599      1.0  0.73548  0.45074  0.29703  1.0000
  H   H944      1.0  0.69999  0.65480  0.30033  1.0000
  H   H945      1.0  0.64471  0.38509  0.13718  1.0000
  H   H946      1.0  0.64248  0.34025  0.12108  1.0000
  H   H947      1.0  0.74341  0.48482  0.31565  1.0000
  H   H948      1.0  0.63294  0.36146  0.15406  1.0000
  C   C600      1.0  0.70119  0.47530  0.29030  1.0000
  Fe  Fe127     1.0  0.74156  0.39244  0.27795  1.0000
  H   H949      1.0  0.74153  0.65877  0.20345  1.0000
  H   H950      1.0  0.70384  0.35353  0.29359  1.0000
  S   S242      1.0  0.73592  0.47002  0.23303  1.0000
  H   H951      1.0  0.67049  0.33716  0.10649  1.0000
  H   H952      1.0  0.74098  0.54701  0.24311  1.0000
  H   H953      1.0  0.71519  0.65876  0.17677  1.0000
  H   H954      1.0  0.70004  0.44641  0.32920  1.0000
  C   C601      1.0  0.73456  0.35432  0.32363  1.0000
  H   H955      1.0  0.74331  0.45580  0.27936  1.0000
  C   C602      1.0  0.67082  0.33197  0.15141  1.0000
  H   H956      1.0  0.67652  0.33480  0.16699  1.0000
  H   H957      1.0  0.74291  0.38698  0.18026  1.0000
  H   H958      1.0  0.72615  0.33108  0.25229  1.0000
  C   C603      1.0  0.74634  0.36584  0.15443  1.0000
  S   S243      1.0  0.74586  0.64527  0.25695  1.0000
  H   H959      1.0  0.74322  0.62516  0.18458  1.0000
  H   H960      1.0  0.70505  0.33178  0.19668  1.0000
  H   H961      1.0  0.70521  0.35099  0.34867  1.0000
  C   C604      1.0  0.72079  0.34236  0.34081  1.0000
  H   H962      1.0  0.69550  0.47482  0.33531  1.0000
  C   C605      1.0  0.73894  0.65840  0.35077  1.0000
  H   H963      1.0  0.72117  0.45662  0.34017  1.0000
  H   H964      1.0  0.73221  0.33823  0.41583  1.0000
  H   H965      1.0  0.73692  0.64460  0.36446  1.0000
  H   H966      1.0  0.73656  0.66246  0.65881  1.0000
  S   S244      1.0  0.70769  0.48793  0.75321  1.0000
  H   H967      1.0  0.70661  0.57835  0.70305  1.0000
  C   C606      1.0  0.71607  0.45295  0.84803  1.0000
  H   H968      1.0  0.73417  0.54441  0.69727  1.0000
  C   C607      1.0  0.64430  0.34800  0.74094  1.0000
  H   H969      1.0  0.70469  0.47773  0.80858  1.0000
  H   H970      1.0  0.69168  0.53347  0.76023  1.0000
  C   C608      1.0  0.70866  0.48681  0.82149  1.0000
  Fe  Fe128     1.0  0.73886  0.40508  0.74603  1.0000
  S   S245      1.0  0.71129  0.61338  0.76354  1.0000
  H   H971      1.0  0.73841  0.50146  0.84105  1.0000
  Fe  Fe129     1.0  0.74045  0.59759  0.78158  1.0000
  H   H972      1.0  0.74404  0.47630  0.86076  1.0000
  Fe  Fe130     1.0  0.70541  0.63893  0.78731  1.0000
  H   H973      1.0  0.61815  0.34000  0.76835  1.0000
  C   C609      1.0  0.71796  0.54545  0.77238  1.0000
  C   C610      1.0  0.73131  0.48628  0.85048  1.0000
  S   S246      1.0  0.72637  0.38478  0.77879  1.0000
  H   H974      1.0  0.66363  0.34888  0.81113  1.0000
  Fe  Fe131     1.0  0.71678  0.44994  0.76114  1.0000
  S   S247      1.0  0.70557  0.42635  0.74187  1.0000
  H   H975      1.0  0.67131  0.35987  0.71651  1.0000
  Fe  Fe132     1.0  0.69386  0.40763  0.77579  1.0000
  S   S248      1.0  0.66139  0.39329  0.78634  1.0000
  H   H976      1.0  0.72840  0.44192  0.85813  1.0000
  S   S249      1.0  0.70198  0.43289  0.79485  1.0000
  H   H977      1.0  0.71453  0.60133  0.71325  1.0000
  C   C611      1.0  0.70846  0.52929  0.76464  1.0000
  C   C612      1.0  0.63166  0.34983  0.76223  1.0000
  C   C613      1.0  0.63631  0.36468  0.77554  1.0000
  C   C614      1.0  0.65401  0.37729  0.76793  1.0000
  C   C615      1.0  0.66655  0.37558  0.74656  1.0000
  C   C616      1.0  0.66157  0.36109  0.73304  1.0000
  H   H978      1.0  0.73813  0.58061  0.67124  1.0000
  H   H979      1.0  0.62645  0.36607  0.79200  1.0000
  H   H980      1.0  0.68019  0.38527  0.74052  1.0000
  C   C617      1.0  0.74409  0.36245  0.83703  1.0000
  H   H981      1.0  0.71163  0.44237  0.83674  1.0000
  S   S250      1.0  0.73214  0.64334  0.70538  1.0000
  H   H982      1.0  0.74185  0.45611  0.80670  1.0000
  N   N62       1.0  0.72545  0.47284  0.83487  1.0000
  H   H983      1.0  0.71632  0.49221  0.86236  1.0000
  H   H984      1.0  0.70843  0.56187  0.77414  1.0000
  H   H985      1.0  0.67868  0.65438  0.75403  1.0000
  H   H986      1.0  0.70064  0.45785  0.85984  1.0000
  C   C618      1.0  0.71761  0.58271  0.71394  1.0000
  S   S251      1.0  0.72681  0.66227  0.76457  1.0000
  Fe  Fe133     1.0  0.73562  0.41163  0.79473  1.0000
  H   H987      1.0  0.69368  0.35097  0.77785  1.0000
  C   C619      1.0  0.72034  0.50765  0.76294  1.0000
  C   C620      1.0  0.69519  0.33235  0.77951  1.0000
  Fe  Fe134     1.0  0.73522  0.63543  0.74244  1.0000
  H   H988      1.0  0.71199  0.57528  0.73166  1.0000
  C   C621      1.0  0.74199  0.50241  0.76867  1.0000
  S   S252      1.0  0.73226  0.62119  0.80778  1.0000
  H   H989      1.0  0.73095  0.36723  0.82660  1.0000
  C   C622      1.0  0.73954  0.54017  0.77828  1.0000
  H   H990      1.0  0.69265  0.49188  0.83242  1.0000
  H   H991      1.0  0.70291  0.34771  0.81601  1.0000
  S   S253      1.0  0.67268  0.65768  0.80143  1.0000
  H   H992      1.0  0.71480  0.50251  0.81226  1.0000
  H   H993      1.0  0.74035  0.54147  0.72554  1.0000
  N   N63       1.0  0.74151  0.57456  0.70659  1.0000
  C   C623      1.0  0.74481  0.54982  0.70789  1.0000
  C   C624      1.0  0.74583  0.46534  0.81949  1.0000
  H   H994      1.0  0.74572  0.60370  0.68154  1.0000
  C   C625      1.0  0.66691  0.33023  0.81257  1.0000
  C   C626      1.0  0.73532  0.96346  0.25050  1.0000
  N   N64       1.0  0.56699  0.75684  0.15980  1.0000
  S   S254      1.0  0.71826  0.85367  0.32329  1.0000
  C   C627      1.0  0.72517  0.78772  0.31993  1.0000
  H   H995      1.0  0.70033  0.92195  0.21778  1.0000
  H   H996      1.0  0.55432  0.78496  0.17788  1.0000
  H   H997      1.0  0.72200  0.99064  0.22647  1.0000
  Fe  Fe135     1.0  0.70793  0.86701  0.24260  1.0000
  S   S255      1.0  0.68295  0.85823  0.22352  1.0000
  S   S256      1.0  0.72960  0.84064  0.26263  1.0000
  Fe  Fe136     1.0  0.57139  0.75359  0.23558  1.0000
  S   S257      1.0  0.58451  0.74261  0.26893  1.0000
  S   S258      1.0  0.53548  0.76683  0.22910  1.0000
  Fe  Fe137     1.0  0.61835  0.75068  0.20873  1.0000
  S   S259      1.0  0.63557  0.73917  0.23934  1.0000
  S   S260      1.0  0.63490  0.75880  0.17274  1.0000
  Fe  Fe138     1.0  0.60872  0.71721  0.25073  1.0000
  Fe  Fe139     1.0  0.61061  0.76531  0.25522  1.0000
  S   S261      1.0  0.62402  0.78486  0.27705  1.0000
  S   S262      1.0  0.59362  0.72617  0.21855  1.0000
  S   S263      1.0  0.59542  0.77884  0.22368  1.0000
  C   C628      1.0  0.71043  0.73491  0.16180  1.0000
  C   C629      1.0  0.69702  0.72621  0.18137  1.0000
  C   C630      1.0  0.67382  0.73336  0.18470  1.0000
  C   C631      1.0  0.66388  0.74920  0.16845  1.0000
  C   C632      1.0  0.67725  0.75765  0.14866  1.0000
  C   C633      1.0  0.70053  0.75055  0.14535  1.0000
  H   H998      1.0  0.66362  0.72627  0.19967  1.0000
  H   H999      1.0  0.66961  0.76975  0.13592  1.0000
  H   H1000     1.0  0.71072  0.75701  0.12999  1.0000
  C   C634      1.0  0.70622  0.82114  0.17181  1.0000
  C   C635      1.0  0.69751  0.78608  0.19417  1.0000
  C   C636      1.0  0.66644  0.83809  0.23861  1.0000
  C   C637      1.0  0.65469  0.82728  0.22685  1.0000
  C   C638      1.0  0.64188  0.81069  0.23847  1.0000
  C   C639      1.0  0.64007  0.80547  0.26202  1.0000
  C   C640      1.0  0.65133  0.81675  0.27384  1.0000
  C   C641      1.0  0.66485  0.83273  0.26215  1.0000
  H   H1001     1.0  0.65557  0.83161  0.20870  1.0000
  H   H1002     1.0  0.63314  0.80220  0.22924  1.0000
  H   H1003     1.0  0.70532  0.68062  0.28249  1.0000
  C   C642      1.0  0.64170  0.66742  0.25393  1.0000
  H   H1004     1.0  0.67806  0.96317  0.18997  1.0000
  C   C643      1.0  0.55808  0.76818  0.13895  1.0000
  C   C644      1.0  0.74346  0.67257  0.31073  1.0000
  C   C645      1.0  0.51955  0.72728  0.22747  1.0000
  C   C646      1.0  0.51514  0.75071  0.22571  1.0000
  H   H1005     1.0  0.65635  0.69861  0.27758  1.0000
  C   C647      1.0  0.73220  0.78695  0.16845  1.0000
  H   H1006     1.0  0.70738  0.76542  0.29502  1.0000
  H   H1007     1.0  0.53562  0.71847  0.23149  1.0000
  H   H1008     1.0  0.73507  0.77108  0.31713  1.0000
  S   S264      1.0  0.70168  0.89098  0.26789  1.0000
  H   H1009     1.0  0.68509  0.79461  0.20678  1.0000
  H   H1010     1.0  0.57664  0.76590  0.18891  1.0000
  S   S265      1.0  0.72953  0.94259  0.23617  1.0000
  H   H1011     1.0  0.67356  0.84131  0.27135  1.0000
  Fe  Fe140     1.0  0.72636  0.86589  0.28614  1.0000
  H   H1012     1.0  0.67978  0.78137  0.29755  1.0000
  C   C648      1.0  0.57030  0.77394  0.17296  1.0000
  H   H1013     1.0  0.71470  0.81353  0.21468  1.0000
  H   H1014     1.0  0.58281  0.78471  0.16343  1.0000
  H   H1015     1.0  0.64518  0.69363  0.22538  1.0000
  C   C649      1.0  0.65242  0.67741  0.23333  1.0000
  H   H1016     1.0  0.73447  0.78824  0.21197  1.0000
  H   H1017     1.0  0.65525  0.95697  0.25135  1.0000
  C   C650      1.0  0.66650  0.94201  0.24567  1.0000
  H   H1018     1.0  0.66014  0.92669  0.25564  1.0000
  H   H1019     1.0  0.66559  0.97813  0.21326  1.0000
  H   H1020     1.0  0.54172  0.77898  0.14297  1.0000
  N   N65       1.0  0.67414  0.68308  0.30523  1.0000
  H   H1021     1.0  0.68326  0.94228  0.25033  1.0000
  C   C651      1.0  0.64528  0.94172  0.21570  1.0000
  C   C652      1.0  0.68305  0.92202  0.21435  1.0000
  C   C653      1.0  0.69776  0.78212  0.29798  1.0000
  H   H1022     1.0  0.55697  0.73400  0.18958  1.0000
  H   H1023     1.0  0.69395  0.83129  0.18332  1.0000
  N   N66       1.0  0.66786  0.94211  0.22107  1.0000
  H   H1024     1.0  0.68427  0.92125  0.19599  1.0000
  H   H1025     1.0  0.70455  0.71387  0.19402  1.0000
  H   H1026     1.0  0.67727  0.90622  0.22378  1.0000
  C   C654      1.0  0.58870  0.74274  0.15375  1.0000
  H   H1027     1.0  0.64570  0.94183  0.19726  1.0000
  H   H1028     1.0  0.69360  0.96338  0.21237  1.0000
  C   C655      1.0  0.74337  0.69426  0.31565  1.0000
  H   H1029     1.0  0.50670  0.69702  0.22539  1.0000
  C   C656      1.0  0.50312  0.71517  0.22398  1.0000
  H   H1030     1.0  0.53434  0.75273  0.17848  1.0000
  S   S266      1.0  0.61758  0.68193  0.26819  1.0000
  C   C657      1.0  0.72679  0.80409  0.20242  1.0000
  H   H1031     1.0  0.69435  0.82350  0.30829  1.0000
  H   H1032     1.0  0.67602  0.71469  0.28333  1.0000
  H   H1033     1.0  0.63329  0.95656  0.22067  1.0000
  H   H1034     1.0  0.70418  0.76926  0.20281  1.0000
  C   C658      1.0  0.67658  0.96261  0.20859  1.0000
  H   H1035     1.0  0.56986  0.77911  0.12823  1.0000
  H   H1036     1.0  0.63839  0.92631  0.22475  1.0000
  H   H1037     1.0  0.64939  0.81320  0.29208  1.0000
  H   H1038     1.0  0.54799  0.72934  0.16435  1.0000
  N   N67       1.0  0.71567  0.79955  0.18424  1.0000
  Fe  Fe141     1.0  0.73237  0.90499  0.24868  1.0000
  H   H1039     1.0  0.55535  0.75576  0.12861  1.0000
  C   C659      1.0  0.55088  0.74259  0.17357  1.0000
  H   H1040     1.0  0.72433  0.78339  0.15449  1.0000
  N   N68       1.0  0.70099  0.78796  0.31974  1.0000
  H   H1041     1.0  0.58693  0.72959  0.14384  1.0000
  S   S267      1.0  0.73659  0.88274  0.22174  1.0000
  H   H1042     1.0  0.60135  0.75301  0.14358  1.0000
  C   C660      1.0  0.68873  0.81061  0.32255  1.0000
  H   H1043     1.0  0.59602  0.73404  0.16908  1.0000
  H   H1044     1.0  0.68056  0.67397  0.20674  1.0000
  H   H1045     1.0  0.64972  0.71297  0.30175  1.0000
  H   H1046     1.0  0.74035  0.81452  0.19545  1.0000
  H   H1047     1.0  0.70340  0.79479  0.28349  1.0000
  H   H1048     1.0  0.69744  0.81844  0.15811  1.0000
  C   C661      1.0  0.67244  0.66625  0.22278  1.0000
  H   H1049     1.0  0.74613  0.79656  0.16053  1.0000
  H   H1050     1.0  0.73969  0.77047  0.17712  1.0000
  C   C662      1.0  0.66365  0.70326  0.29143  1.0000
  H   H1051     1.0  0.68822  0.78313  0.18096  1.0000
  H   H1052     1.0  0.71962  0.83151  0.16381  1.0000
  C   C663      1.0  0.72780  0.66538  0.16281  1.0000
  S   S268      1.0  0.73947  0.72577  0.15863  1.0000
  C   C664      1.0  0.72978  0.98623  0.24166  1.0000
  H   H1053     1.0  0.67036  0.81129  0.32326  1.0000
  H   H1054     1.0  0.72388  0.68403  0.16065  1.0000
  H   H1055     1.0  0.73206  0.80084  0.30669  1.0000
  H   H1056     1.0  0.74514  0.66983  0.29339  1.0000
  H   H1057     1.0  0.69685  0.70110  0.31572  1.0000
  C   C665      1.0  0.68405  0.68992  0.32308  1.0000
  C   C666      1.0  0.65693  0.66868  0.31588  1.0000
  H   H1058     1.0  0.64354  0.67751  0.32750  1.0000
  C   C667      1.0  0.69191  0.67038  0.29058  1.0000
  H   H1059     1.0  0.68510  0.66521  0.27674  1.0000
  H   H1060     1.0  0.64849  0.66392  0.30298  1.0000
  C   C668      1.0  0.74550  0.95799  0.27007  1.0000
  H   H1061     1.0  0.74497  0.70815  0.30203  1.0000
  H   H1062     1.0  0.73058  0.74523  0.66348  1.0000
  S   S269      1.0  0.71899  0.74092  0.61604  1.0000
  H   H1063     1.0  0.73041  0.78448  0.61931  1.0000
  C   C669      1.0  0.66973  0.78047  0.64994  1.0000
  H   H1064     1.0  0.69520  0.77481  0.35516  1.0000
  H   H1065     1.0  0.73579  0.79923  0.45859  1.0000
  H   H1066     1.0  0.50039  0.80297  0.63965  1.0000
  C   C670      1.0  0.70375  0.76420  0.62790  1.0000
  S   S270      1.0  0.66423  0.82131  0.66438  1.0000
  C   C671      1.0  0.67923  0.79981  0.64957  1.0000
  C   C672      1.0  0.68181  0.76288  0.63880  1.0000
  H   H1067     1.0  0.70849  0.81627  0.63806  1.0000
  C   C673      1.0  0.71343  0.78344  0.62768  1.0000
  H   H1068     1.0  0.67430  0.74802  0.63901  1.0000
  C   C674      1.0  0.70103  0.80139  0.63826  1.0000
  H   H1069     1.0  0.74312  0.79080  0.43086  1.0000
  H   H1070     1.0  0.72099  0.82536  0.36587  1.0000
  H   H1071     1.0  0.72830  0.79105  0.33649  1.0000
  S   S271      1.0  0.74059  0.72523  0.34412  1.0000
  H   H1072     1.0  0.65292  0.77916  0.65859  1.0000
  H   H1073     1.0  0.74489  0.72660  0.50086  1.0000
  C   C675      1.0  0.74148  0.69793  0.33814  1.0000
  H   H1074     1.0  0.67397  0.77153  0.33932  1.0000
  C   C676      1.0  0.73959  0.67991  0.35567  1.0000
  H   H1075     1.0  0.73804  0.68264  0.37307  1.0000
  C   C677      1.0  0.73777  0.82507  0.35657  1.0000
  C   C678      1.0  0.69230  0.77136  0.33854  1.0000
  H   H1076     1.0  0.70074  0.75400  0.33663  1.0000
  H   H1077     1.0  0.69156  0.81593  0.33838  1.0000
  C   C679      1.0  0.74130  0.83793  0.33515  1.0000
  H   H1078     1.0  0.72269  0.70848  0.65779  1.0000
  H   H1079     1.0  0.50042  0.78190  0.60800  1.0000
  H   H1080     1.0  0.69251  0.67504  0.33347  1.0000
  H   H1081     1.0  0.67108  0.69915  0.33474  1.0000
  S   S272      1.0  0.62814  0.82362  0.72397  1.0000
  H   H1082     1.0  0.72614  0.75295  0.69138  1.0000
  S   S273      1.0  0.71935  0.90800  0.77153  1.0000
  N   N69       1.0  0.69448  0.73419  0.80153  1.0000
  C   C680      1.0  0.71080  0.93813  0.84330  1.0000
  Fe  Fe142     1.0  0.64706  0.79534  0.74504  1.0000
  S   S274      1.0  0.66691  0.80159  0.77076  1.0000
  Fe  Fe143     1.0  0.63465  0.75995  0.72182  1.0000
  S   S275      1.0  0.63848  0.72353  0.71825  1.0000
  S   S276      1.0  0.66459  0.77773  0.71614  1.0000
  S   S277      1.0  0.61874  0.77490  0.75300  1.0000
  H   H1083     1.0  0.72525  0.97857  0.83515  1.0000
  H   H1084     1.0  0.66551  0.75932  0.80661  1.0000
  C   C681      1.0  0.53261  0.79367  0.69291  1.0000
  C   C682      1.0  0.54926  0.79917  0.70350  1.0000
  C   C683      1.0  0.69964  0.71037  0.79792  1.0000
  H   H1085     1.0  0.56646  0.79786  0.69527  1.0000
  C   C684      1.0  0.66207  0.67561  0.77868  1.0000
  H   H1086     1.0  0.72150  0.73241  0.82050  1.0000
  C   C685      1.0  0.66042  0.68469  0.73841  1.0000
  C   C686      1.0  0.64723  0.70528  0.74172  1.0000
  C   C687      1.0  0.64123  0.71098  0.76356  1.0000
  C   C688      1.0  0.64835  0.69596  0.78211  1.0000
  H   H1087     1.0  0.66305  0.73971  0.78869  1.0000
  H   H1088     1.0  0.66501  0.68017  0.72156  1.0000
  H   H1089     1.0  0.63078  0.72671  0.76626  1.0000
  H   H1090     1.0  0.64354  0.70020  0.79905  1.0000
  C   C689      1.0  0.72103  0.84606  0.74021  1.0000
  C   C690      1.0  0.71061  0.84642  0.76260  1.0000
  C   C691      1.0  0.69446  0.83227  0.77209  1.0000
  C   C692      1.0  0.68828  0.81808  0.75910  1.0000
  C   C693      1.0  0.69912  0.81731  0.73689  1.0000
  C   C694      1.0  0.71573  0.83096  0.72764  1.0000
  H   H1091     1.0  0.71471  0.85782  0.77256  1.0000
  H   H1092     1.0  0.68628  0.83283  0.78934  1.0000
  H   H1093     1.0  0.69476  0.80619  0.72683  1.0000
  H   H1094     1.0  0.72414  0.83015  0.71052  1.0000
  C   C695      1.0  0.66995  0.74135  0.80405  1.0000
  H   H1095     1.0  0.71372  0.98844  0.80925  1.0000
  C   C696      1.0  0.51010  0.79576  0.70321  1.0000
  S   S278      1.0  0.73940  0.86538  0.72707  1.0000
  H   H1096     1.0  0.70873  0.72731  0.72403  1.0000
  C   C697      1.0  0.50433  0.80354  0.72412  1.0000
  H   H1097     1.0  0.72233  0.68663  0.85871  1.0000
  H   H1098     1.0  0.72390  0.74304  0.77904  1.0000
  S   S279      1.0  0.72225  0.87938  0.83412  1.0000
  N   N70       1.0  0.70205  0.95850  0.82851  1.0000
  C   C698      1.0  0.66818  0.67008  0.75680  1.0000
  H   H1099     1.0  0.72572  0.92839  0.83430  1.0000
  C   C699      1.0  0.66684  0.87101  0.71997  1.0000
  H   H1100     1.0  0.69040  0.90287  0.69653  1.0000
  H   H1101     1.0  0.64646  0.85800  0.68954  1.0000
  H   H1102     1.0  0.63526  0.88654  0.69303  1.0000
  H   H1103     1.0  0.71986  0.83543  0.86046  1.0000
  H   H1104     1.0  0.68614  0.72633  0.70899  1.0000
  C   C700      1.0  0.70293  0.73676  0.82222  1.0000
  H   H1105     1.0  0.74158  0.69141  0.70287  1.0000
  H   H1106     1.0  0.70249  0.76638  0.78450  1.0000
  C   C701      1.0  0.65028  0.87555  0.68579  1.0000
  H   H1107     1.0  0.70985  0.94281  0.79863  1.0000
  N   N71       1.0  0.71903  0.71988  0.69008  1.0000
  H   H1108     1.0  0.65209  0.88167  0.72810  1.0000
  C   C702      1.0  0.73734  0.69002  0.84714  1.0000
  C   C703      1.0  0.54357  0.80660  0.72459  1.0000
  H   H1109     1.0  0.68862  0.96673  0.79704  1.0000
  C   C704      1.0  0.70350  0.71853  0.71166  1.0000
  Fe  Fe144     1.0  0.60128  0.80145  0.72870  1.0000
  S   S280      1.0  0.61568  0.78515  0.69789  1.0000
  C   C705      1.0  0.69529  0.95184  0.80868  1.0000
  C   C706      1.0  0.68240  0.97094  0.84119  1.0000
  S   S281      1.0  0.72569  0.97081  0.75635  1.0000
  H   H1110     1.0  0.67542  0.98637  0.83043  1.0000
  H   H1111     1.0  0.71593  0.94239  0.85858  1.0000
  Fe  Fe145     1.0  0.64416  0.80475  0.69529  1.0000
  H   H1112     1.0  0.69874  0.74772  0.76615  1.0000
  N   N72       1.0  0.56805  0.73249  0.72955  1.0000
  C   C707      1.0  0.57507  0.70837  0.73730  1.0000
  C   C708      1.0  0.57707  0.74611  0.74277  1.0000
  C   C709      1.0  0.54329  0.73759  0.73286  1.0000
  C   C710      1.0  0.57690  0.73792  0.70529  1.0000
  H   H1113     1.0  0.59373  0.70408  0.73485  1.0000
  H   H1114     1.0  0.56849  0.69752  0.72779  1.0000
  H   H1115     1.0  0.56899  0.70372  0.75563  1.0000
  H   H1116     1.0  0.57284  0.76443  0.73689  1.0000
  H   H1117     1.0  0.57026  0.74306  0.76108  1.0000
  H   H1118     1.0  0.59563  0.74211  0.74118  1.0000
  H   H1119     1.0  0.53603  0.73332  0.75092  1.0000
  H   H1120     1.0  0.53582  0.72814  0.72264  1.0000
  H   H1121     1.0  0.53753  0.75581  0.72778  1.0000
  H   H1122     1.0  0.57205  0.75598  0.69887  1.0000
  H   H1123     1.0  0.57052  0.72790  0.69477  1.0000
  H   H1124     1.0  0.59557  0.73442  0.70225  1.0000
  H   H1125     1.0  0.65251  0.88007  0.66704  1.0000
  N   N73       1.0  0.67053  0.87747  0.69511  1.0000
  Fe  Fe146     1.0  0.73883  0.89359  0.80005  1.0000
  H   H1126     1.0  0.66877  0.96041  0.84721  1.0000
  H   H1127     1.0  0.68233  0.94044  0.81374  1.0000
  H   H1128     1.0  0.69149  0.69913  0.81232  1.0000
  C   C711      1.0  0.74176  0.70901  0.69423  1.0000
  C   C712      1.0  0.52102  0.80893  0.73475  1.0000
  H   H1129     1.0  0.71800  0.70433  0.79615  1.0000
  H   H1130     1.0  0.66112  0.73103  0.81873  1.0000
  C   C713      1.0  0.73638  0.99430  0.76170  1.0000
  H   H1131     1.0  0.69813  0.92645  0.84905  1.0000
  C   C714      1.0  0.71967  0.74370  0.68023  1.0000
  H   H1132     1.0  0.69864  0.75436  0.82594  1.0000
  C   C715      1.0  0.71968  0.97308  0.82074  1.0000
  H   H1133     1.0  0.68690  0.97627  0.85627  1.0000
  H   H1134     1.0  0.69577  0.72562  0.83731  1.0000
  C   C716      1.0  0.70544  0.74840  0.78190  1.0000
  S   S282      1.0  0.74009  0.72145  0.87369  1.0000
  H   H1135     1.0  0.70265  0.75255  0.67754  1.0000
  H   H1136     1.0  0.51644  0.81482  0.75100  1.0000
  S   S283      1.0  0.56417  0.81266  0.73892  1.0000
  H   H1137     1.0  0.68742  0.84442  0.68996  1.0000
  H   H1138     1.0  0.73471  0.96420  0.81102  1.0000
  H   H1139     1.0  0.73606  0.66429  0.82713  1.0000
  H   H1140     1.0  0.70998  0.69030  0.68129  1.0000
  C   C717      1.0  0.71114  0.70822  0.67417  1.0000
  H   H1141     1.0  0.69362  0.70779  0.78239  1.0000
  C   C718      1.0  0.68985  0.86239  0.68508  1.0000
  H   H1142     1.0  0.70272  0.70072  0.71953  1.0000
  H   H1143     1.0  0.66381  0.85322  0.72478  1.0000
  H   H1144     1.0  0.70568  0.86439  0.69070  1.0000
  H   H1145     1.0  0.68165  0.87269  0.72760  1.0000
  C   C719      1.0  0.73651  0.83948  0.85986  1.0000
  H   H1146     1.0  0.66097  0.91278  0.69685  1.0000
  C   C720      1.0  0.67522  0.90091  0.68960  1.0000
  C   C721      1.0  0.74212  0.86005  0.84796  1.0000
  Fe  Fe147     1.0  0.74224  0.93455  0.76394  1.0000
  H   H1147     1.0  0.53719  0.78785  0.67665  1.0000
  H   H1148     1.0  0.67828  0.90627  0.67097  1.0000
  H   H1149     1.0  0.69427  0.71637  0.67018  1.0000
  Fe  Fe148     1.0  0.74632  0.88750  0.75065  1.0000
  C   C722      1.0  0.74503  0.67744  0.82919  1.0000
  H   H1150     1.0  0.69225  0.86579  0.66626  1.0000
  H   H1151     1.0  0.77648  0.31166  0.31240  1.0000
  H   H1152     1.0  0.96415  0.25099  0.26549  1.0000
  C   C723      1.0  0.96789  0.23766  0.25514  1.0000
  S   S284      1.0  0.77062  0.12741  0.22883  1.0000
  Fe  Fe149     1.0  0.89666  0.21954  0.22995  1.0000
  S   S285      1.0  0.87482  0.21737  0.26375  1.0000
  S   S286      1.0  0.93307  0.20288  0.22496  1.0000
  Fe  Fe150     1.0  0.85667  0.23906  0.20508  1.0000
  S   S287      1.0  0.83159  0.23773  0.23670  1.0000
  S   S288      1.0  0.84737  0.25505  0.17106  1.0000
  Fe  Fe151     1.0  0.85708  0.25117  0.25093  1.0000
  S   S289      1.0  0.84189  0.27550  0.27509  1.0000
  Fe  Fe152     1.0  0.85104  0.20404  0.24697  1.0000
  S   S290      1.0  0.83580  0.17521  0.26896  1.0000
  S   S291      1.0  0.88119  0.25502  0.21851  1.0000
  S   S292      1.0  0.87383  0.20386  0.21378  1.0000
  H   H1153     1.0  0.93314  0.23823  0.25183  1.0000
  H   H1154     1.0  0.99605  0.25169  0.20349  1.0000
  C   C724      1.0  0.82477  0.24694  0.16164  1.0000
  C   C725      1.0  0.81293  0.23008  0.17421  1.0000
  C   C726      1.0  0.79472  0.22442  0.16606  1.0000
  C   C727      1.0  0.78808  0.23593  0.14561  1.0000
  C   C728      1.0  0.80008  0.25266  0.13315  1.0000
  C   C729      1.0  0.81841  0.25803  0.14104  1.0000
  H   H1155     1.0  0.81784  0.22133  0.19009  1.0000
  H   H1156     1.0  0.78564  0.21132  0.17573  1.0000
  C   C730      1.0  0.95027  0.23047  0.24741  1.0000
  H   H1157     1.0  0.82766  0.27091  0.13115  1.0000
  C   C731      1.0  0.83457  0.30290  0.26130  1.0000
  C   C732      1.0  0.84456  0.30975  0.23920  1.0000
  C   C733      1.0  0.91618  0.14814  0.22394  1.0000
  H   H1158     1.0  0.91404  0.15923  0.26538  1.0000
  H   H1159     1.0  0.93276  0.15003  0.22805  1.0000
  C   C734      1.0  0.81850  0.31804  0.27254  1.0000
  H   H1160     1.0  0.85724  0.29830  0.23055  1.0000
  H   H1161     1.0  0.98254  0.29000  0.18552  1.0000
  C   C735      1.0  0.82359  0.22086  0.30662  1.0000
  C   C736      1.0  0.97719  0.20309  0.22880  1.0000
  C   C737      1.0  0.78812  0.14113  0.24034  1.0000
  C   C738      1.0  0.79066  0.13594  0.26322  1.0000
  C   C739      1.0  0.80520  0.14665  0.27187  1.0000
  C   C740      1.0  0.81707  0.16276  0.25776  1.0000
  C   C741      1.0  0.81428  0.16825  0.23497  1.0000
  C   C742      1.0  0.79989  0.15737  0.22628  1.0000
  H   H1162     1.0  0.78163  0.12349  0.27418  1.0000
  H   H1163     1.0  0.80727  0.14238  0.28953  1.0000
  H   H1164     1.0  0.82333  0.18070  0.22398  1.0000
  H   H1165     1.0  0.79793  0.16150  0.20858  1.0000
  C   C743      1.0  0.95482  0.21303  0.23433  1.0000
  C   C744      1.0  0.91037  0.11877  0.25568  1.0000
  C   C745      1.0  0.99023  0.22766  0.24974  1.0000
  H   H1166     1.0  0.89918  0.11301  0.27137  1.0000
  H   H1167     1.0  0.78429  0.29599  0.21100  1.0000
  H   H1168     1.0  0.81133  0.30200  0.21378  1.0000
  C   C746      1.0  0.78365  0.22285  0.07948  1.0000
  H   H1169     1.0  0.83184  0.23391  0.31140  1.0000
  H   H1170     1.0  0.82853  0.22095  0.28810  1.0000
  H   H1171     1.0  0.76887  0.30940  0.17473  1.0000
  N   N74       1.0  0.78670  0.22715  0.05448  1.0000
  C   C747      1.0  0.82285  0.31850  0.17004  1.0000
  H   H1172     1.0  0.77022  0.21052  0.30985  1.0000
  C   C748      1.0  0.78639  0.31069  0.16646  1.0000
  H   H1173     1.0  0.79353  0.29434  0.16052  1.0000
  H   H1174     1.0  0.90943  0.16482  0.21509  1.0000
  H   H1175     1.0  0.79524  0.19214  0.05106  1.0000
  C   C749      1.0  0.76475  0.22925  0.04666  1.0000
  N   N75       1.0  0.79998  0.31632  0.18204  1.0000
  H   H1176     1.0  0.80472  0.21111  0.02650  1.0000
  C   C750      1.0  0.89783  0.15758  0.26028  1.0000
  H   H1177     1.0  0.88585  0.15318  0.27583  1.0000
  H   H1178     1.0  0.92699  0.11937  0.26050  1.0000
  C   C751      1.0  0.76085  0.32015  0.32024  1.0000
  H   H1179     1.0  0.77202  0.23670  0.08684  1.0000
  H   H1180     1.0  0.79783  0.25271  0.02771  1.0000
  H   H1181     1.0  0.79494  0.19077  0.31387  1.0000
  H   H1182     1.0  0.79563  0.26118  0.11713  1.0000
  H   H1183     1.0  0.83113  0.30264  0.16358  1.0000
  C   C752      1.0  0.80124  0.29825  0.20164  1.0000
  S   S293      1.0  0.75688  0.08166  0.28533  1.0000
  C   C753      1.0  0.79633  0.24824  0.04645  1.0000
  S   S294      1.0  0.76342  0.28572  0.09244  1.0000
  H   H1184     1.0  0.91907  0.13596  0.21169  1.0000
  H   H1185     1.0  0.77201  0.25182  0.30501  1.0000
  H   H1186     1.0  0.81115  0.31293  0.28977  1.0000
  S   S295      1.0  0.76503  0.22924  0.13554  1.0000
  C   C754      1.0  0.80205  0.20829  0.04535  1.0000
  H   H1187     1.0  0.79974  0.22149  0.08618  1.0000
  C   C755      1.0  0.87877  0.13943  0.23843  1.0000
  H   H1188     1.0  0.98086  0.18957  0.21870  1.0000
  C   C756      1.0  0.79055  0.24776  0.30086  1.0000
  H   H1189     1.0  0.88027  0.12716  0.22647  1.0000
  H   H1190     1.0  0.81874  0.20618  0.05102  1.0000
  S   S296      1.0  0.75200  0.01907  0.28468  1.0000
  H   H1191     1.0  0.78554  0.26266  0.05368  1.0000
  N   N76       1.0  0.79895  0.22534  0.31253  1.0000
  H   H1192     1.0  0.89103  0.17447  0.25219  1.0000
  N   N77       1.0  0.90078  0.14097  0.24456  1.0000
  H   H1193     1.0  0.87087  0.15595  0.23026  1.0000
  H   H1194     1.0  0.91276  0.10578  0.24432  1.0000
  H   H1195     1.0  0.86670  0.13421  0.25364  1.0000
  H   H1196     1.0  0.80930  0.28184  0.19622  1.0000
  H   H1197     1.0  0.79504  0.24884  0.28217  1.0000
  H   H1198     1.0  0.81319  0.24709  0.05144  1.0000
  H   H1199     1.0  0.76622  0.23317  0.02787  1.0000
  C   C757      1.0  0.78880  0.20788  0.30539  1.0000
  H   H1200     1.0  0.83367  0.32237  0.18141  1.0000
  H   H1201     1.0  0.79305  0.20766  0.28681  1.0000
  C   C758      1.0  0.99485  0.21041  0.23639  1.0000
  H   H1202     1.0  0.77641  0.20710  0.08634  1.0000
  S   S297      1.0  0.74994  0.28893  0.03268  1.0000
  H   H1203     1.0  0.79794  0.26127  0.30597  1.0000
  H   H1204     1.0  0.75269  0.24312  0.05351  1.0000
  Fe  Fe153     1.0  0.74991  0.10371  0.25287  1.0000
  H   H1205     1.0  0.75703  0.21360  0.05216  1.0000
  H   H1206     1.0  0.78558  0.32370  0.15116  1.0000
  H   H1207     1.0  0.75901  0.04225  0.32014  1.0000
  H   H1208     1.0  0.83060  0.20412  0.31511  1.0000
  H   H1209     1.0  0.77114  0.15145  0.32310  1.0000
  H   H1210     1.0  0.75158  0.12317  0.31266  1.0000
  H   H1211     1.0  0.98968  0.28233  0.22614  1.0000
  H   H1212     1.0  0.77443  0.22816  0.34217  1.0000
  C   C759      1.0  0.77016  0.16032  0.52768  1.0000
  C   C760      1.0  0.82893  0.26322  0.65479  1.0000
  S   S298      1.0  0.76784  0.23456  0.58979  1.0000
  H   H1213     1.0  0.78389  0.18379  0.55519  1.0000
  H   H1214     1.0  0.81006  0.18364  0.65660  1.0000
  S   S299      1.0  0.75771  0.27749  0.63716  1.0000
  C   C761      1.0  0.75558  0.14739  0.33320  1.0000
  C   C762      1.0  0.82498  0.25890  0.63395  1.0000
  C   C763      1.0  0.80307  0.26250  0.62858  1.0000
  C   C764      1.0  0.78510  0.27091  0.64389  1.0000
  S   S300      1.0  0.75628  0.27943  0.34505  1.0000
  H   H1215     1.0  0.75973  0.14856  0.52392  1.0000
  H   H1216     1.0  0.79888  0.20817  0.34663  1.0000
  H   H1217     1.0  0.80021  0.25948  0.61232  1.0000
  H   H1218     1.0  0.76134  0.20284  0.65045  1.0000
  H   H1219     1.0  0.77656  0.24361  0.48083  1.0000
  H   H1220     1.0  0.78483  0.21804  0.64346  1.0000
  H   H1221     1.0  0.80014  0.23795  0.34322  1.0000
  H   H1222     1.0  0.83896  0.25303  0.62179  1.0000
  S   S301      1.0  0.76183  0.25197  0.52671  1.0000
  H   H1223     1.0  0.80328  0.32000  0.65171  1.0000
  C   C765      1.0  0.75419  0.04745  0.33724  1.0000
  H   H1224     1.0  0.76293  0.14132  0.65082  1.0000
  H   H1225     1.0  0.76321  0.28014  0.41399  1.0000
  S   S302      1.0  0.85673  0.26027  0.66027  1.0000
  S   S303      1.0  0.76070  0.17792  0.35951  1.0000
  C   C766      1.0  0.79292  0.22487  0.33724  1.0000
  H   H1226     1.0  0.83047  0.31219  0.63637  1.0000
  C   C767      1.0  0.77157  0.21268  0.65741  1.0000
  H   H1227     1.0  0.78323  0.15016  0.53744  1.0000
  C   C768      1.0  0.75858  0.24386  0.48425  1.0000
  S   S304      1.0  0.75168  0.17777  0.61603  1.0000
  H   H1228     1.0  0.77943  0.20169  0.52889  1.0000
  H   H1229     1.0  0.75943  0.32199  0.40983  1.0000
  N   N78       1.0  0.75633  0.17770  0.54039  1.0000
  H   H1230     1.0  0.77888  0.16803  0.51124  1.0000
  H   H1231     1.0  0.76984  0.04548  0.34482  1.0000
  H   H1232     1.0  0.75625  0.23683  0.45099  1.0000
  C   C769      1.0  0.77086  0.19295  0.54488  1.0000
  H   H1233     1.0  0.76100  0.20629  0.55438  1.0000
  H   H1234     1.0  0.76051  0.22819  0.66203  1.0000
  H   H1235     1.0  0.75169  0.00415  0.33662  1.0000
  H   H1236     1.0  0.75754  0.15716  0.57296  1.0000
  S   S305      1.0  0.75091  0.23025  0.39127  1.0000
  H   H1237     1.0  0.76298  0.00665  0.36137  1.0000
  H   H1238     1.0  0.78653  0.16842  0.66318  1.0000
  C   C770      1.0  0.81888  0.32660  0.64293  1.0000
  H   H1239     1.0  0.75430  0.29820  0.44811  1.0000
  H   H1240     1.0  0.98791  0.27791  0.66351  1.0000
  C   C771      1.0  0.78898  0.27491  0.66483  1.0000
  Fe  Fe154     1.0  0.74839  0.26027  0.61076  1.0000
  H   H1241     1.0  0.74733  0.06570  0.33498  1.0000
  C   C772      1.0  0.74713  0.30811  0.33717  1.0000
  C   C773      1.0  0.74734  0.00990  0.35357  1.0000
  H   H1242     1.0  0.74713  0.03894  0.38256  1.0000
  C   C774      1.0  0.74712  0.24004  0.46732  1.0000
  H   H1243     1.0  0.74706  0.19914  0.51034  1.0000
  C   C775      1.0  0.74693  0.24777  0.50565  1.0000
  H   H1244     1.0  0.82006  0.31265  0.68723  1.0000
  Fe  Fe155     1.0  0.85268  0.24606  0.74521  1.0000
  S   S306      1.0  0.87859  0.23349  0.71754  1.0000
  S   S307      1.0  0.82921  0.22581  0.77032  1.0000
  Fe  Fe156     1.0  0.89984  0.25698  0.72558  1.0000
  S   S308      1.0  0.93660  0.24325  0.72730  1.0000
  H   H1245     1.0  0.81190  0.11068  0.77417  1.0000
  S   S309      1.0  0.87494  0.26728  0.75527  1.0000
  S   S310      1.0  0.83602  0.27435  0.72236  1.0000
  H   H1246     1.0  0.76094  0.29162  0.98459  1.0000
  H   H1247     1.0  0.77924  0.24071  0.83355  1.0000
  C   C776      1.0  0.84623  0.06374  0.75953  1.0000
  Fe  Fe157     1.0  0.76873  0.13437  0.74840  1.0000
  H   H1248     1.0  0.79697  0.07595  0.79384  1.0000
  S   S311      1.0  0.80183  0.14536  0.73261  1.0000
  H   H1249     1.0  0.80214  0.20358  0.70074  1.0000
  H   H1250     1.0  0.79468  0.22466  0.87043  1.0000
  H   H1251     1.0  0.96503  0.31181  0.73580  1.0000
  C   C777      1.0  0.80993  0.07924  0.74891  1.0000
  C   C778      1.0  0.83514  0.31943  0.67741  1.0000
  H   H1252     1.0  0.79598  0.21773  0.82096  1.0000
  S   S312      1.0  0.75673  0.10934  0.73201  1.0000
  C   C779      1.0  0.76310  0.01079  0.77674  1.0000
  S   S313      1.0  0.75584  0.25053  0.90303  1.0000
  H   H1253     1.0  0.85765  0.06192  0.77236  1.0000
  C   C780      1.0  0.82135  0.20355  0.75980  1.0000
  C   C781      1.0  0.80251  0.19370  0.77083  1.0000
  C   C782      1.0  0.79619  0.17591  0.76254  1.0000
  C   C783      1.0  0.80898  0.16767  0.74344  1.0000
  C   C784      1.0  0.82786  0.17737  0.73259  1.0000
  C   C785      1.0  0.83388  0.19538  0.74059  1.0000
  H   H1254     1.0  0.79268  0.19989  0.78569  1.0000
  H   H1255     1.0  0.78157  0.16849  0.77104  1.0000
  H   H1256     1.0  0.83788  0.17101  0.71788  1.0000
  H   H1257     1.0  0.84851  0.20261  0.73211  1.0000
  H   H1258     1.0  0.98105  0.22920  0.73797  1.0000
  H   H1259     1.0  0.83715  0.21151  0.82018  1.0000
  H   H1260     1.0  0.81109  0.31627  0.72877  1.0000
  C   C786      1.0  0.96856  0.29376  0.73630  1.0000
  H   H1261     1.0  0.82568  0.25881  0.85433  1.0000
  N   N79       1.0  0.82445  0.07727  0.76644  1.0000
  H   H1262     1.0  0.75174  0.20716  0.70083  1.0000
  H   H1263     1.0  0.81350  0.27387  0.68655  1.0000
  H   H1264     1.0  0.84991  0.22759  0.83534  1.0000
  C   C787      1.0  0.79464  0.21309  0.68581  1.0000
  S   S314      1.0  0.77475  0.30560  0.87105  1.0000
  H   H1265     1.0  0.83889  0.09924  0.78225  1.0000
  H   H1266     1.0  0.84401  0.04653  0.75737  1.0000
  H   H1267     1.0  0.81501  0.27049  0.82826  1.0000
  C   C788      1.0  0.81348  0.06614  0.78815  1.0000
  C   C789      1.0  0.75515  0.17931  0.83349  1.0000
  H   H1268     1.0  0.79329  0.08888  0.75396  1.0000
  N   N80       1.0  0.78135  0.19933  0.67706  1.0000
  H   H1269     1.0  0.80864  0.21849  0.67276  1.0000
  H   H1270     1.0  0.80682  0.06247  0.74629  1.0000
  H   H1271     1.0  0.83941  0.24034  0.80954  1.0000
  H   H1272     1.0  0.77325  0.17602  0.83186  1.0000
  S   S315      1.0  0.76131  0.11666  0.78379  1.0000
  H   H1273     1.0  0.84329  0.32630  0.68925  1.0000
  H   H1274     1.0  0.81722  0.08814  0.73238  1.0000
  H   H1275     1.0  0.99204  0.28321  0.69063  1.0000
  N   N81       1.0  0.81391  0.23515  0.83836  1.0000
  C   C790      1.0  0.79604  0.17909  0.67001  1.0000
  C   C791      1.0  0.81064  0.21925  0.85958  1.0000
  C   C792      1.0  0.79619  0.23495  0.82464  1.0000
  C   C793      1.0  0.81268  0.25804  0.84385  1.0000
  H   H1276     1.0  0.77802  0.00866  0.78465  1.0000
  C   C794      1.0  0.83610  0.22836  0.82537  1.0000
  C   C795      1.0  0.82805  0.09996  0.76912  1.0000
  H   H1277     1.0  0.79871  0.24599  0.80805  1.0000
  H   H1278     1.0  0.80977  0.20208  0.85615  1.0000
  C   C796      1.0  0.76316  0.19238  0.69500  1.0000
  H   H1279     1.0  0.79606  0.26359  0.85363  1.0000
  H   H1280     1.0  0.80986  0.32361  0.83633  1.0000
  C   C797      1.0  0.97754  0.24726  0.73739  1.0000
  Fe  Fe158     1.0  0.86326  0.26326  0.69518  1.0000
  C   C798      1.0  0.95636  0.25868  0.73316  1.0000
  H   H1281     1.0  0.82396  0.06412  0.80182  1.0000
  C   C799      1.0  0.98991  0.28238  0.74004  1.0000
  H   H1282     1.0  0.81000  0.04918  0.78656  1.0000
  H   H1283     1.0  0.85482  0.07166  0.74313  1.0000
  C   C800      1.0  0.99417  0.25901  0.74102  1.0000
  S   S316      1.0  0.88684  0.28575  0.70048  1.0000
  H   H1284     1.0  0.93558  0.29095  0.72962  1.0000
  C   C801      1.0  0.95184  0.28198  0.73282  1.0000
  H   H1285     1.0  0.78413  0.22858  0.69116  1.0000
  H   H1286     1.0  0.82440  0.21794  0.86974  1.0000
  H   H1287     1.0  0.83606  0.10897  0.75298  1.0000
  Fe  Fe159     1.0  0.86049  0.29454  0.72960  1.0000
  H   H1288     1.0  0.75282  0.18193  0.68894  1.0000
  H   H1289     1.0  0.83968  0.32234  0.82933  1.0000
  S   S317      1.0  0.75765  0.20696  0.86360  1.0000
  S   S318      1.0  0.76120  0.05580  0.77831  1.0000
  H   H1290     1.0  0.80352  0.16852  0.68453  1.0000
  H   H1291     1.0  0.83734  0.30744  0.79334  1.0000
  H   H1292     1.0  0.77003  0.18215  0.71003  1.0000
  H   H1293     1.0  0.77510  0.28131  0.67678  1.0000
  H   H1294     1.0  0.84708  0.30503  0.67138  1.0000
  C   C802      1.0  0.81078  0.27078  0.67039  1.0000
  H   H1295     1.0  0.75329  0.15660  0.81050  1.0000
  H   H1296     1.0  0.81838  0.32297  0.77496  1.0000
  H   H1297     1.0  0.80740  0.30937  0.80209  1.0000
  H   H1298     1.0  0.98697  0.25599  0.68743  1.0000
  C   C803      1.0  0.82108  0.31884  0.79293  1.0000
  C   C804      1.0  0.75139  0.03250  0.77141  1.0000
  C   C805      1.0  0.99571  0.27044  0.67887  1.0000
  Fe  Fe160     1.0  0.74750  0.28384  0.88162  1.0000
  Fe  Fe161     1.0  0.74729  0.09248  0.76760  1.0000
  C   C806      1.0  0.74699  0.28222  0.98983  1.0000
  Fe  Fe162     1.0  0.78017  0.62880  0.24407  1.0000
  H   H1299     1.0  0.74923  0.44583  0.30754  1.0000
  S   S319      1.0  0.74979  0.34007  0.12100  1.0000
  N   N82       1.0  0.75092  0.65753  0.16780  1.0000
  H   H1300     1.0  0.88127  0.63381  0.15354  1.0000
  Fe  Fe163     1.0  0.76762  0.58139  0.25996  1.0000
  S   S320      1.0  0.78175  0.54418  0.26310  1.0000
  S   S321      1.0  0.75830  0.40973  0.21335  1.0000
  S   S322      1.0  0.76757  0.60472  0.22688  1.0000
  S   S323      1.0  0.76924  0.41332  0.26441  1.0000
  H   H1301     1.0  0.79933  0.34257  0.20180  1.0000
  H   H1302     1.0  0.77242  0.62614  0.17481  1.0000
  H   H1303     1.0  0.79518  0.49680  0.26280  1.0000
  H   H1304     1.0  0.84673  0.33718  0.21161  1.0000
  H   H1305     1.0  0.76547  0.35228  0.30049  1.0000
  H   H1306     1.0  0.82259  0.33217  0.15531  1.0000
  C   C807      1.0  0.86931  0.65776  0.24728  1.0000
  Fe  Fe164     1.0  0.77944  0.38945  0.23869  1.0000
  H   H1307     1.0  0.85930  0.65426  0.14278  1.0000
  C   C808      1.0  0.74908  0.52971  0.24487  1.0000
  C   C809      1.0  0.86655  0.64641  0.15841  1.0000
  H   H1308     1.0  0.81626  0.63148  0.29624  1.0000
  C   C810      1.0  0.82208  0.34668  0.23951  1.0000
  C   C811      1.0  0.76983  0.48472  0.24925  1.0000
  C   C812      1.0  0.74963  0.49049  0.24037  1.0000
  C   C813      1.0  0.76922  0.52394  0.25385  1.0000
  H   H1309     1.0  0.85376  0.63714  0.16984  1.0000
  H   H1310     1.0  0.79503  0.65545  0.29239  1.0000
  H   H1311     1.0  0.78845  0.35187  0.17565  1.0000
  S   S324      1.0  0.80226  0.65439  0.22592  1.0000
  H   H1312     1.0  0.79166  0.63477  0.31713  1.0000
  C   C814      1.0  0.82682  0.65582  0.23659  1.0000
  H   H1313     1.0  0.84593  0.65661  0.29304  1.0000
  C   C815      1.0  0.77953  0.50138  0.25599  1.0000
  S   S325      1.0  0.89696  0.65784  0.25164  1.0000
  H   H1314     1.0  0.84023  0.62790  0.32607  1.0000
  H   H1315     1.0  0.86988  0.64369  0.20258  1.0000
  C   C816      1.0  0.80420  0.64402  0.30526  1.0000
  H   H1316     1.0  0.77804  0.46747  0.25087  1.0000
  C   C817      1.0  0.86023  0.63755  0.25250  1.0000
  C   C818      1.0  0.83894  0.63659  0.24728  1.0000
  N   N83       1.0  0.81583  0.65657  0.31732  1.0000
  S   S326      1.0  0.78364  0.60438  0.27586  1.0000
  H   H1317     1.0  0.86999  0.62244  0.25997  1.0000
  H   H1318     1.0  0.83244  0.62075  0.25051  1.0000
  S   S327      1.0  0.81405  0.37371  0.22529  1.0000
  H   H1319     1.0  0.79961  0.35144  0.27033  1.0000
  H   H1320     1.0  0.89739  0.63990  0.18645  1.0000
  S   S328      1.0  0.75405  0.36692  0.25456  1.0000
  H   H1321     1.0  0.75358  0.62625  0.15502  1.0000
  H   H1322     1.0  0.77218  0.33689  0.19905  1.0000
  C   C819      1.0  0.75455  0.34313  0.31339  1.0000
  C   C820      1.0  0.81198  0.33980  0.26155  1.0000
  C   C821      1.0  0.88237  0.65253  0.19027  1.0000
  C   C822      1.0  0.75528  0.63269  0.17062  1.0000
  C   C823      1.0  0.83858  0.33173  0.22847  1.0000
  H   H1323     1.0  0.76552  0.66133  0.13270  1.0000
  H   H1324     1.0  0.75764  0.37558  0.14255  1.0000
  Fe  Fe165     1.0  0.74830  0.61931  0.28756  1.0000
  C   C824      1.0  0.78951  0.33782  0.18999  1.0000
  H   H1325     1.0  0.77073  0.65948  0.19330  1.0000
  H   H1326     1.0  0.78464  0.66129  0.15221  1.0000
  H   H1327     1.0  0.84587  0.35851  0.63140  1.0000
  H   H1328     1.0  0.86218  0.33168  0.63929  1.0000
  H   H1329     1.0  0.83686  0.64964  0.34340  1.0000
  C   C825      1.0  0.84966  0.34541  0.64599  1.0000
  C   C826      1.0  0.82769  0.64071  0.33420  1.0000
  N   N84       1.0  0.82916  0.33673  0.65835  1.0000
  H   H1330     1.0  0.81579  0.63165  0.34709  1.0000
  H   H1331     1.0  0.80841  0.36896  0.65331  1.0000
  H   H1332     1.0  0.81438  0.33905  0.62813  1.0000
  H   H1333     1.0  0.85785  0.35305  0.65723  1.0000
  C   C827      1.0  0.75260  0.66132  0.66446  1.0000
  H   H1334     1.0  0.81990  0.61910  0.86744  1.0000
  C   C828      1.0  0.84009  0.35093  0.79086  1.0000
  H   H1335     1.0  0.83859  0.35647  0.77270  1.0000
  C   C829      1.0  0.79425  0.65821  0.67862  1.0000
  C   C830      1.0  0.82369  0.63126  0.85187  1.0000
  C   C831      1.0  0.77626  0.65023  0.69380  1.0000
  N   N85       1.0  0.81774  0.65472  0.85646  1.0000
  C   C832      1.0  0.75151  0.51860  0.77638  1.0000
  C   C833      1.0  0.77337  0.37250  0.85387  1.0000
  S   S329      1.0  0.76500  0.61825  0.75886  1.0000
  H   H1336     1.0  0.75039  0.57384  0.73954  1.0000
  H   H1337     1.0  0.82006  0.36294  0.67934  1.0000
  H   H1338     1.0  0.79723  0.34940  0.67631  1.0000
  H   H1339     1.0  0.85642  0.33969  0.79149  1.0000
  C   C834      1.0  0.78292  0.36959  0.72537  1.0000
  C   C835      1.0  0.79973  0.38063  0.72935  1.0000
  C   C836      1.0  0.82098  0.36857  0.73221  1.0000
  S   S330      1.0  0.75129  0.43022  0.76217  1.0000
  H   H1340     1.0  0.81409  0.62812  0.83896  1.0000
  C   C837      1.0  0.79350  0.65916  0.86496  1.0000
  H   H1341     1.0  0.81037  0.65704  0.68412  1.0000
  H   H1342     1.0  0.83414  0.37734  0.73458  1.0000
  H   H1343     1.0  0.84185  0.62741  0.84528  1.0000
  H   H1344     1.0  0.76830  0.51447  0.78075  1.0000
  H   H1345     1.0  0.77350  0.57442  0.71689  1.0000
  N   N86       1.0  0.82109  0.33939  0.80275  1.0000
  H   H1346     1.0  0.79656  0.39863  0.72943  1.0000
  C   C838      1.0  0.75673  0.37859  0.83987  1.0000
  H   H1347     1.0  0.78304  0.38494  0.85629  1.0000
  C   C839      1.0  0.76594  0.33391  0.86090  1.0000
  C   C840      1.0  0.78717  0.34637  0.72495  1.0000
  C   C841      1.0  0.81304  0.35533  0.66715  1.0000
  C   C842      1.0  0.82530  0.34534  0.73170  1.0000
  C   C843      1.0  0.75542  0.65181  0.68667  1.0000
  C   C844      1.0  0.83069  0.65830  0.87365  1.0000
  H   H1348     1.0  0.78887  0.64801  0.88105  1.0000
  H   H1349     1.0  0.77412  0.33779  0.72195  1.0000
  H   H1350     1.0  0.79138  0.34552  0.87451  1.0000
  Fe  Fe166     1.0  0.75411  0.64322  0.78346  1.0000
  C   C845      1.0  0.77809  0.35021  0.86416  1.0000
  H   H1351     1.0  0.82714  0.64696  0.88987  1.0000
  S   S331      1.0  0.75319  0.40615  0.82530  1.0000
  H   H1352     1.0  0.76622  0.57950  0.67700  1.0000
  H   H1353     1.0  0.78323  0.65645  0.85249  1.0000
  C   C846      1.0  0.74859  0.34010  0.84773  1.0000
  C   C847      1.0  0.80820  0.33421  0.72850  1.0000
  H   H1354     1.0  0.75145  0.48594  0.76698  1.0000
  S   S332      1.0  0.75725  0.38481  0.71900  1.0000
  H   H1355     1.0  0.77851  0.64302  0.71097  1.0000
  H   H1356     1.0  0.75379  0.59934  0.72046  1.0000
  H   H1357     1.0  0.75411  0.47977  0.81022  1.0000
  H   H1358     1.0  0.82247  0.34828  0.83522  1.0000
  H   H1359     1.0  0.84090  0.36617  0.79828  1.0000
  C   C848      1.0  0.75541  0.58078  0.72152  1.0000
  H   H1360     1.0  0.79909  0.37035  0.80751  1.0000
  S   S333      1.0  0.85195  0.33062  0.73591  1.0000
  C   C849      1.0  0.74820  0.58499  0.68304  1.0000
  H   H1361     1.0  0.75835  0.45371  0.82889  1.0000
  C   C850      1.0  0.79979  0.35461  0.80029  1.0000
  H   H1362     1.0  0.76258  0.54310  0.70214  1.0000
  H   H1363     1.0  0.78511  0.34646  0.80912  1.0000
  S   S334      1.0  0.75196  0.55983  0.78844  1.0000
  H   H1364     1.0  0.84906  0.65549  0.86771  1.0000
  H   H1365     1.0  0.79751  0.35963  0.78217  1.0000
  C   C851      1.0  0.82341  0.33313  0.82696  1.0000
  S   S335      1.0  0.93508  0.74732  0.23367  1.0000
  S   S336      1.0  0.90263  0.74774  0.29572  1.0000
  Fe  Fe167     1.0  0.91149  0.73612  0.21458  1.0000
  S   S337      1.0  0.89485  0.75940  0.18721  1.0000
  H   H1366     1.0  0.84315  0.82767  0.11035  1.0000
  C   C852      1.0  0.77694  0.75489  0.02365  1.0000
  Fe  Fe168     1.0  0.77886  0.76195  0.08178  1.0000
  S   S338      1.0  0.78561  0.72801  0.10310  1.0000
  S   S339      1.0  0.76854  0.77053  0.04653  1.0000
  Fe  Fe169     1.0  0.78231  0.78714  0.12039  1.0000
  S   S340      1.0  0.78932  0.75555  0.14429  1.0000
  S   S341      1.0  0.93477  0.69749  0.26502  1.0000
  Fe  Fe170     1.0  0.81212  0.74280  0.11488  1.0000
  S   S342      1.0  0.84663  0.72387  0.11936  1.0000
  H   H1367     1.0  0.97168  0.69695  0.32497  1.0000
  C   C853      1.0  0.80162  0.72600  0.00452  1.0000
  S   S343      1.0  0.80729  0.77559  0.09147  1.0000
  C   C854      1.0  0.87097  0.79489  0.13148  1.0000
  H   H1368     1.0  0.87837  0.80084  0.11384  1.0000
  H   H1369     1.0  0.75868  0.97081  0.29531  1.0000
  S   S344      1.0  0.88881  0.72367  0.24562  1.0000
  C   C855      1.0  0.83688  0.82095  0.12813  1.0000
  H   H1370     1.0  0.96632  0.69495  0.29731  1.0000
  Fe  Fe171     1.0  0.95430  0.71252  0.23278  1.0000
  H   H1371     1.0  0.88339  0.68393  0.13816  1.0000
  C   C856      1.0  0.79059  0.80850  0.19585  1.0000
  C   C857      1.0  0.78841  0.80563  0.17386  1.0000
  C   C858      1.0  0.88642  0.70813  0.31318  1.0000
  H   H1372     1.0  0.83947  0.67144  0.18686  1.0000
  H   H1373     1.0  0.82611  0.69114  0.22401  1.0000
  H   H1374     1.0  0.79634  0.79416  0.20769  1.0000
  H   H1375     1.0  0.79273  0.78917  0.16883  1.0000
  Fe  Fe172     1.0  0.91416  0.73150  0.26442  1.0000
  C   C859      1.0  0.88198  0.74597  0.17062  1.0000
  C   C860      1.0  0.89425  0.73848  0.15096  1.0000
  C   C861      1.0  0.88326  0.73158  0.13543  1.0000
  C   C862      1.0  0.85992  0.73235  0.13933  1.0000
  C   C863      1.0  0.84770  0.73937  0.15926  1.0000
  C   C864      1.0  0.85872  0.74610  0.17490  1.0000
  H   H1376     1.0  0.91216  0.73874  0.14735  1.0000
  H   H1377     1.0  0.89282  0.72616  0.12006  1.0000
  H   H1378     1.0  0.82980  0.73946  0.16274  1.0000
  H   H1379     1.0  0.84914  0.75201  0.19002  1.0000
  H   H1380     1.0  0.80329  0.73207  0.03830  1.0000
  H   H1381     1.0  0.85768  0.77801  0.25715  1.0000
  H   H1382     1.0  0.88506  0.78834  0.14139  1.0000
  C   C865      1.0  0.79471  0.73710  0.02366  1.0000
  S   S345      1.0  0.93229  0.70243  0.21095  1.0000
  H   H1383     1.0  0.86228  0.78046  0.13088  1.0000
  H   H1384     1.0  0.76593  0.84766  0.30684  1.0000
  H   H1385     1.0  0.88153  0.82625  0.15226  1.0000
  C   C866      1.0  0.86752  0.83182  0.14207  1.0000
  H   H1386     1.0  0.86202  0.78381  0.30430  1.0000
  H   H1387     1.0  0.82739  0.80708  0.12752  1.0000
  Fe  Fe173     1.0  0.76226  0.74378  0.13088  1.0000
  H   H1388     1.0  0.81555  0.71243  0.00457  1.0000
  C   C867      1.0  0.76306  0.83767  0.32328  1.0000
  N   N87       1.0  0.85536  0.81300  0.14167  1.0000
  C   C868      1.0  0.78109  0.82417  0.15844  1.0000
  C   C869      1.0  0.78515  0.82987  0.20257  1.0000
  S   S346      1.0  0.78742  0.83342  0.23019  1.0000
  H   H1389     1.0  0.88767  0.66496  0.19899  1.0000
  H   H1390     1.0  0.80658  0.79370  0.26750  1.0000
  C   C870      1.0  0.87303  0.69455  0.32897  1.0000
  C   C871      1.0  0.76706  0.66675  0.14889  1.0000
  H   H1391     1.0  0.85619  0.84576  0.14969  1.0000
  H   H1392     1.0  0.82462  0.83451  0.13539  1.0000
  H   H1393     1.0  0.89687  0.70116  0.29911  1.0000
  H   H1394     1.0  0.85943  0.80637  0.28132  1.0000
  H   H1395     1.0  0.98805  0.75397  0.30967  1.0000
  H   H1396     1.0  0.83638  0.79038  0.16534  1.0000
  H   H1397     1.0  0.81123  0.78319  0.31807  1.0000
  H   H1398     1.0  0.80853  0.81380  0.28516  1.0000
  C   C872      1.0  0.75045  0.97519  0.28042  1.0000
  H   H1399     1.0  0.87481  0.83882  0.12471  1.0000
  C   C873      1.0  0.84608  0.80428  0.16505  1.0000
  C   C874      1.0  0.81861  0.80167  0.27423  1.0000
  H   H1400     1.0  0.85960  0.79755  0.17564  1.0000
  H   H1401     1.0  0.80920  0.76308  0.30038  1.0000
  C   C875      1.0  0.77789  0.84833  0.18712  1.0000
  C   C876      1.0  0.96916  0.73843  0.27987  1.0000
  S   S347      1.0  0.77881  0.82160  0.13050  1.0000
  H   H1402     1.0  0.76423  0.68546  0.14623  1.0000
  N   N88       1.0  0.83411  0.78474  0.28679  1.0000
  H   H1403     1.0  0.77433  0.86496  0.19192  1.0000
  H   H1404     1.0  0.84050  0.80754  0.30752  1.0000
  C   C877      1.0  0.82113  0.77198  0.30609  1.0000
  Fe  Fe174     1.0  0.91102  0.69070  0.24354  1.0000
  S   S348      1.0  0.99221  0.70219  0.22981  1.0000
  H   H1405     1.0  0.83456  0.81763  0.17343  1.0000
  C   C878      1.0  0.85291  0.67989  0.17559  1.0000
  H   H1406     1.0  0.79016  0.68544  0.31677  1.0000
  C   C879      1.0  0.83549  0.67621  0.23224  1.0000
  C   C880      1.0  0.84966  0.79617  0.29535  1.0000
  C   C881      1.0  0.88633  0.73048  0.31578  1.0000
  H   H1407     1.0  0.96980  0.72783  0.26652  1.0000
  H   H1408     1.0  0.75052  0.68392  0.18730  1.0000
  H   H1409     1.0  0.74994  0.94054  0.27699  1.0000
  H   H1410     1.0  0.82780  0.81162  0.25948  1.0000
  H   H1411     1.0  0.97853  0.75264  0.27217  1.0000
  H   H1412     1.0  0.83234  0.75912  0.31597  1.0000
  H   H1413     1.0  0.85863  0.75584  0.28069  1.0000
  H   H1414     1.0  0.86355  0.69280  0.23336  1.0000
  C   C882      1.0  0.84712  0.76910  0.27157  1.0000
  C   C883      1.0  0.77593  0.84550  0.16514  1.0000
  H   H1415     1.0  0.95131  0.74565  0.28456  1.0000
  H   H1416     1.0  0.84568  0.68887  0.16030  1.0000
  H   H1417     1.0  0.83596  0.76045  0.26443  1.0000
  S   S349      1.0  0.75333  0.77648  0.10907  1.0000
  H   H1418     1.0  0.87352  0.67715  0.32710  1.0000
  C   C884      1.0  0.96544  0.70686  0.30953  1.0000
  C   C885      1.0  0.85667  0.67720  0.23759  1.0000
  H   H1419     1.0  0.77048  0.85996  0.15325  1.0000
  H   H1420     1.0  0.89505  0.68852  0.16194  1.0000
  S   S350      1.0  0.75682  0.88138  0.26879  1.0000
  H   H1421     1.0  0.90538  0.66364  0.14910  1.0000
  C   C886      1.0  0.97809  0.74002  0.31666  1.0000
  Fe  Fe175     1.0  0.75813  0.85787  0.24354  1.0000
  H   H1422     1.0  0.99101  0.75050  0.22935  1.0000
  C   C887      1.0  0.76594  0.76118  0.00448  1.0000
  H   H1423     1.0  0.85698  0.69284  0.18450  1.0000
  H   H1424     1.0  0.94739  0.71354  0.31425  1.0000
  N   N89       1.0  0.97875  0.72519  0.29964  1.0000
  C   C888      1.0  0.83220  0.66857  0.30093  1.0000
  C   C889      1.0  0.88996  0.67540  0.15398  1.0000
  H   H1425     1.0  0.75201  0.77475  0.00444  1.0000
  H   H1426     1.0  0.96057  0.74768  0.32232  1.0000
  H   H1427     1.0  0.82415  0.67956  0.28703  1.0000
  H   H1428     1.0  0.84016  0.67936  0.30928  1.0000
  H   H1429     1.0  0.79810  0.82501  0.32395  1.0000
  C   C890      1.0  0.75356  0.66525  0.18886  1.0000
  N   N90       1.0  0.87296  0.66355  0.16957  1.0000
  C   C891      1.0  0.79924  0.67301  0.32897  1.0000
  H   H1430     1.0  0.98514  0.73059  0.33189  1.0000
  Fe  Fe176     1.0  0.79742  0.76042  0.61029  1.0000
  S   S351      1.0  0.82043  0.73356  0.59348  1.0000
  S   S352      1.0  0.81294  0.78591  0.62325  1.0000
  H   H1431     1.0  0.78326  0.78269  0.41428  1.0000
  S   S353      1.0  0.77599  0.71201  0.58965  1.0000
  H   H1432     1.0  0.90897  0.70057  0.62650  1.0000
  Fe  Fe177     1.0  0.79866  0.71001  0.61552  1.0000
  Fe  Fe178     1.0  0.79570  0.73829  0.56887  1.0000
  S   S354      1.0  0.81045  0.73940  0.53163  1.0000
  H   H1433     1.0  0.85188  0.69887  0.61427  1.0000
  S   S355      1.0  0.77427  0.76756  0.58387  1.0000
  Fe  Fe179     1.0  0.77524  0.72554  0.41684  1.0000
  S   S356      1.0  0.75737  0.75246  0.39305  1.0000
  H   H1434     1.0  0.76785  0.67772  0.63259  1.0000
  Fe  Fe180     1.0  0.81046  0.71008  0.37907  1.0000
  S   S357      1.0  0.79606  0.73593  0.35267  1.0000
  S   S358      1.0  0.84029  0.68716  0.36508  1.0000
  Fe  Fe181     1.0  0.79190  0.75942  0.37790  1.0000
  S   S359      1.0  0.80032  0.79414  0.36520  1.0000
  H   H1435     1.0  0.83944  0.70762  0.65403  1.0000
  S   S360      1.0  0.80964  0.73448  0.40306  1.0000
  C   C892      1.0  0.85689  0.70041  0.65696  1.0000
  C   C893      1.0  0.84585  0.78574  0.64877  1.0000
  C   C894      1.0  0.82817  0.77514  0.64586  1.0000
  H   H1436     1.0  0.89978  0.70604  0.65507  1.0000
  H   H1437     1.0  0.84759  0.73299  0.36323  1.0000
  H   H1438     1.0  0.85028  0.80021  0.63683  1.0000
  C   C895      1.0  0.85845  0.72598  0.34934  1.0000
  C   C896      1.0  0.75586  0.81148  0.36582  1.0000
  C   C897      1.0  0.74831  0.78851  0.44792  1.0000
  S   S361      1.0  0.75983  0.72308  0.45387  1.0000
  C   C898      1.0  0.79636  0.73321  0.51080  1.0000
  C   C899      1.0  0.80831  0.73099  0.48914  1.0000
  C   C900      1.0  0.79753  0.72708  0.47176  1.0000
  C   C901      1.0  0.77455  0.72576  0.47579  1.0000
  C   C902      1.0  0.76264  0.72773  0.49753  1.0000
  C   C903      1.0  0.77349  0.73138  0.51499  1.0000
  C   C904      1.0  0.86915  0.69339  0.61847  1.0000
  H   H1439     1.0  0.76411  0.73303  0.53161  1.0000
  H   H1440     1.0  0.78618  0.76138  0.43829  1.0000
  H   H1441     1.0  0.80703  0.72517  0.45527  1.0000
  H   H1442     1.0  0.87072  0.67488  0.62391  1.0000
  H   H1443     1.0  0.79511  0.79292  0.46909  1.0000
  C   C905      1.0  0.77764  0.78982  0.46946  1.0000
  H   H1444     1.0  0.81590  0.85411  0.65919  1.0000
  Fe  Fe182     1.0  0.76293  0.72661  0.36968  1.0000
  H   H1445     1.0  0.82603  0.73222  0.48581  1.0000
  C   C906      1.0  0.87062  0.72968  0.62846  1.0000
  S   S362      1.0  0.77747  0.69873  0.39465  1.0000
  H   H1446     1.0  0.88100  0.69670  0.60259  1.0000
  C   C907      1.0  0.77187  0.81771  0.43665  1.0000
  N   N91       1.0  0.87321  0.70519  0.63638  1.0000
  H   H1447     1.0  0.80471  0.78216  0.43122  1.0000
  N   N92       1.0  0.77121  0.79389  0.44652  1.0000
  S   S363      1.0  0.81316  0.67970  0.63808  1.0000
  S   S364      1.0  0.77712  0.73658  0.63389  1.0000
  C   C908      1.0  0.77762  0.81133  0.35399  1.0000
  C   C909      1.0  0.78706  0.77943  0.43194  1.0000
  H   H1448     1.0  0.87380  0.73907  0.64148  1.0000
  H   H1449     1.0  0.83734  0.83024  0.66290  1.0000
  H   H1450     1.0  0.85334  0.73631  0.62464  1.0000
  H   H1451     1.0  0.78899  0.82218  0.43531  1.0000
  H   H1452     1.0  0.89866  0.67892  0.64789  1.0000
  H   H1453     1.0  0.76724  0.82122  0.41926  1.0000
  H   H1454     1.0  0.76628  0.80070  0.48088  1.0000
  H   H1455     1.0  0.85704  0.68202  0.66239  1.0000
  Fe  Fe183     1.0  0.75612  0.74091  0.60627  1.0000
  H   H1456     1.0  0.80881  0.74829  0.65942  1.0000
  H   H1457     1.0  0.77682  0.77211  0.47753  1.0000
  H   H1458     1.0  0.76007  0.82919  0.44713  1.0000
  C   C910      1.0  0.87262  0.73928  0.33412  1.0000
  H   H1459     1.0  0.80738  0.68258  0.33849  1.0000
  C   C911      1.0  0.82260  0.75639  0.66130  1.0000
  C   C912      1.0  0.89620  0.69730  0.64167  1.0000
  C   C913      1.0  0.85869  0.70358  0.34680  1.0000
  C   C914      1.0  0.78125  0.82475  0.33292  1.0000
  H   H1460     1.0  0.88242  0.73394  0.61276  1.0000
  H   H1461     1.0  0.75302  0.80150  0.38229  1.0000
  H   H1462     1.0  0.74727  0.77067  0.45557  1.0000
  H   H1463     1.0  0.87268  0.75643  0.33647  1.0000
  C   C915      1.0  0.77030  0.66999  0.64959  1.0000
  C   C916      1.0  0.79118  0.66836  0.65659  1.0000
  H   H1464     1.0  0.78659  0.66454  0.34141  1.0000
  Fe  Fe184     1.0  0.79037  0.77413  0.88973  1.0000
  S   S365      1.0  0.81973  0.75153  0.90286  1.0000
  H   H1465     1.0  0.84651  0.79168  0.78705  1.0000
  Fe  Fe185     1.0  0.76732  0.73499  0.88602  1.0000
  S   S366      1.0  0.79439  0.70956  0.90000  1.0000
  H   H1466     1.0  0.84056  0.81910  0.77100  1.0000
  Fe  Fe186     1.0  0.79369  0.73281  0.92530  1.0000
  S   S367      1.0  0.80115  0.71919  0.96099  1.0000
  Fe  Fe187     1.0  0.81766  0.73067  0.87663  1.0000
  S   S368      1.0  0.84549  0.71447  0.85270  1.0000
  H   H1467     1.0  0.78833  0.67682  0.86833  1.0000
  S   S369      1.0  0.79075  0.75500  0.86130  1.0000
  H   H1468     1.0  0.79115  0.70193  0.80581  1.0000
  H   H1469     1.0  0.76399  0.75477  0.97089  1.0000
  S   S370      1.0  0.97552  0.76765  0.70070  1.0000
  H   H1470     1.0  0.78880  0.78259  0.93612  1.0000
  H   H1471     1.0  0.80464  0.80382  0.83740  1.0000
  Fe  Fe188     1.0  0.78320  0.90015  0.77139  1.0000
  S   S371      1.0  0.81950  0.89246  0.77563  1.0000
  H   H1472     1.0  0.86052  0.70763  0.67136  1.0000
  Fe  Fe189     1.0  0.90368  0.78572  0.75206  1.0000
  S   S372      1.0  0.92518  0.80946  0.72971  1.0000
  S   S373      1.0  0.89939  0.78670  0.78944  1.0000
  Fe  Fe190     1.0  0.89190  0.76784  0.71222  1.0000
  S   S374      1.0  0.91320  0.78943  0.68675  1.0000
  S   S375      1.0  0.86933  0.74607  0.70326  1.0000
  Fe  Fe191     1.0  0.93864  0.78017  0.71099  1.0000
  Fe  Fe192     1.0  0.89780  0.81632  0.70808  1.0000
  S   S376      1.0  0.88002  0.84974  0.69410  1.0000
  S   S377      1.0  0.91855  0.75586  0.73474  1.0000
  S   S378      1.0  0.87511  0.79521  0.73221  1.0000
  H   H1473     1.0  0.80865  0.77402  0.98054  1.0000
  C   C917      1.0  0.79713  0.85147  0.70298  1.0000
  C   C918      1.0  0.76370  0.86516  0.84710  1.0000
  H   H1474     1.0  0.81586  0.81133  0.72291  1.0000
  C   C919      1.0  0.98006  0.74567  0.80091  1.0000
  H   H1475     1.0  0.82514  0.84496  0.81090  1.0000
  H   H1476     1.0  0.96591  0.74664  0.74890  1.0000
  C   C920      1.0  0.83657  0.88129  0.75273  1.0000
  C   C921      1.0  0.83198  0.88858  0.73063  1.0000
  C   C922      1.0  0.84596  0.87953  0.71249  1.0000
  C   C923      1.0  0.86395  0.86254  0.71655  1.0000
  C   C924      1.0  0.86834  0.85509  0.73870  1.0000
  C   C925      1.0  0.85491  0.86475  0.75672  1.0000
  H   H1477     1.0  0.81806  0.90163  0.72746  1.0000
  H   H1478     1.0  0.84271  0.88556  0.69535  1.0000
  H   H1479     1.0  0.88234  0.84215  0.74193  1.0000
  H   H1480     1.0  0.85866  0.85928  0.77377  1.0000
  H   H1481     1.0  0.83591  0.77978  0.96724  1.0000
  S   S379      1.0  0.79409  0.81078  0.88435  1.0000
  H   H1482     1.0  0.94802  0.78028  0.76499  1.0000
  H   H1483     1.0  0.77789  0.72361  0.83766  1.0000
  C   C926      1.0  0.86030  0.73459  0.83500  1.0000
  C   C927      1.0  0.86908  0.73147  0.81266  1.0000
  C   C928      1.0  0.88078  0.74764  0.79835  1.0000
  C   C929      1.0  0.88432  0.76653  0.80665  1.0000
  C   C930      1.0  0.87573  0.76953  0.82903  1.0000
  C   C931      1.0  0.86344  0.75375  0.84310  1.0000
  H   H1484     1.0  0.86655  0.71672  0.80631  1.0000
  H   H1485     1.0  0.88722  0.74533  0.78101  1.0000
  H   H1486     1.0  0.87845  0.78416  0.83547  1.0000
  H   H1487     1.0  0.85677  0.75617  0.86036  1.0000
  H   H1488     1.0  0.97665  0.80060  0.73002  1.0000
  H   H1489     1.0  0.80018  0.81407  0.77625  1.0000
  H   H1490     1.0  0.81128  0.84746  0.78673  1.0000
  H   H1491     1.0  0.83351  0.80758  0.83391  1.0000
  C   C932      1.0  0.75574  0.99179  0.77178  1.0000
  H   H1492     1.0  0.82607  0.78308  0.82600  1.0000
  H   H1493     1.0  0.79590  0.85431  0.85830  1.0000
  H   H1494     1.0  0.79612  0.84146  0.81453  1.0000
  C   C933      1.0  0.99336  0.79155  0.72650  1.0000
  C   C934      1.0  0.81891  0.77857  0.96386  1.0000
  C   C935      1.0  0.77615  0.69847  0.81737  1.0000
  C   C936      1.0  0.76476  0.68134  0.81453  1.0000
  C   C937      1.0  0.79758  0.81929  0.68463  1.0000
  C   C938      1.0  0.75253  0.82394  0.87067  1.0000
  C   C939      1.0  0.81266  0.83789  0.80389  1.0000
  H   H1495     1.0  0.78631  0.84450  0.71839  1.0000
  C   C940      1.0  0.97648  0.74218  0.76270  1.0000
  C   C941      1.0  0.95880  0.77566  0.77856  1.0000
  C   C942      1.0  0.82369  0.80614  0.93035  1.0000
  H   H1496     1.0  0.83678  0.82966  0.71339  1.0000
  C   C943      1.0  0.76867  0.71078  0.83546  1.0000
  C   C944      1.0  0.82605  0.84344  0.67167  1.0000
  N   N93       1.0  0.96493  0.75101  0.78357  1.0000
  H   H1497     1.0  0.82055  0.76423  0.95422  1.0000
  H   H1498     1.0  0.84031  0.80857  0.93380  1.0000
  N   N94       1.0  0.80862  0.79981  0.95148  1.0000
  H   H1499     1.0  0.83038  0.73365  0.69122  1.0000
  C   C945      1.0  0.77938  0.85005  0.85865  1.0000
  C   C946      1.0  0.78686  0.79681  0.94589  1.0000
  C   C947      1.0  0.77275  0.74998  0.98541  1.0000
  H   H1500     1.0  0.85453  0.81566  0.79526  1.0000
  H   H1501     1.0  0.78532  0.80786  0.80428  1.0000
  H   H1502     1.0  0.79712  0.83399  0.95703  1.0000
  S   S380      1.0  0.76414  0.75663  0.91360  1.0000
  C   C948      1.0  0.94440  0.74060  0.79211  1.0000
  C   C949      1.0  0.82097  0.80148  0.82607  1.0000
  H   H1503     1.0  0.81636  0.82200  0.92047  1.0000
  H   H1504     1.0  0.97388  0.78419  0.77283  1.0000
  H   H1505     1.0  0.80644  0.78685  0.79274  1.0000
  H   H1506     1.0  0.94916  0.78283  0.79365  1.0000
  N   N95       1.0  0.81922  0.81358  0.80300  1.0000
  C   C950      1.0  0.83482  0.74815  0.67934  1.0000
  H   H1507     1.0  0.78705  0.82916  0.67203  1.0000
  H   H1508     1.0  0.80798  0.80513  0.67662  1.0000
  H   H1509     1.0  0.99239  0.74921  0.75616  1.0000
  S   S381      1.0  0.76400  0.87099  0.77984  1.0000
  H   H1510     1.0  0.77460  0.79326  0.96140  1.0000
  H   H1511     1.0  0.78579  0.86220  0.69162  1.0000
  H   H1512     1.0  0.94826  0.72200  0.79609  1.0000
  S   S382      1.0  0.77679  0.66391  0.79390  1.0000
  H   H1513     1.0  0.93510  0.74710  0.80770  1.0000
  H   H1514     1.0  0.76816  0.88099  0.83790  1.0000
  C   C951      1.0  0.79087  0.73257  0.98521  1.0000
  C   C952      1.0  0.77390  0.82937  0.87030  1.0000
  H   H1515     1.0  0.78613  0.81191  0.69927  1.0000
  H   H1516     1.0  0.79369  0.81340  0.98194  1.0000
  C   C953      1.0  0.84112  0.80982  0.78843  1.0000
  C   C954      1.0  0.80204  0.80519  0.79361  1.0000
  C   C955      1.0  0.80499  0.81776  0.96582  1.0000
  H   H1517     1.0  0.81472  0.66697  0.82151  1.0000
  H   H1518     1.0  0.81748  0.68806  0.83781  1.0000
  H   H1519     1.0  0.82660  0.79297  0.91913  1.0000
  C   C956      1.0  0.82602  0.81942  0.70766  1.0000
  H   H1520     1.0  0.77925  0.81207  0.93534  1.0000
  S   S383      1.0  0.76775  0.91520  0.74013  1.0000
  H   H1521     1.0  0.97187  0.75221  0.81683  1.0000
  H   H1522     1.0  0.82650  0.67587  0.87742  1.0000
  H   H1523     1.0  0.83747  0.80581  0.69962  1.0000
  H   H1524     1.0  0.82106  0.82051  0.97038  1.0000
  H   H1525     1.0  0.76503  0.97522  0.77579  1.0000
  S   S384      1.0  0.75948  0.92150  0.79438  1.0000
  H   H1526     1.0  0.80715  0.86265  0.70835  1.0000
  H   H1527     1.0  0.93260  0.74445  0.77946  1.0000
  H   H1528     1.0  0.84142  0.66847  0.82925  1.0000
  C   C957      1.0  0.85292  0.75833  0.68188  1.0000
  N   N96       1.0  0.81168  0.83341  0.69173  1.0000
  H   H1529     1.0  0.83703  0.85408  0.67644  1.0000
  C   C958      1.0  0.82307  0.67019  0.83532  1.0000
  C   C959      1.0  0.74941  0.70641  0.85061  1.0000
  H   H1530     1.0  0.74818  0.80799  0.87967  1.0000
  H   H1531     1.0  0.98075  0.72356  0.76558  1.0000
  H   H1532     1.0  0.75361  0.70844  0.67811  1.0000
  H   H1533     1.0  0.98502  0.72719  0.80511  1.0000
  H   H1534     1.0  0.74877  0.71805  0.70518  1.0000
  H   H1535     1.0  0.99572  0.75330  0.79492  1.0000
  C   C960      1.0  0.85823  0.77736  0.66671  1.0000
  H   H1536     1.0  0.87217  0.78532  0.66846  1.0000
