data_image0
_chemical_formula_structural       SCSHFeSFeSHFeHCS2H2SC6H4C4SCH2FeSNC4H12CH2CSFeH2CH3FeCHNSHC2SH2SHCH3SFeH4CH2C2H2CHC3H3CSHCHCFeNHC2H6FeSFeSC3SH2C2HC3H3NFeCH2S2HCH2NFeCSCH2CH4C2H2CH3CHCHCSH2SH2CHCHFe2H3C2H4C3SNHCH2C2H4C3FeHSHCNH3CS2CH3FeHSC2SCH2CHCHCH4CH2C3SHCHC2FeC2H4CFeHFeCNH3SH3SHC2SC2SH3CSH3CSCHC2HCHFeH3CNCHCSCH8NH3CH4SC6HSCHCSH3Fe2H2CHCHSH2S2HCSHCNC2H2CH2CH7SH2CH3FeSCFeS4FeS2CH2C2FeH2C6H5CHS2CH3NHCH2C2H3CFeH2CNH2CH2CH2NC2H3CH2CH2C2SHC2FeNH2C2HCH2FeS2H2SCH2SH2CSC2HCH2NCH4C2H4C2H3C2HSH2S2H2NHS2H2CNHCFeSCHCH2CSC2SFeCH2FeCHCSCH2CHFeCSCH2CH5CHC2HCHCHNH4CHC2FeHCFeSNHNH4CSH2CH2CSHNC2HFeCH5SC2HSH8CH5CH3SC3FeHC2H2NC2HCH8CH3FeSHC6H2SH2SH4CHSHSHNH2FeS2FeSCHFe2C6H4CH2C3HCHNH2CH2CH4SH2C2SFeC2HCS2CHSCFeH4C2H2CFeSC2NHCH2C3H2SFeCSH2C3H2C2S2FeSHFeHS2H2S2C7HSFeH4CH3FeSHCHFeH4CSNCHCH3CHC3H5SCHC3HSCFeNC2HSC2H5C2HCFeH2CH8SCNH4S2CHCSHFeH2CSC2HSFeHC3H4CH2NC3SCH3FeC2H2C2H2CNCH7SH2Fe2H2CH2SCH5SHFeS2FeSC6H6NH2SHSHSHC3H2FeNHCH2CH4CHCH3C3H9CFeCS4C2HCSH3CHCS2FeCHFeH4C2HSHSCHNS2FeH2CHC4H2FeHCHC2SH2FeCHSCSH2C2HSH2CHCH4C2HNFeCNCHCHC2H4CH5FeSH2CH3CH5NC2H2SHCHCHS2CH4CHFeCFeCSH5CHSH3C2H2CNH2CHSCH2CHC2H4CFeSH2SH2CSNCFeHC2HFeCHCH4C2H4CH4C2HNH3SCH2SCSH6NH2SH2CH2C2H2CHC3S2HSCH4NH2CHFeC3FeCHCHS2H2C2HNCFeS2FeSH3FeCH4CHFeH2CHCH4C2H2CS3FeHC2SFeHCH2CHSCH2CH2SC2HSCH3CH4NCHCH4NCH4FeS2CSHSFeHSCH2CHC6H6CH5CHNHNHSHFeHCH2C2HSH2CH5CH5CH2SCNH5CH3CHC2SCSCH2SFeHCH2CNCHFeCH2CS2FeH2CHCH2SCH3SFeHC2H8CH2SHFeNS2H2SCHCHSH2S2CHCHCH4C2HSCHNHC2HSCH9CHCH3SHNCHC2HCHCHC3H2CFeC3SFeCHFeCFeSHCHFeSCH2FeCFeCHCHC2H2CHSHFeH2CSHCHNHFeS2H2FeSHFeCSC13H5FeNH3CFeCH2SCHSHC2HC2H4C3H2SH4C2SHFeH5CSCSH2SFeHS2H2CHSCHCHCSH5CHCH4CSHCHC2HCH2FeC2HC3H2CHC3SHFeS2C2NH2CH3SH2FeCH2CSHCHSH3CH2NH4CHCHCFeCSHC2SHCSCH2CSFeSH3C4H3FeH2CHSH2CHSCH3NHCNHFeSH2SH2SC2SH3SCH2NH4CHCH2C2HCSHNCFeCFeC3SH2CH3CS2FeSFeS2HC7H8C2H2SC2HNH2CHFeHFeH2FeH2SH4C5NSCH3C3H3C2HCH2CSH3FeCHC2H4NH6CHSH2C3H2CH3CSH2CHCH2FeC2FeCSHCFeCSH2SH3FeC2H2CSCSFeC2HC4HCH3SH2C3HSFeH3SC5H3CFeSHC2S2H4CHSHNSNHSHCHCH5CSH4NHCH2CHNCHCHFeS2HCSHFeCHCHCHSHCHS2HFeHCNCH2FeC2HSHC3FeHC2SCH2CSHC2SH2FeC2HFeSH3C2HSCFeCH4CSH2CNSCH3CHSHC2H2SHCH8C2H2CSCFeSCHFeCHSCHCH2CHCHCH3FeNH2CH3S2CSH3CSCH2NHCHCH4C2FeS2FeSCSCFeHC2H3C6H5CH4CH2CHC2H2SC2HSH3FeCHSH2CNSFeHCHCFeHC
_chemical_formula_sum              "S288 C720 H1152 Fe144 N72"
_cell_length_a       53.527
_cell_length_b       53.1082
_cell_length_c       66.6115
_cell_angle_alpha    91.1816
_cell_angle_beta     93.3665
_cell_angle_gamma    118.007

_space_group_name_H-M_alt    "P 1"
_space_group_IT_number       1

loop_
  _space_group_symop_operation_xyz
  'x, y, z'

loop_
  _atom_site_type_symbol
  _atom_site_label
  _atom_site_symmetry_multiplicity
  _atom_site_fract_x
  _atom_site_fract_y
  _atom_site_fract_z
  _atom_site_occupancy
  S   S1        1.0  0.23921  0.23485  0.13581  1.0000
  C   C1        1.0  0.25205  0.11177  0.05374  1.0000
  S   S2        1.0  0.20732  0.20195  0.09147  1.0000
  H   H1        1.0  0.28844  0.02353  0.24817  1.0000
  Fe  Fe1       1.0  0.19895  0.22431  0.11701  1.0000
  S   S3        1.0  0.15633  0.20589  0.12987  1.0000
  Fe  Fe2       1.0  0.24916  0.21546  0.10901  1.0000
  S   S4        1.0  0.26837  0.18601  0.11468  1.0000
  H   H2        1.0  0.10319  0.20366  0.13835  1.0000
  Fe  Fe3       1.0  0.03313  0.23198  0.09205  1.0000
  H   H3        1.0  0.15770  0.22593  0.08968  1.0000
  C   C2        1.0  0.12023  0.23104  0.08479  1.0000
  S   S5        1.0  0.19495  0.05192  0.09786  1.0000
  S   S6        1.0  0.25921  0.03368  0.11143  1.0000
  H   H4        1.0  0.28367  0.10669  0.08358  1.0000
  H   H5        1.0  0.23167  0.10258  0.06104  1.0000
  S   S7        1.0  0.00843  0.25340  0.16075  1.0000
  C   C3        1.0  0.24794  0.14881  0.10973  1.0000
  C   C4        1.0  0.22250  0.13717  0.09755  1.0000
  C   C5        1.0  0.20625  0.10740  0.09430  1.0000
  C   C6        1.0  0.21560  0.08908  0.10286  1.0000
  C   C7        1.0  0.24121  0.10070  0.11486  1.0000
  C   C8        1.0  0.25734  0.13049  0.11823  1.0000
  H   H6        1.0  0.21551  0.15113  0.09048  1.0000
  H   H7        1.0  0.18657  0.09852  0.08484  1.0000
  H   H8        1.0  0.24851  0.08675  0.12165  1.0000
  H   H9        1.0  0.27706  0.13937  0.12764  1.0000
  C   C9        1.0  0.13282  0.21424  0.11545  1.0000
  C   C10       1.0  0.10792  0.21119  0.12338  1.0000
  C   C11       1.0  0.08935  0.21836  0.11210  1.0000
  C   C12       1.0  0.09549  0.22833  0.09278  1.0000
  S   S8        1.0  0.28835  0.02806  0.05945  1.0000
  C   C13       1.0  0.13884  0.22402  0.09609  1.0000
  H   H10       1.0  0.28632  0.10803  0.02710  1.0000
  H   H11       1.0  0.07043  0.21634  0.11842  1.0000
  Fe  Fe4       1.0  0.22913  0.24525  0.07865  1.0000
  S   S9        1.0  0.02832  0.27012  0.10188  1.0000
  N   N1        1.0  0.16675  0.13442  0.13860  1.0000
  C   C14       1.0  0.19400  0.16077  0.14285  1.0000
  C   C15       1.0  0.14612  0.13407  0.15256  1.0000
  C   C16       1.0  0.17128  0.10926  0.14138  1.0000
  C   C17       1.0  0.15561  0.13374  0.11764  1.0000
  H   H12       1.0  0.19107  0.18007  0.14157  1.0000
  H   H13       1.0  0.20985  0.16245  0.13215  1.0000
  H   H14       1.0  0.20354  0.16171  0.15832  1.0000
  H   H15       1.0  0.15401  0.13512  0.16854  1.0000
  H   H16       1.0  0.14212  0.15273  0.15062  1.0000
  H   H17       1.0  0.12534  0.11440  0.14989  1.0000
  H   H18       1.0  0.15145  0.08893  0.13752  1.0000
  H   H19       1.0  0.17883  0.10865  0.15720  1.0000
  H   H20       1.0  0.18761  0.10956  0.13167  1.0000
  H   H21       1.0  0.15225  0.15263  0.11500  1.0000
  H   H22       1.0  0.13493  0.11428  0.11393  1.0000
  H   H23       1.0  0.17052  0.13395  0.10666  1.0000
  C   C18       1.0  0.25885  0.25074  0.02624  1.0000
  H   H24       1.0  0.30653  0.12452  0.05061  1.0000
  H   H25       1.0  0.32432  0.04741  0.25777  1.0000
  C   C19       1.0  0.07941  0.23669  0.02586  1.0000
  S   S10       1.0  0.27204  0.25741  0.09421  1.0000
  Fe  Fe5       1.0  0.00409  0.24318  0.12674  1.0000
  H   H26       1.0  0.30586  0.01455  0.21578  1.0000
  H   H27       1.0  0.03422  0.31144  0.14622  1.0000
  C   C20       1.0  0.05871  0.26722  0.03336  1.0000
  H   H28       1.0  0.29979  0.08919  0.04273  1.0000
  H   H29       1.0  0.25096  0.04847  0.04301  1.0000
  H   H30       1.0  0.09733  0.24863  0.03747  1.0000
  Fe  Fe6       1.0  0.25848  0.27566  0.11975  1.0000
  C   C21       1.0  0.24298  0.06439  0.04302  1.0000
  H   H31       1.0  0.30485  0.29954  0.20148  1.0000
  N   N2        1.0  0.26394  0.09166  0.05354  1.0000
  S   S11       1.0  0.21727  0.25413  0.04729  1.0000
  H   H32       1.0  0.26954  0.25149  0.04071  1.0000
  C   C22       1.0  0.23279  0.25097  0.02530  1.0000
  C   C23       1.0  0.32485  0.01683  0.22514  1.0000
  S   S12       1.0  0.07275  0.23755  0.07821  1.0000
  H   H33       1.0  0.07630  0.28019  0.04495  1.0000
  H   H34       1.0  0.24748  0.32822  0.10044  1.0000
  S   S13       1.0  0.21717  0.26640  0.10309  1.0000
  H   H35       1.0  0.06272  0.21872  0.03352  1.0000
  C   C24       1.0  0.27034  0.08642  0.07445  1.0000
  H   H36       1.0  0.21641  0.30299  0.06988  1.0000
  H   H37       1.0  0.22269  0.05476  0.05053  1.0000
  H   H38       1.0  0.15604  0.33156  0.21815  1.0000
  S   S14       1.0  0.28389  0.32142  0.13291  1.0000
  Fe  Fe7       1.0  0.21411  0.02195  0.10158  1.0000
  H   H39       1.0  0.10662  0.31871  0.22646  1.0000
  H   H40       1.0  0.04195  0.24995  0.04145  1.0000
  H   H41       1.0  0.11888  0.32561  0.19121  1.0000
  H   H42       1.0  0.26671  0.13225  0.06227  1.0000
  C   C25       1.0  0.02447  0.28802  0.17314  1.0000
  H   H43       1.0  0.28188  0.07365  0.07498  1.0000
  H   H44       1.0  0.25060  0.07418  0.08210  1.0000
  C   C26       1.0  0.29440  0.30837  0.17157  1.0000
  C   C27       1.0  0.30354  0.31538  0.19214  1.0000
  H   H45       1.0  0.12506  0.23858  0.06983  1.0000
  H   H46       1.0  0.28881  0.28732  0.16521  1.0000
  C   C28       1.0  0.02612  0.29049  0.19433  1.0000
  H   H47       1.0  0.24771  0.11688  0.03822  1.0000
  C   C29       1.0  0.29032  0.10394  0.04299  1.0000
  C   C30       1.0  0.29326  0.32881  0.15920  1.0000
  C   C31       1.0  0.03536  0.31296  0.16251  1.0000
  H   H48       1.0  0.26074  0.30021  0.07689  1.0000
  H   H49       1.0  0.01770  0.27136  0.20271  1.0000
  H   H50       1.0  0.03903  0.31894  0.22104  1.0000
  C   C32       1.0  0.03828  0.31748  0.20477  1.0000
  S   S15       1.0  0.01195  0.20631  0.11806  1.0000
  H   H51       1.0  0.30222  0.01735  0.27178  1.0000
  C   C33       1.0  0.30775  0.02463  0.25629  1.0000
  H   H52       1.0  0.27187  0.31262  0.05272  1.0000
  C   C34       1.0  0.27215  0.31981  0.06861  1.0000
  Fe  Fe8       1.0  0.25727  0.00825  0.08326  1.0000
  N   N3        1.0  0.31771  0.00678  0.24561  1.0000
  H   H53       1.0  0.22734  0.31498  0.04554  1.0000
  C   C35       1.0  0.22873  0.32247  0.06153  1.0000
  C   C36       1.0  0.27966  0.00885  0.03598  1.0000
  H   H54       1.0  0.23801  0.06740  0.02706  1.0000
  H   H55       1.0  0.29452  0.33073  0.07520  1.0000
  H   H56       1.0  0.33323  0.00420  0.21699  1.0000
  H   H57       1.0  0.04978  0.28100  0.02738  1.0000
  H   H58       1.0  0.21774  0.33574  0.06217  1.0000
  H   H59       1.0  0.29020  0.16585  0.37309  1.0000
  Fe  Fe9       1.0  0.22126  0.19713  0.40551  1.0000
  S   S16       1.0  0.20359  0.15115  0.39335  1.0000
  Fe  Fe10      1.0  0.02338  0.21248  0.42082  1.0000
  S   S17       1.0  0.21240  0.22659  0.38596  1.0000
  C   C37       1.0  0.08412  0.20636  0.42215  1.0000
  C   C38       1.0  0.13067  0.21294  0.41430  1.0000
  C   C39       1.0  0.24923  0.19432  0.35400  1.0000
  S   S18       1.0  0.01831  0.27524  0.47777  1.0000
  H   H60       1.0  0.20592  0.21412  0.50941  1.0000
  H   H61       1.0  0.14355  0.20512  0.40719  1.0000
  C   C40       1.0  0.27164  0.16995  0.37151  1.0000
  C   C41       1.0  0.30028  0.21706  0.35975  1.0000
  H   H62       1.0  0.00870  0.32087  0.38927  1.0000
  C   C42       1.0  0.21797  0.12959  0.40311  1.0000
  C   C43       1.0  0.20907  0.10225  0.39408  1.0000
  C   C44       1.0  0.22057  0.08484  0.40133  1.0000
  H   H63       1.0  0.19345  0.09468  0.38131  1.0000
  H   H64       1.0  0.21417  0.06409  0.39409  1.0000
  H   H65       1.0  0.05578  0.24929  0.37660  1.0000
  N   N4        1.0  0.27430  0.18948  0.35531  1.0000
  Fe  Fe11      1.0  0.20851  0.24635  0.41484  1.0000
  C   C45       1.0  0.27599  0.17660  0.33590  1.0000
  H   H66       1.0  0.27205  0.00527  0.49000  1.0000
  H   H67       1.0  0.29468  0.17266  0.33634  1.0000
  S   S19       1.0  0.26820  0.22605  0.40924  1.0000
  S   S20       1.0  0.04598  0.25965  0.42784  1.0000
  H   H68       1.0  0.17970  0.25337  0.46251  1.0000
  C   C46       1.0  0.15979  0.04242  0.42745  1.0000
  H   H69       1.0  0.23731  0.28327  0.50457  1.0000
  H   H70       1.0  0.24732  0.20397  0.36837  1.0000
  N   N5        1.0  0.13887  0.01925  0.41331  1.0000
  Fe  Fe12      1.0  0.23824  0.02594  0.42137  1.0000
  C   C47       1.0  0.24093  0.09463  0.41772  1.0000
  S   S21       1.0  0.04687  0.18673  0.41854  1.0000
  C   C48       1.0  0.28630  0.26468  0.50727  1.0000
  H   H71       1.0  0.25667  0.15577  0.33210  1.0000
  H   H72       1.0  0.29963  0.22756  0.37420  1.0000
  C   C49       1.0  0.10104  0.19582  0.41375  1.0000
  H   H73       1.0  0.31967  0.21434  0.36093  1.0000
  H   H74       1.0  0.16892  0.06344  0.42043  1.0000
  H   H75       1.0  0.15002  0.04462  0.44122  1.0000
  H   H76       1.0  0.30863  0.27938  0.50663  1.0000
  C   C50       1.0  0.00791  0.31428  0.33330  1.0000
  C   C51       1.0  0.23858  0.13948  0.41932  1.0000
  H   H77       1.0  0.09114  0.17476  0.40623  1.0000
  H   H78       1.0  0.22574  0.28967  0.45022  1.0000
  C   C52       1.0  0.14324  0.24074  0.42304  1.0000
  H   H79       1.0  0.11289  0.27525  0.40133  1.0000
  H   H80       1.0  0.06079  0.22283  0.36281  1.0000
  H   H81       1.0  0.12538  0.04680  0.39833  1.0000
  C   C53       1.0  0.01075  0.25661  0.50021  1.0000
  H   H82       1.0  0.02086  0.29418  0.51904  1.0000
  C   C54       1.0  0.07055  0.24024  0.37485  1.0000
  H   H83       1.0  0.23880  0.06155  0.50981  1.0000
  C   C55       1.0  0.24119  0.23065  0.49063  1.0000
  S   S22       1.0  0.25603  0.07366  0.42741  1.0000
  H   H84       1.0  0.09784  0.29517  0.38910  1.0000
  H   H85       1.0  0.27001  0.17887  0.38635  1.0000
  S   S23       1.0  0.21221  0.21386  0.43407  1.0000
  H   H86       1.0  0.25269  0.31559  0.46782  1.0000
  H   H87       1.0  0.13623  0.27191  0.43949  1.0000
  C   C56       1.0  0.25002  0.12207  0.42655  1.0000
  H   H88       1.0  0.30281  0.23242  0.34790  1.0000
  C   C57       1.0  0.26996  0.24981  0.48955  1.0000
  H   H89       1.0  0.17361  0.25478  0.48867  1.0000
  Fe  Fe13      1.0  0.01062  0.25159  0.44740  1.0000
  Fe  Fe14      1.0  0.25871  0.24500  0.43644  1.0000
  H   H90       1.0  0.20413  0.03276  0.51337  1.0000
  H   H91       1.0  0.26596  0.12989  0.43914  1.0000
  H   H92       1.0  0.22854  0.21852  0.47724  1.0000
  C   C58       1.0  0.22603  0.29584  0.50104  1.0000
  C   C59       1.0  0.06279  0.33163  0.35013  1.0000
  H   H93       1.0  0.24569  0.16053  0.42635  1.0000
  H   H94       1.0  0.24375  0.27867  0.46866  1.0000
  H   H95       1.0  0.08445  0.24109  0.43949  1.0000
  H   H96       1.0  0.16251  0.03583  0.38738  1.0000
  C   C60       1.0  0.03969  0.31017  0.35911  1.0000
  C   C61       1.0  0.09709  0.23338  0.43209  1.0000
  C   C62       1.0  0.11121  0.28459  0.38688  1.0000
  S   S24       1.0  0.28164  0.27225  0.36200  1.0000
  N   N6        1.0  0.21283  0.28911  0.48017  1.0000
  H   H97       1.0  0.08713  0.25953  0.33847  1.0000
  C   C63       1.0  0.29280  0.32916  0.36226  1.0000
  H   H98       1.0  0.08222  0.28560  0.35284  1.0000
  H   H99       1.0  0.29961  0.29179  0.32288  1.0000
  C   C64       1.0  0.29185  0.30590  0.35133  1.0000
  C   C65       1.0  0.30018  0.30957  0.33148  1.0000
  H   H100      1.0  0.27796  0.19084  0.32337  1.0000
  H   H101      1.0  0.17791  0.03855  0.43233  1.0000
  H   H102      1.0  0.28669  0.32676  0.37758  1.0000
  H   H103      1.0  0.25219  0.14897  0.36867  1.0000
  C   C66       1.0  0.19024  0.25907  0.47804  1.0000
  C   C67       1.0  0.11766  0.24933  0.36771  1.0000
  C   C68       1.0  0.22678  0.04337  0.51935  1.0000
  Fe  Fe15      1.0  0.25917  0.25654  0.39085  1.0000
  H   H104      1.0  0.11734  0.29264  0.34744  1.0000
  S   S25       1.0  0.04652  0.29769  0.38220  1.0000
  H   H105      1.0  0.22914  0.17399  0.35086  1.0000
  C   C69       1.0  0.09635  0.27564  0.35139  1.0000
  N   N7        1.0  0.09895  0.26245  0.37019  1.0000
  H   H106      1.0  0.11984  0.23912  0.38165  1.0000
  H   H107      1.0  0.13288  0.30142  0.38408  1.0000
  H   H108      1.0  0.13943  0.26548  0.36444  1.0000
  C   C70       1.0  0.01220  0.30113  0.35041  1.0000
  S   S26       1.0  0.17914  0.26472  0.42093  1.0000
  S   S27       1.0  0.25477  0.27863  0.41848  1.0000
  C   C71       1.0  0.12653  0.25060  0.43241  1.0000
  H   H109      1.0  0.10915  0.23248  0.35526  1.0000
  H   H110      1.0  0.25062  0.20930  0.34213  1.0000
  H   H111      1.0  0.10511  0.02897  0.41896  1.0000
  Fe  Fe16      1.0  0.01851  0.26206  0.40191  1.0000
  H   H112      1.0  0.07158  0.23022  0.38914  1.0000
  S   S28       1.0  0.28558  0.25745  0.46620  1.0000
  C   C72       1.0  0.22848  0.22789  0.50895  1.0000
  C   C73       1.0  0.01333  0.27135  0.51863  1.0000
  S   S29       1.0  0.26494  0.00593  0.43286  1.0000
  C   C74       1.0  0.23470  0.29350  0.46612  1.0000
  H   H113      1.0  0.19889  0.24408  0.48104  1.0000
  H   H114      1.0  0.18384  0.30543  0.48578  1.0000
  C   C75       1.0  0.15322  0.01606  0.39588  1.0000
  H   H115      1.0  0.17071  0.01123  0.40070  1.0000
  C   C76       1.0  0.11641  0.02641  0.40620  1.0000
  H   H116      1.0  0.23479  0.02764  0.51726  1.0000
  C   C77       1.0  0.27382  0.00555  0.52258  1.0000
  H   H117      1.0  0.00808  0.33037  0.41504  1.0000
  H   H118      1.0  0.24209  0.31872  0.50350  1.0000
  H   H119      1.0  0.21002  0.29084  0.51231  1.0000
  H   H120      1.0  0.10032  0.00939  0.39545  1.0000
  C   C78       1.0  0.20033  0.30807  0.47538  1.0000
  H   H121      1.0  0.19010  0.30328  0.45971  1.0000
  H   H122      1.0  0.21681  0.33091  0.47654  1.0000
  C   C79       1.0  0.30950  0.33616  0.32267  1.0000
  C   C80       1.0  0.03103  0.33611  0.32454  1.0000
  C   C81       1.0  0.00587  0.33617  0.39930  1.0000
  S   S30       1.0  0.20890  0.19237  0.58711  1.0000
  H   H123      1.0  0.20367  0.24754  0.64737  1.0000
  C   C82       1.0  0.24231  0.12931  0.60179  1.0000
  H   H124      1.0  0.25552  0.11788  0.64080  1.0000
  C   C83       1.0  0.00564  0.25665  0.53649  1.0000
  C   C84       1.0  0.27364  0.26179  0.52563  1.0000
  Fe  Fe17      1.0  0.23648  0.23730  0.57856  1.0000
  C   C85       1.0  0.24640  0.30263  0.68055  1.0000
  C   C86       1.0  0.30606  0.02655  0.68209  1.0000
  H   H125      1.0  0.03731  0.33559  0.76152  1.0000
  H   H126      1.0  0.07860  0.18183  0.57413  1.0000
  H   H127      1.0  0.17442  0.08126  0.61013  1.0000
  H   H128      1.0  0.07222  0.25707  0.56024  1.0000
  C   C87       1.0  0.21852  0.07331  0.54299  1.0000
  Fe  Fe18      1.0  0.20283  0.21271  0.61502  1.0000
  H   H129      1.0  0.27498  0.11826  0.59532  1.0000
  Fe  Fe19      1.0  0.24838  0.19690  0.60402  1.0000
  C   C88       1.0  0.25298  0.11021  0.59844  1.0000
  N   N8        1.0  0.07471  0.21801  0.56357  1.0000
  H   H130      1.0  0.26718  0.30583  0.67555  1.0000
  H   H131      1.0  0.06099  0.24065  0.58350  1.0000
  H   H132      1.0  0.19555  0.06322  0.53791  1.0000
  S   S31       1.0  0.22655  0.24727  0.54695  1.0000
  H   H133      1.0  0.24405  0.06652  0.59685  1.0000
  H   H134      1.0  0.29319  0.24676  0.70615  1.0000
  H   H135      1.0  0.26396  0.09482  0.69191  1.0000
  S   S32       1.0  0.26592  0.16590  0.60240  1.0000
  H   H136      1.0  0.22988  0.09245  0.53410  1.0000
  C   C89       1.0  0.20730  0.07026  0.60395  1.0000
  C   C90       1.0  0.07662  0.24486  0.57207  1.0000
  S   S33       1.0  0.27666  0.24070  0.59370  1.0000
  C   C91       1.0  0.10913  0.24583  0.62499  1.0000
  C   C92       1.0  0.21384  0.11888  0.60571  1.0000
  S   S34       1.0  0.25648  0.02777  0.61321  1.0000
  H   H137      1.0  0.10270  0.21531  0.58695  1.0000
  H   H138      1.0  0.21322  0.29423  0.63393  1.0000
  H   H139      1.0  0.24240  0.29015  0.69429  1.0000
  C   C93       1.0  0.14047  0.21539  0.62614  1.0000
  S   S35       1.0  0.18602  0.03351  0.60684  1.0000
  H   H140      1.0  0.29941  0.04866  0.70706  1.0000
  H   H141      1.0  0.20552  0.13361  0.60835  1.0000
  H   H142      1.0  0.19730  0.30547  0.67490  1.0000
  C   C94       1.0  0.08073  0.20264  0.57983  1.0000
  S   S36       1.0  0.01433  0.23630  0.64825  1.0000
  C   C95       1.0  0.31367  0.04192  0.70086  1.0000
  H   H143      1.0  0.17843  0.27289  0.65951  1.0000
  C   C96       1.0  0.23554  0.08085  0.59953  1.0000
  C   C97       1.0  0.19631  0.08930  0.60675  1.0000
  H   H144      1.0  0.09799  0.25895  0.57975  1.0000
  C   C98       1.0  0.15246  0.24309  0.61935  1.0000
  H   H145      1.0  0.28004  0.09044  0.63024  1.0000
  Fe  Fe20      1.0  0.04232  0.24415  0.62261  1.0000
  H   H146      1.0  0.06599  0.19819  0.59197  1.0000
  H   H147      1.0  0.24076  0.26111  0.65447  1.0000
  H   H148      1.0  0.32328  0.24406  0.76267  1.0000
  C   C99       1.0  0.04584  0.19988  0.55399  1.0000
  N   N9        1.0  0.22999  0.05300  0.54078  1.0000
  C   C100      1.0  0.26432  0.11847  0.65645  1.0000
  H   H149      1.0  0.30896  0.11046  0.64869  1.0000
  C   C101      1.0  0.32862  0.00690  0.75453  1.0000
  S   S37       1.0  0.23968  0.21241  0.63304  1.0000
  C   C102      1.0  0.32468  0.01788  0.67432  1.0000
  H   H150      1.0  0.07549  0.20813  0.63615  1.0000
  H   H151      1.0  0.24892  0.32409  0.68486  1.0000
  H   H152      1.0  0.11771  0.23847  0.55518  1.0000
  H   H153      1.0  0.04358  0.17953  0.54722  1.0000
  H   H154      1.0  0.29972  0.11310  0.68441  1.0000
  H   H155      1.0  0.21583  0.03436  0.56902  1.0000
  H   H156      1.0  0.22276  0.01253  0.55177  1.0000
  H   H157      1.0  0.10325  0.18147  0.63747  1.0000
  N   N10       1.0  0.26755  0.09272  0.66002  1.0000
  H   H158      1.0  0.02951  0.19425  0.56509  1.0000
  H   H159      1.0  0.22381  0.06732  0.66621  1.0000
  H   H160      1.0  0.24118  0.04709  0.65894  1.0000
  C   C103      1.0  0.27862  0.09399  0.68107  1.0000
  H   H161      1.0  0.04039  0.21101  0.54188  1.0000
  H   H162      1.0  0.28703  0.26024  0.75763  1.0000
  H   H163      1.0  0.25036  0.30707  0.64052  1.0000
  H   H164      1.0  0.29054  0.07216  0.64855  1.0000
  S   S38       1.0  0.15981  0.19611  0.62774  1.0000
  C   C104      1.0  0.31078  0.29033  0.66674  1.0000
  C   C105      1.0  0.24449  0.24393  0.52643  1.0000
  C   C106      1.0  0.23965  0.06696  0.65630  1.0000
  C   C107      1.0  0.33016  0.28815  0.70695  1.0000
  C   C108      1.0  0.28766  0.09140  0.64627  1.0000
  C   C109      1.0  0.21428  0.02801  0.55281  1.0000
  H   H165      1.0  0.01508  0.30078  0.71280  1.0000
  S   S39       1.0  0.01457  0.20121  0.60705  1.0000
  C   C110      1.0  0.11265  0.20290  0.63218  1.0000
  H   H166      1.0  0.27292  0.08633  0.53930  1.0000
  C   C111      1.0  0.09691  0.21795  0.63145  1.0000
  S   S40       1.0  0.27281  0.01840  0.66941  1.0000
  H   H167      1.0  0.23084  0.06501  0.64050  1.0000
  H   H168      1.0  0.19131  0.01645  0.54771  1.0000
  H   H169      1.0  0.27674  0.24835  0.67083  1.0000
  Fe  Fe21      1.0  0.26546  0.25610  0.62188  1.0000
  Fe  Fe22      1.0  0.20914  0.00740  0.61051  1.0000
  H   H170      1.0  0.28614  0.27463  0.53890  1.0000
  H   H171      1.0  0.14649  0.27990  0.61395  1.0000
  C   C112      1.0  0.13698  0.25838  0.61905  1.0000
  H   H172      1.0  0.23301  0.32648  0.64951  1.0000
  C   C113      1.0  0.29583  0.26618  0.67768  1.0000
  H   H173      1.0  0.09168  0.23617  0.53583  1.0000
  S   S41       1.0  0.02285  0.26689  0.60453  1.0000
  H   H174      1.0  0.21529  0.24579  0.67282  1.0000
  H   H175      1.0  0.17363  0.25276  0.61438  1.0000
  S   S42       1.0  0.09038  0.26563  0.62390  1.0000
  S   S43       1.0  0.22796  0.25749  0.60561  1.0000
  H   H176      1.0  0.24958  0.12040  0.66672  1.0000
  C   C114      1.0  0.23025  0.30465  0.64632  1.0000
  S   S44       1.0  0.29774  0.29382  0.64234  1.0000
  H   H177      1.0  0.19045  0.27185  0.68502  1.0000
  C   C115      1.0  0.30525  0.26531  0.69773  1.0000
  N   N11       1.0  0.22336  0.28778  0.66447  1.0000
  C   C116      1.0  0.19623  0.28442  0.67131  1.0000
  C   C117      1.0  0.22063  0.25931  0.65959  1.0000
  H   H178      1.0  0.22068  0.08107  0.55897  1.0000
  H   H179      1.0  0.28131  0.07481  0.68412  1.0000
  C   C118      1.0  0.09569  0.22470  0.54838  1.0000
  H   H180      1.0  0.31912  0.00604  0.65991  1.0000
  H   H181      1.0  0.30857  0.00725  0.74961  1.0000
  C   C119      1.0  0.26041  0.06724  0.54793  1.0000
  H   H182      1.0  0.26979  0.05258  0.54635  1.0000
  H   H183      1.0  0.33349  0.01357  0.77085  1.0000
  H   H184      1.0  0.28503  0.13834  0.65863  1.0000
  H   H185      1.0  0.00715  0.26811  0.55052  1.0000
  H   H186      1.0  0.09498  0.20492  0.54177  1.0000
  H   H187      1.0  0.26366  0.07442  0.56411  1.0000
  H   H188      1.0  0.01106  0.28443  0.67696  1.0000
  S   S45       1.0  0.27627  0.00631  0.56400  1.0000
  H   H189      1.0  0.29389  0.02494  0.52458  1.0000
  H   H190      1.0  0.26292  0.23132  0.77163  1.0000
  C   C120      1.0  0.28050  0.25365  0.77308  1.0000
  H   H191      1.0  0.33360  0.29426  0.77279  1.0000
  H   H192      1.0  0.27588  0.01930  0.98571  1.0000
  H   H193      1.0  0.05183  0.19156  0.92999  1.0000
  Fe  Fe23      1.0  0.03302  0.23970  0.93624  1.0000
  S   S46       1.0  0.15842  0.22741  0.89850  1.0000
  C   C121      1.0  0.14336  0.24183  0.93451  1.0000
  Fe  Fe24      1.0  0.23014  0.19202  0.90255  1.0000
  S   S47       1.0  0.27329  0.22803  0.91221  1.0000
  S   S48       1.0  0.22310  0.14915  0.89003  1.0000
  S   S49       1.0  0.20820  0.19927  0.92809  1.0000
  S   S50       1.0  0.21935  0.21833  0.88136  1.0000
  Fe  Fe25      1.0  0.23770  0.02655  0.93509  1.0000
  S   S51       1.0  0.23815  0.06546  0.94964  1.0000
  S   S52       1.0  0.27883  0.02556  0.94019  1.0000
  C   C122      1.0  0.11499  0.23933  0.90416  1.0000
  H   H194      1.0  0.08713  0.22741  0.01412  1.0000
  H   H195      1.0  0.27794  0.22465  0.80617  1.0000
  C   C123      1.0  0.10123  0.24830  0.93651  1.0000
  C   C124      1.0  0.25768  0.24899  0.98943  1.0000
  Fe  Fe26      1.0  0.20066  0.22875  0.90765  1.0000
  H   H196      1.0  0.07853  0.24562  0.90812  1.0000
  H   H197      1.0  0.08465  0.14399  0.92500  1.0000
  C   C125      1.0  0.22440  0.12535  0.90746  1.0000
  C   C126      1.0  0.21576  0.09699  0.90092  1.0000
  C   C127      1.0  0.21913  0.07821  0.91398  1.0000
  C   C128      1.0  0.23116  0.08772  0.93364  1.0000
  C   C129      1.0  0.23908  0.11585  0.94036  1.0000
  C   C130      1.0  0.23575  0.13468  0.92729  1.0000
  H   H198      1.0  0.20673  0.08965  0.88564  1.0000
  H   H199      1.0  0.21241  0.05639  0.90883  1.0000
  H   H200      1.0  0.24830  0.12328  0.95559  1.0000
  H   H201      1.0  0.24245  0.15654  0.93242  1.0000
  H   H202      1.0  0.30070  0.07845  0.90850  1.0000
  C   C131      1.0  0.29537  0.24703  0.80668  1.0000
  H   H203      1.0  0.05973  0.15440  0.88490  1.0000
  S   S53       1.0  0.31338  0.03500  0.89271  1.0000
  S   S54       1.0  0.01433  0.26898  0.92876  1.0000
  C   C132      1.0  0.13819  0.23747  0.91356  1.0000
  H   H204      1.0  0.29915  0.21482  0.77637  1.0000
  H   H205      1.0  0.26768  0.08155  0.85856  1.0000
  H   H206      1.0  0.27091  0.12532  0.89081  1.0000
  N   N12       1.0  0.05150  0.15445  0.91616  1.0000
  H   H207      1.0  0.05615  0.11737  0.90868  1.0000
  C   C133      1.0  0.09137  0.27891  0.00726  1.0000
  H   H208      1.0  0.30837  0.14785  0.89123  1.0000
  H   H209      1.0  0.22076  0.24809  0.97404  1.0000
  C   C134      1.0  0.02037  0.13967  0.91159  1.0000
  C   C135      1.0  0.06121  0.13338  0.92139  1.0000
  H   H210      1.0  0.01242  0.15492  0.90724  1.0000
  H   H211      1.0  0.28762  0.26094  0.81384  1.0000
  H   H212      1.0  0.31315  0.24821  0.81690  1.0000
  C   C136      1.0  0.31570  0.23759  0.77789  1.0000
  Fe  Fe27      1.0  0.25068  0.23763  0.93643  1.0000
  H   H213      1.0  0.31780  0.25439  0.87222  1.0000
  H   H214      1.0  0.32100  0.32653  0.84221  1.0000
  C   C137      1.0  0.05899  0.17541  0.93334  1.0000
  N   N13       1.0  0.29483  0.10312  0.88524  1.0000
  H   H215      1.0  0.09906  0.27061  0.99484  1.0000
  H   H216      1.0  0.05117  0.22896  0.98978  1.0000
  C   C138      1.0  0.31648  0.29009  0.85842  1.0000
  H   H217      1.0  0.31987  0.11268  0.85963  1.0000
  H   H218      1.0  0.27790  0.09324  0.91423  1.0000
  C   C139      1.0  0.31098  0.00429  0.85743  1.0000
  H   H219      1.0  0.27192  0.26757  0.77897  1.0000
  H   H220      1.0  0.03648  0.25232  0.99477  1.0000
  N   N14       1.0  0.30469  0.25605  0.78638  1.0000
  C   C140      1.0  0.04459  0.23860  0.00206  1.0000
  C   C141      1.0  0.27536  0.00834  0.99930  1.0000
  H   H221      1.0  0.12879  0.25031  0.96216  1.0000
  H   H222      1.0  0.05100  0.12161  0.93473  1.0000
  H   H223      1.0  0.31814  0.31852  0.95342  1.0000
  C   C142      1.0  0.09649  0.24455  0.91556  1.0000
  H   H224      1.0  0.08382  0.29334  0.00043  1.0000
  H   H225      1.0  0.19908  0.25033  0.00556  1.0000
  C   C143      1.0  0.27050  0.07802  0.87476  1.0000
  H   H226      1.0  0.11105  0.23626  0.88795  1.0000
  H   H227      1.0  0.31547  0.11595  0.91516  1.0000
  C   C144      1.0  0.23144  0.24881  0.98852  1.0000
  C   C145      1.0  0.21922  0.25011  0.00640  1.0000
  S   S55       1.0  0.07678  0.25227  0.95121  1.0000
  H   H228      1.0  0.08909  0.18003  0.90106  1.0000
  C   C146      1.0  0.27136  0.25003  0.00835  1.0000
  C   C147      1.0  0.28086  0.02296  0.01820  1.0000
  Fe  Fe28      1.0  0.27222  0.00910  0.90788  1.0000
  N   N15       1.0  0.06852  0.25536  0.01715  1.0000
  H   H229      1.0  0.25033  0.07313  0.88158  1.0000
  H   H230      1.0  0.29923  0.31673  0.90978  1.0000
  C   C148      1.0  0.29741  0.09749  0.90671  1.0000
  C   C149      1.0  0.32734  0.28604  0.78786  1.0000
  H   H231      1.0  0.08238  0.18722  0.93704  1.0000
  C   C150      1.0  0.06552  0.16939  0.89834  1.0000
  H   H232      1.0  0.28767  0.13304  0.86765  1.0000
  H   H233      1.0  0.04546  0.30674  0.81074  1.0000
  Fe  Fe29      1.0  0.26095  0.25504  0.89276  1.0000
  S   S56       1.0  0.24169  0.26780  0.91774  1.0000
  S   S57       1.0  0.28794  0.28873  0.87140  1.0000
  H   H234      1.0  0.16119  0.24042  0.94188  1.0000
  H   H235      1.0  0.01272  0.27864  0.78118  1.0000
  S   S58       1.0  0.01334  0.21175  0.90800  1.0000
  C   C151      1.0  0.12497  0.24739  0.94595  1.0000
  H   H236      1.0  0.29167  0.25019  0.00916  1.0000
  H   H237      1.0  0.05949  0.18621  0.89438  1.0000
  S   S59       1.0  0.27469  0.24937  0.96737  1.0000
  H   H238      1.0  0.04893  0.16494  0.94710  1.0000
  H   H239      1.0  0.28609  0.04526  0.01899  1.0000
  C   C152      1.0  0.29032  0.12845  0.88363  1.0000
  S   S60       1.0  0.23239  0.01318  0.90229  1.0000
  C   C153      1.0  0.03461  0.32020  0.81099  1.0000
  C   C154      1.0  0.32514  0.02984  0.86926  1.0000
  H   H240      1.0  0.00898  0.12878  0.92486  1.0000
  C   C155      1.0  0.32100  0.33359  0.91497  1.0000
  H   H241      1.0  0.01376  0.12332  0.89893  1.0000
  H   H242      1.0  0.27345  0.05862  0.87554  1.0000
  N   N16       1.0  0.02274  0.32154  0.79066  1.0000
  C   C156      1.0  0.32188  0.30492  0.94233  1.0000
  H   H243      1.0  0.31957  0.01692  0.96852  1.0000
  H   H244      1.0  0.32053  0.30038  0.79548  1.0000
  H   H245      1.0  0.30069  0.28730  0.93683  1.0000
  H   H246      1.0  0.01767  0.31089  0.82168  1.0000
  C   C157      1.0  0.32111  0.10845  0.87586  1.0000
  C   C158      1.0  0.04582  0.33448  0.77701  1.0000
  H   H247      1.0  0.32078  0.28412  0.90523  1.0000
  H   H248      1.0  0.05741  0.32184  0.77569  1.0000
  H   H249      1.0  0.02662  0.22101  0.00900  1.0000
  H   H250      1.0  0.33400  0.23889  0.78761  1.0000
  C   C159      1.0  0.32915  0.31159  0.84479  1.0000
  C   C160      1.0  0.32738  0.27109  0.86181  1.0000
  H   H251      1.0  0.10987  0.29202  0.01814  1.0000
  H   H252      1.0  0.32502  0.08967  0.87677  1.0000
  H   H253      1.0  0.33329  0.29486  0.95059  1.0000
  C   C161      1.0  0.00231  0.29237  0.78266  1.0000
  C   C162      1.0  0.07477  0.45216  0.21512  1.0000
  H   H254      1.0  0.31481  0.38395  0.19481  1.0000
  S   S61       1.0  0.05002  0.64017  0.26663  1.0000
  H   H255      1.0  0.05560  0.35905  0.16452  1.0000
  H   H256      1.0  0.09447  0.50576  0.23002  1.0000
  S   S62       1.0  0.06463  0.37704  0.20646  1.0000
  S   S63       1.0  0.32412  0.35069  0.22640  1.0000
  H   H257      1.0  0.29661  0.37632  0.06458  1.0000
  H   H258      1.0  0.06011  0.42876  0.21465  1.0000
  N   N17       1.0  0.05907  0.46879  0.21523  1.0000
  H   H259      1.0  0.02464  0.43817  0.19525  1.0000
  S   S64       1.0  0.27967  0.44927  0.25265  1.0000
  S   S65       1.0  0.11716  0.66113  0.26080  1.0000
  H   H260      1.0  0.15181  0.39705  0.23386  1.0000
  H   H261      1.0  0.28142  0.35826  0.09851  1.0000
  C   C163      1.0  0.07944  0.49966  0.21634  1.0000
  N   N18       1.0  0.13629  0.35858  0.21506  1.0000
  H   H262      1.0  0.26433  0.37842  0.05924  1.0000
  C   C164      1.0  0.23326  0.40386  0.26692  1.0000
  Fe  Fe30      1.0  0.07364  0.38814  0.24032  1.0000
  S   S66       1.0  0.11681  0.42514  0.24866  1.0000
  C   C165      1.0  0.04891  0.34240  0.19412  1.0000
  H   H263      1.0  0.23507  0.46501  0.25101  1.0000
  C   C166      1.0  0.22678  0.44408  0.25707  1.0000
  H   H264      1.0  0.10664  0.35172  0.18968  1.0000
  H   H265      1.0  0.08959  0.45755  0.22886  1.0000
  C   C167      1.0  0.24413  0.43086  0.25905  1.0000
  S   S67       1.0  0.11065  0.49000  0.26773  1.0000
  C   C168      1.0  0.04746  0.33996  0.17295  1.0000
  C   C169      1.0  0.04010  0.46140  0.19658  1.0000
  S   S68       1.0  0.07776  0.36121  0.26435  1.0000
  Fe  Fe31      1.0  0.09539  0.44168  0.26961  1.0000
  C   C170      1.0  0.25930  0.34703  0.09138  1.0000
  H   H266      1.0  0.09488  0.34525  0.22534  1.0000
  H   H267      1.0  0.06845  0.51296  0.21706  1.0000
  Fe  Fe32      1.0  0.32967  0.38860  0.24638  1.0000
  C   C171      1.0  0.04194  0.46188  0.23288  1.0000
  H   H268      1.0  0.30000  0.37210  0.15828  1.0000
  C   C172      1.0  0.30084  0.35615  0.16772  1.0000
  S   S69       1.0  0.29670  0.38619  0.26684  1.0000
  C   C173      1.0  0.14441  0.38920  0.21789  1.0000
  H   H269      1.0  0.02602  0.43885  0.23237  1.0000
  H   H270      1.0  0.05553  0.46647  0.24717  1.0000
  C   C174      1.0  0.16134  0.35443  0.22011  1.0000
  H   H271      1.0  0.09243  0.50574  0.20311  1.0000
  Fe  Fe33      1.0  0.31033  0.43149  0.25913  1.0000
  C   C175      1.0  0.19897  0.43067  0.26331  1.0000
  S   S70       1.0  0.05183  0.40618  0.25952  1.0000
  C   C176      1.0  0.30932  0.36295  0.18844  1.0000
  H   H272      1.0  0.05233  0.46637  0.18296  1.0000
  H   H273      1.0  0.16980  0.36163  0.23605  1.0000
  C   C177      1.0  0.31098  0.34262  0.20071  1.0000
  H   H274      1.0  0.02779  0.47345  0.19622  1.0000
  H   H275      1.0  0.27386  0.35800  0.04237  1.0000
  H   H276      1.0  0.03044  0.47466  0.23386  1.0000
  H   H277      1.0  0.08764  0.45641  0.20188  1.0000
  H   H278      1.0  0.12612  0.39317  0.21379  1.0000
  C   C178      1.0  0.12553  0.34874  0.19388  1.0000
  H   H279      1.0  0.12134  0.34857  0.24460  1.0000
  C   C179      1.0  0.11432  0.54369  0.26802  1.0000
  C   C180      1.0  0.11380  0.34201  0.22846  1.0000
  H   H280      1.0  0.24963  0.36138  0.09309  1.0000
  C   C181      1.0  0.27403  0.36395  0.05853  1.0000
  H   H281      1.0  0.18595  0.44125  0.26205  1.0000
  C   C182      1.0  0.10529  0.56439  0.27168  1.0000
  H   H282      1.0  0.24624  0.39331  0.26827  1.0000
  N   N19       1.0  0.25854  0.33833  0.07002  1.0000
  H   H283      1.0  0.16188  0.40255  0.20845  1.0000
  H   H284      1.0  0.14192  0.36075  0.18331  1.0000
  H   H285      1.0  0.11809  0.58619  0.26766  1.0000
  H   H286      1.0  0.17890  0.36686  0.21044  1.0000
  C   C183      1.0  0.18846  0.40399  0.27168  1.0000
  H   H287      1.0  0.13408  0.54992  0.26117  1.0000
  C   C184      1.0  0.09820  0.51518  0.27324  1.0000
  C   C185      1.0  0.20564  0.39061  0.27335  1.0000
  Fe  Fe34      1.0  0.11974  0.39928  0.27385  1.0000
  H   H288      1.0  0.30388  0.37386  0.36235  1.0000
  C   C186      1.0  0.05854  0.34440  0.33287  1.0000
  Fe  Fe35      1.0  0.05970  0.38183  0.28456  1.0000
  S   S71       1.0  0.10201  0.41840  0.29587  1.0000
  N   N20       1.0  0.02569  0.60162  0.33377  1.0000
  H   H289      1.0  0.26095  0.45308  0.34685  1.0000
  N   N21       1.0  0.02678  0.36603  0.39611  1.0000
  H   H290      1.0  0.25465  0.41739  0.35153  1.0000
  H   H291      1.0  0.06031  0.35604  0.39032  1.0000
  H   H292      1.0  0.05894  0.36444  0.41624  1.0000
  H   H293      1.0  0.30508  0.43128  0.34604  1.0000
  C   C187      1.0  0.02205  0.38552  0.40967  1.0000
  S   S72       1.0  0.06769  0.58222  0.28627  1.0000
  H   H294      1.0  0.31950  0.44739  0.32336  1.0000
  H   H295      1.0  0.02446  0.38118  0.42577  1.0000
  C   C188      1.0  0.31108  0.35959  0.33376  1.0000
  H   H296      1.0  0.04417  0.52224  0.29291  1.0000
  H   H297      1.0  0.07649  0.36122  0.32630  1.0000
  C   C189      1.0  0.03605  0.62960  0.34479  1.0000
  S   S73       1.0  0.02470  0.35412  0.30437  1.0000
  H   H298      1.0  0.03609  0.62026  0.30530  1.0000
  N   N22       1.0  0.27497  0.43391  0.32443  1.0000
  C   C190      1.0  0.25499  0.43180  0.33951  1.0000
  C   C191      1.0  0.26622  0.40520  0.31513  1.0000
  H   H299      1.0  0.23294  0.42311  0.33242  1.0000
  Fe  Fe36      1.0  0.33238  0.40551  0.29110  1.0000
  C   C192      1.0  0.30257  0.35588  0.35356  1.0000
  H   H300      1.0  0.28036  0.40614  0.30326  1.0000
  H   H301      1.0  0.26731  0.39045  0.32639  1.0000
  H   H302      1.0  0.24416  0.39533  0.30804  1.0000
  H   H303      1.0  0.28902  0.45452  0.29678  1.0000
  H   H304      1.0  0.31128  0.46709  0.34169  1.0000
  S   S74       1.0  0.09584  0.66175  0.30596  1.0000
  C   C193      1.0  0.30393  0.44552  0.33437  1.0000
  C   C194      1.0  0.27471  0.45304  0.30871  1.0000
  H   H305      1.0  0.28186  0.47511  0.31503  1.0000
  S   S75       1.0  0.32435  0.39408  0.32389  1.0000
  H   H306      1.0  0.06752  0.60888  0.32764  1.0000
  H   H307      1.0  0.04137  0.57224  0.32623  1.0000
  H   H308      1.0  0.00585  0.57770  0.35907  1.0000
  H   H309      1.0  0.05481  0.64653  0.33806  1.0000
  H   H310      1.0  0.03746  0.40826  0.40769  1.0000
  H   H311      1.0  0.05505  0.59121  0.35043  1.0000
  H   H312      1.0  0.25307  0.44525  0.30115  1.0000
  H   H313      1.0  0.06005  0.48589  0.28630  1.0000
  C   C195      1.0  0.02339  0.37251  0.37494  1.0000
  H   H314      1.0  0.08415  0.33888  0.35677  1.0000
  H   H315      1.0  0.03860  0.39496  0.37200  1.0000
  H   H316      1.0  0.19755  0.36985  0.27966  1.0000
  H   H317      1.0  0.04241  0.62894  0.36089  1.0000
  H   H318      1.0  0.01042  0.58341  0.30351  1.0000
  C   C196      1.0  0.04834  0.59308  0.33466  1.0000
  H   H319      1.0  0.01955  0.63680  0.34426  1.0000
  H   H320      1.0  0.31603  0.33865  0.30745  1.0000
  H   H321      1.0  0.07216  0.39237  0.39869  1.0000
  S   S76       1.0  0.15428  0.38664  0.28056  1.0000
  C   C197      1.0  0.07997  0.55693  0.28074  1.0000
  C   C198      1.0  0.01771  0.60386  0.31253  1.0000
  C   C199      1.0  0.05582  0.36997  0.40058  1.0000
  Fe  Fe37      1.0  0.08372  0.62966  0.27963  1.0000
  H   H322      1.0  0.02737  0.35858  0.36434  1.0000
  C   C200      1.0  0.06377  0.52836  0.28588  1.0000
  C   C201      1.0  0.07273  0.50762  0.28212  1.0000
  H   H323      1.0  0.02505  0.64086  0.61018  1.0000
  H   H324      1.0  0.03670  0.66092  0.64558  1.0000
  N   N23       1.0  0.00257  0.65893  0.62566  1.0000
  C   C202      1.0  0.01435  0.65685  0.64584  1.0000
  C   C203      1.0  0.00305  0.63751  0.61139  1.0000
  H   H325      1.0  0.02742  0.56726  0.83281  1.0000
  C   C204      1.0  0.02411  0.58577  0.83721  1.0000
  H   H326      1.0  0.01239  0.62898  0.82901  1.0000
  H   H327      1.0  0.05026  0.34182  0.81742  1.0000
  H   H328      1.0  0.04319  0.60558  0.83356  1.0000
  H   H329      1.0  0.02306  0.58624  0.85385  1.0000
  H   H330      1.0  0.00286  0.56449  0.79932  1.0000
  H   H331      1.0  0.02276  0.36122  0.79816  1.0000
  H   H332      1.0  0.31855  0.34920  0.92496  1.0000
  H   H333      1.0  0.01858  0.60299  0.80011  1.0000
  C   C205      1.0  0.00816  0.33917  0.79189  1.0000
  H   H334      1.0  0.06149  0.35665  0.78239  1.0000
  H   H335      1.0  0.33110  0.34450  0.90131  1.0000
  H   H336      1.0  0.10421  0.77615  0.22896  1.0000
  Fe  Fe38      1.0  0.24118  0.99124  0.12615  1.0000
  S   S77       1.0  0.21335  0.99911  0.07269  1.0000
  H   H337      1.0  0.04914  0.71862  0.15920  1.0000
  C   C206      1.0  0.06431  0.69985  0.20549  1.0000
  C   C207      1.0  0.05748  0.71725  0.21755  1.0000
  C   C208      1.0  0.04500  0.73602  0.18751  1.0000
  C   C209      1.0  0.04806  0.73537  0.20858  1.0000
  C   C210      1.0  0.05132  0.71825  0.17543  1.0000
  C   C211      1.0  0.06108  0.70035  0.18441  1.0000
  H   H338      1.0  0.29129  0.75906  0.25613  1.0000
  H   H339      1.0  0.04326  0.74910  0.21805  1.0000
  S   S78       1.0  0.25182  0.82254  0.24559  1.0000
  H   H340      1.0  0.20946  0.76496  0.23670  1.0000
  H   H341      1.0  0.01879  0.79619  0.06052  1.0000
  S   S79       1.0  0.24874  0.98418  0.15922  1.0000
  H   H342      1.0  0.13791  0.78871  0.19138  1.0000
  H   H343      1.0  0.30417  0.81969  0.24614  1.0000
  H   H344      1.0  0.30515  0.99152  0.15172  1.0000
  H   H345      1.0  0.14635  0.75978  0.19366  1.0000
  C   C212      1.0  0.19098  0.74831  0.26446  1.0000
  H   H346      1.0  0.13004  0.81069  0.22201  1.0000
  S   S80       1.0  0.33136  0.94725  0.20757  1.0000
  H   H347      1.0  0.20953  0.94210  0.04022  1.0000
  S   S81       1.0  0.19575  0.98155  0.11828  1.0000
  H   H348      1.0  0.23988  0.94673  0.19145  1.0000
  N   N24       1.0  0.04094  0.83567  0.04631  1.0000
  H   H349      1.0  0.07964  0.86964  0.06032  1.0000
  H   H350      1.0  0.32632  0.80369  0.24134  1.0000
  Fe  Fe39      1.0  0.19919  0.95993  0.09020  1.0000
  S   S82       1.0  0.16617  0.91726  0.07617  1.0000
  S   S83       1.0  0.24335  0.96693  0.09869  1.0000
  Fe  Fe40      1.0  0.02483  0.81289  0.11810  1.0000
  S   S84       1.0  0.04668  0.86020  0.11320  1.0000
  C   C213      1.0  0.27324  0.98009  0.03476  1.0000
  H   H351      1.0  0.30252  0.96276  0.23705  1.0000
  Fe  Fe41      1.0  0.08401  0.67372  0.24972  1.0000
  Fe  Fe42      1.0  0.01056  0.75611  0.09849  1.0000
  C   C214      1.0  0.13457  0.90211  0.08852  1.0000
  C   C215      1.0  0.12200  0.91869  0.09442  1.0000
  C   C216      1.0  0.09529  0.90569  0.10238  1.0000
  C   C217      1.0  0.08135  0.87620  0.10497  1.0000
  C   C218      1.0  0.09455  0.85989  0.09978  1.0000
  C   C219      1.0  0.12077  0.87269  0.09119  1.0000
  H   H352      1.0  0.13252  0.94144  0.09241  1.0000
  H   H353      1.0  0.08536  0.91853  0.10647  1.0000
  H   H354      1.0  0.08444  0.83733  0.10199  1.0000
  H   H355      1.0  0.13049  0.85978  0.08679  1.0000
  C   C220      1.0  0.27025  0.97007  0.17017  1.0000
  H   H356      1.0  0.06639  0.68699  0.17498  1.0000
  H   H357      1.0  0.28821  0.96878  0.25914  1.0000
  C   C221      1.0  0.30654  0.95353  0.19240  1.0000
  C   C222      1.0  0.27873  0.94428  0.19759  1.0000
  C   C223      1.0  0.26096  0.95305  0.18682  1.0000
  H   H358      1.0  0.17626  0.72743  0.25768  1.0000
  C   C224      1.0  0.29757  0.97812  0.16433  1.0000
  H   H359      1.0  0.17869  0.81949  0.21588  1.0000
  N   N25       1.0  0.14397  0.77873  0.22187  1.0000
  H   H360      1.0  0.27104  0.93086  0.21016  1.0000
  H   H361      1.0  0.05982  0.71701  0.23378  1.0000
  C   C225      1.0  0.01752  0.74389  0.02892  1.0000
  H   H362      1.0  0.15139  0.74284  0.22711  1.0000
  H   H363      1.0  0.27593  0.97429  0.23477  1.0000
  C   C226      1.0  0.20977  0.76959  0.25263  1.0000
  H   H364      1.0  0.11162  0.75443  0.19830  1.0000
  H   H365      1.0  0.11664  0.73703  0.23192  1.0000
  H   H366      1.0  0.13383  0.79837  0.24641  1.0000
  H   H367      1.0  0.02308  0.86444  0.04427  1.0000
  S   S85       1.0  0.03389  0.75997  0.17728  1.0000
  H   H368      1.0  0.08437  0.84961  0.04026  1.0000
  H   H369      1.0  0.14620  0.75903  0.24937  1.0000
  C   C227      1.0  0.12730  0.79159  0.23020  1.0000
  C   C228      1.0  0.07045  0.85844  0.04530  1.0000
  S   S86       1.0  0.07860  0.67861  0.21609  1.0000
  Fe  Fe43      1.0  0.32252  0.92297  0.23640  1.0000
  C   C229      1.0  0.31568  0.97011  0.17552  1.0000
  C   C230      1.0  0.02361  0.84808  0.05419  1.0000
  H   H370      1.0  0.27269  0.96919  0.04842  1.0000
  C   C231      1.0  0.00398  0.74186  0.04671  1.0000
  S   S87       1.0  0.04773  0.78686  0.11935  1.0000
  S   S88       1.0  0.32530  0.88223  0.23901  1.0000
  C   C232      1.0  0.13940  0.75335  0.23306  1.0000
  H   H371      1.0  0.07159  0.87484  0.03475  1.0000
  S   S89       1.0  0.28171  0.90635  0.25121  1.0000
  C   C233      1.0  0.13461  0.77008  0.20036  1.0000
  Fe  Fe44      1.0  0.28629  0.86704  0.25615  1.0000
  H   H372      1.0  0.18240  0.80650  0.23996  1.0000
  H   H373      1.0  0.03743  0.74319  0.02952  1.0000
  H   H374      1.0  0.18299  0.90574  0.03557  1.0000
  H   H375      1.0  0.04820  0.82294  0.07557  1.0000
  C   C234      1.0  0.04060  0.81392  0.05990  1.0000
  C   C235      1.0  0.17446  0.79985  0.22388  1.0000
  H   H376      1.0  0.18770  0.79103  0.21753  1.0000
  H   H377      1.0  0.05397  0.80438  0.05494  1.0000
  C   C236      1.0  0.22901  0.79670  0.26130  1.0000
  Fe  Fe45      1.0  0.02112  0.76487  0.14481  1.0000
  S   S90       1.0  0.02028  0.73955  0.06996  1.0000
  C   C237      1.0  0.32156  0.81590  0.25289  1.0000
  C   C238      1.0  0.29502  0.97686  0.24408  1.0000
  N   N26       1.0  0.31353  0.80052  0.27163  1.0000
  H   H378      1.0  0.03218  0.85855  0.06952  1.0000
  C   C239      1.0  0.02899  0.82212  0.02597  1.0000
  H   H379      1.0  0.17187  0.95638  0.03975  1.0000
  H   H380      1.0  0.14540  0.92014  0.03464  1.0000
  C   C240      1.0  0.28774  0.77279  0.26720  1.0000
  C   C241      1.0  0.19662  0.92560  0.02800  1.0000
  C   C242      1.0  0.15996  0.93988  0.02734  1.0000
  H   H381      1.0  0.26973  0.77585  0.26071  1.0000
  H   H382      1.0  0.00648  0.80536  0.02617  1.0000
  S   S91       1.0  0.09531  0.70831  0.27386  1.0000
  Fe  Fe46      1.0  0.12628  0.69389  0.28604  1.0000
  C   C243      1.0  0.29122  0.96315  0.45211  1.0000
  S   S92       1.0  0.16890  0.72717  0.30034  1.0000
  H   H383      1.0  0.30327  0.93100  0.42701  1.0000
  H   H384      1.0  0.27188  0.90084  0.47504  1.0000
  C   C244      1.0  0.03558  0.69538  0.33292  1.0000
  C   C245      1.0  0.06146  0.70610  0.34453  1.0000
  C   C246      1.0  0.04220  0.72206  0.37164  1.0000
  H   H385      1.0  0.07894  0.70405  0.33876  1.0000
  H   H386      1.0  0.08459  0.72688  0.37280  1.0000
  C   C247      1.0  0.06463  0.71913  0.36383  1.0000
  C   C248      1.0  0.22258  0.95510  0.51732  1.0000
  S   S93       1.0  0.20041  0.99668  0.43754  1.0000
  S   S94       1.0  0.04736  0.73799  0.39630  1.0000
  Fe  Fe47      1.0  0.01978  0.75247  0.41307  1.0000
  S   S95       1.0  0.22089  0.95248  0.47618  1.0000
  H   H387      1.0  0.27647  0.96923  0.45940  1.0000
  Fe  Fe48      1.0  0.18798  0.96899  0.40907  1.0000
  H   H388      1.0  0.28068  0.76081  0.28107  1.0000
  S   S96       1.0  0.29804  0.95419  0.29844  1.0000
  S   S97       1.0  0.31058  0.88346  0.28638  1.0000
  H   H389      1.0  0.30032  0.93580  0.48275  1.0000
  H   H390      1.0  0.09229  0.82681  0.42295  1.0000
  S   S98       1.0  0.01899  0.79328  0.40579  1.0000
  S   S99       1.0  0.27360  0.95776  0.39109  1.0000
  C   C249      1.0  0.08515  0.81908  0.38286  1.0000
  C   C250      1.0  0.29000  0.95345  0.32406  1.0000
  C   C251      1.0  0.27800  0.97043  0.33070  1.0000
  C   C252      1.0  0.27224  0.97146  0.35102  1.0000
  C   C253      1.0  0.27886  0.95585  0.36506  1.0000
  C   C254      1.0  0.29079  0.93879  0.35842  1.0000
  C   C255      1.0  0.29614  0.93740  0.33802  1.0000
  H   H391      1.0  0.13827  0.99814  0.38520  1.0000
  S   S100      1.0  0.22409  0.99969  0.39188  1.0000
  Fe  Fe49      1.0  0.03168  0.80589  0.43861  1.0000
  H   H392      1.0  0.31257  0.97582  0.46016  1.0000
  H   H393      1.0  0.21208  0.78504  0.30994  1.0000
  H   H394      1.0  0.05563  0.86025  0.41177  1.0000
  H   H395      1.0  0.11956  0.81647  0.42671  1.0000
  C   C256      1.0  0.26146  0.99449  0.50298  1.0000
  H   H396      1.0  0.06779  0.79657  0.38185  1.0000
  H   H397      1.0  0.25364  0.92233  0.42574  1.0000
  H   H398      1.0  0.14226  0.98591  0.42911  1.0000
  Fe  Fe50      1.0  0.24769  0.97702  0.40461  1.0000
  S   S101      1.0  0.03517  0.76649  0.44569  1.0000
  H   H399      1.0  0.29485  0.90183  0.44318  1.0000
  C   C257      1.0  0.09364  0.89800  0.40493  1.0000
  H   H400      1.0  0.08478  0.79107  0.41632  1.0000
  Fe  Fe51      1.0  0.06413  0.67383  0.29205  1.0000
  H   H401      1.0  0.12498  0.86676  0.40338  1.0000
  H   H402      1.0  0.09081  0.82524  0.36726  1.0000
  H   H403      1.0  0.13908  0.85965  0.38149  1.0000
  H   H404      1.0  0.13930  0.80512  0.39680  1.0000
  C   C258      1.0  0.12074  0.80356  0.38734  1.0000
  S   S102      1.0  0.14245  0.94541  0.39632  1.0000
  N   N27       1.0  0.10993  0.82219  0.39581  1.0000
  C   C259      1.0  0.13241  0.85229  0.39673  1.0000
  H   H405      1.0  0.33193  0.78458  0.29425  1.0000
  C   C260      1.0  0.07693  0.87592  0.41718  1.0000
  H   H406      1.0  0.15156  0.85543  0.40622  1.0000
  H   H407      1.0  0.08525  0.89913  0.38999  1.0000
  H   H408      1.0  0.12739  0.80926  0.37184  1.0000
  C   C261      1.0  0.12125  0.91840  0.41191  1.0000
  H   H409      1.0  0.26317  0.98476  0.35588  1.0000
  C   C262      1.0  0.10133  0.81378  0.41633  1.0000
  C   C263      1.0  0.19170  0.75383  0.28513  1.0000
  C   C264      1.0  0.21140  0.78073  0.29391  1.0000
  H   H410      1.0  0.29611  0.92670  0.36913  1.0000
  H   H411      1.0  0.12350  0.89418  0.45856  1.0000
  H   H412      1.0  0.10413  0.78072  0.38641  1.0000
  H   H413      1.0  0.23718  0.92103  0.44872  1.0000
  H   H414      1.0  0.07634  0.83275  0.38884  1.0000
  S   S103      1.0  0.21016  0.94455  0.41944  1.0000
  C   C265      1.0  0.30773  0.81776  0.28648  1.0000
  H   H415      1.0  0.26421  0.92938  0.48150  1.0000
  C   C266      1.0  0.01313  0.69826  0.34072  1.0000
  C   C267      1.0  0.12600  0.99212  0.42363  1.0000
  C   C268      1.0  0.08765  0.87452  0.43657  1.0000
  H   H416      1.0  0.32695  0.83866  0.29044  1.0000
  S   S104      1.0  0.02977  0.67664  0.30925  1.0000
  C   C269      1.0  0.23588  0.96902  0.50031  1.0000
  Fe  Fe52      1.0  0.22586  0.97473  0.44681  1.0000
  N   N28       1.0  0.28134  0.93215  0.45273  1.0000
  C   C270      1.0  0.13192  0.91689  0.43126  1.0000
  C   C271      1.0  0.11509  0.89516  0.44358  1.0000
  H   H417      1.0  0.15315  0.93251  0.43683  1.0000
  S   S105      1.0  0.06774  0.84711  0.45234  1.0000
  C   C272      1.0  0.27940  0.92413  0.47393  1.0000
  C   C273      1.0  0.22983  0.80228  0.28199  1.0000
  H   H418      1.0  0.24450  0.82314  0.28881  1.0000
  H   H419      1.0  0.32325  0.93679  0.45085  1.0000
  H   H420      1.0  0.29269  0.96990  0.43629  1.0000
  H   H421      1.0  0.02384  0.73664  0.49393  1.0000
  H   H422      1.0  0.30553  0.92439  0.33319  1.0000
  C   C274      1.0  0.30159  0.92508  0.44306  1.0000
  C   C275      1.0  0.01646  0.71175  0.35991  1.0000
  H   H423      1.0  0.27322  0.98298  0.32008  1.0000
  C   C276      1.0  0.25306  0.91638  0.44172  1.0000
  Fe  Fe53      1.0  0.30936  0.92445  0.28022  1.0000
  H   H424      1.0  0.11486  0.99356  0.43684  1.0000
  H   H425      1.0  0.24504  0.89290  0.44165  1.0000
  C   C277      1.0  0.01141  0.73481  0.50659  1.0000
  H   H426      1.0  0.11034  0.97412  0.41330  1.0000
  H   H427      1.0  0.30097  0.80664  0.30069  1.0000
  H   H428      1.0  0.20294  0.93524  0.51538  1.0000
  H   H429      1.0  0.29046  0.82222  0.28046  1.0000
  H   H430      1.0  0.30294  0.93587  0.76022  1.0000
  H   H431      1.0  0.05508  0.79667  0.57661  1.0000
  H   H432      1.0  0.08637  0.84347  0.66239  1.0000
  H   H433      1.0  0.02035  0.78071  0.67602  1.0000
  S   S106      1.0  0.02161  0.73421  0.56756  1.0000
  C   C278      1.0  0.03839  0.83723  0.67752  1.0000
  N   N29       1.0  0.32661  0.97855  0.75052  1.0000
  H   H434      1.0  0.02637  0.83917  0.69001  1.0000
  H   H435      1.0  0.02269  0.82538  0.66460  1.0000
  H   H436      1.0  0.08790  0.82812  0.70621  1.0000
  H   H437      1.0  0.08976  0.86082  0.69770  1.0000
  S   S107      1.0  0.03144  0.76522  0.62125  1.0000
  S   S108      1.0  0.20317  0.97350  0.58732  1.0000
  C   C279      1.0  0.13729  0.88497  0.61583  1.0000
  H   H438      1.0  0.22413  0.95546  0.54982  1.0000
  C   C280      1.0  0.09127  0.84245  0.61650  1.0000
  S   S109      1.0  0.17392  0.89977  0.61266  1.0000
  H   H439      1.0  0.08406  0.81045  0.67071  1.0000
  Fe  Fe54      1.0  0.20296  0.94767  0.61366  1.0000
  H   H440      1.0  0.13018  0.84191  0.61041  1.0000
  H   H441      1.0  0.07870  0.81954  0.61495  1.0000
  C   C281      1.0  0.09541  0.88924  0.62310  1.0000
  S   S110      1.0  0.25052  0.96419  0.61646  1.0000
  C   C282      1.0  0.12047  0.85518  0.61389  1.0000
  C   C283      1.0  0.23455  0.96652  0.53687  1.0000
  H   H442      1.0  0.02654  0.82287  0.53441  1.0000
  S   S111      1.0  0.04214  0.84404  0.62511  1.0000
  Fe  Fe55      1.0  0.01426  0.79625  0.62044  1.0000
  H   H443      1.0  0.04437  0.83670  0.57925  1.0000
  C   C284      1.0  0.08339  0.84237  0.53943  1.0000
  C   C285      1.0  0.12464  0.90201  0.62035  1.0000
  C   C286      1.0  0.07865  0.85944  0.62122  1.0000
  H   H444      1.0  0.13744  0.92501  0.62186  1.0000
  H   H445      1.0  0.04737  0.78125  0.69335  1.0000
  H   H446      1.0  0.05715  0.81018  0.65322  1.0000
  H   H447      1.0  0.29805  0.96965  0.72402  1.0000
  C   C287      1.0  0.07144  0.82162  0.66681  1.0000
  H   H448      1.0  0.08581  0.90257  0.62669  1.0000
  H   H449      1.0  0.31617  0.94838  0.72532  1.0000
  N   N30       1.0  0.05508  0.82263  0.68365  1.0000
  C   C288      1.0  0.26038  0.99164  0.53960  1.0000
  C   C289      1.0  0.03566  0.79321  0.68896  1.0000
  C   C290      1.0  0.00683  0.73324  0.54291  1.0000
  S   S112      1.0  0.20432  0.97986  0.63662  1.0000
  C   C291      1.0  0.07488  0.83851  0.70126  1.0000
  H   H450      1.0  0.05223  0.85907  0.67254  1.0000
  H   H451      1.0  0.06328  0.83965  0.71430  1.0000
  H   H452      1.0  0.02299  0.79302  0.70167  1.0000
  Fe  Fe56      1.0  0.25044  0.99221  0.59135  1.0000
  C   C292      1.0  0.31846  0.96994  0.72888  1.0000
  C   C293      1.0  0.02301  0.73627  0.52639  1.0000
  H   H453      1.0  0.07104  0.79149  0.55512  1.0000
  H   H454      1.0  0.09173  0.82049  0.57342  1.0000
  C   C294      1.0  0.06016  0.84765  0.56802  1.0000
  C   C295      1.0  0.07040  0.80812  0.56524  1.0000
  H   H455      1.0  0.02023  0.70454  0.62916  1.0000
  H   H456      1.0  0.01760  0.79644  0.55297  1.0000
  C   C296      1.0  0.30509  0.95758  0.76283  1.0000
  N   N31       1.0  0.06198  0.82689  0.55384  1.0000
  C   C297      1.0  0.03405  0.80939  0.54269  1.0000
  H   H457      1.0  0.01213  0.69733  0.70466  1.0000
  H   H458      1.0  0.10473  0.85596  0.54735  1.0000
  H   H459      1.0  0.03495  0.79417  0.53136  1.0000
  H   H460      1.0  0.04448  0.73947  0.52888  1.0000
  H   H461      1.0  0.28390  0.95623  0.75928  1.0000
  H   H462      1.0  0.05372  0.86214  0.56003  1.0000
  H   H463      1.0  0.08095  0.86130  0.57662  1.0000
  S   S113      1.0  0.00527  0.72070  0.66743  1.0000
  H   H464      1.0  0.08545  0.82731  0.52860  1.0000
  H   H465      1.0  0.07759  0.85657  0.53043  1.0000
  Fe  Fe57      1.0  0.25199  0.99840  0.63804  1.0000
  Fe  Fe58      1.0  0.00211  0.74448  0.59357  1.0000
  H   H466      1.0  0.01124  0.69047  0.60349  1.0000
  H   H467      1.0  0.04220  0.69263  0.61715  1.0000
  C   C298      1.0  0.01981  0.68787  0.61853  1.0000
  H   H468      1.0  0.33479  0.98511  0.71935  1.0000
  H   H469      1.0  0.01420  0.67272  0.65697  1.0000
  S   S114      1.0  0.01959  0.75371  0.94626  1.0000
  C   C299      1.0  0.31924  0.97713  0.94275  1.0000
  H   H470      1.0  0.14965  0.91871  0.98884  1.0000
  H   H471      1.0  0.10994  0.81329  0.90125  1.0000
  H   H472      1.0  0.30109  0.98153  0.93973  1.0000
  H   H473      1.0  0.31200  0.95905  0.95295  1.0000
  H   H474      1.0  0.09326  0.74908  0.93022  1.0000
  S   S115      1.0  0.21170  0.98229  0.94541  1.0000
  H   H475      1.0  0.13165  0.78130  0.89784  1.0000
  Fe  Fe59      1.0  0.20944  0.96825  0.91303  1.0000
  S   S116      1.0  0.16781  0.93496  0.89731  1.0000
  S   S117      1.0  0.24893  0.96306  0.91604  1.0000
  Fe  Fe60      1.0  0.03747  0.79803  0.93465  1.0000
  S   S118      1.0  0.08463  0.82653  0.94312  1.0000
  C   C300      1.0  0.14444  0.90559  0.91060  1.0000
  C   C301      1.0  0.15338  0.89899  0.92899  1.0000
  C   C302      1.0  0.13468  0.87485  0.93884  1.0000
  C   C303      1.0  0.10677  0.85738  0.93059  1.0000
  C   C304      1.0  0.09767  0.86416  0.91235  1.0000
  C   C305      1.0  0.11655  0.88804  0.90233  1.0000
  H   H476      1.0  0.17486  0.91222  0.93542  1.0000
  H   H477      1.0  0.14192  0.86963  0.95287  1.0000
  H   H478      1.0  0.07621  0.85096  0.90589  1.0000
  H   H479      1.0  0.10948  0.89308  0.88814  1.0000
  H   H480      1.0  0.14676  0.94715  0.01817  1.0000
  H   H481      1.0  0.21221  0.95802  0.99537  1.0000
  N   N32       1.0  0.17942  0.93485  0.01500  1.0000
  H   H482      1.0  0.08507  0.79442  0.87999  1.0000
  H   H483      1.0  0.07279  0.79842  0.90368  1.0000
  S   S119      1.0  0.01355  0.78274  0.90403  1.0000
  H   H484      1.0  0.07604  0.77071  0.93261  1.0000
  S   S120      1.0  0.26395  0.96127  0.97461  1.0000
  H   H485      1.0  0.29183  0.98693  0.86231  1.0000
  S   S121      1.0  0.00479  0.80730  0.94786  1.0000
  H   H486      1.0  0.05781  0.72260  0.90123  1.0000
  C   C306      1.0  0.05972  0.74336  0.89647  1.0000
  C   C307      1.0  0.26989  0.97986  0.99809  1.0000
  C   C308      1.0  0.09297  0.76869  0.92496  1.0000
  H   H487      1.0  0.10701  0.76263  0.87653  1.0000
  H   H488      1.0  0.17691  0.90810  0.98943  1.0000
  Fe  Fe61      1.0  0.25260  0.98034  0.94786  1.0000
  N   N33       1.0  0.08794  0.76750  0.90281  1.0000
  H   H489      1.0  0.04246  0.74589  0.90326  1.0000
  C   C309      1.0  0.11011  0.76345  0.89325  1.0000
  H   H490      1.0  0.11341  0.78753  0.93045  1.0000
  H   H491      1.0  0.10985  0.74318  0.89755  1.0000
  C   C310      1.0  0.08902  0.79453  0.89658  1.0000
  H   H492      1.0  0.05520  0.74155  0.87984  1.0000
  H   H493      1.0  0.01622  0.74889  0.99675  1.0000
  H   H494      1.0  0.26493  0.94386  0.01501  1.0000
  H   H495      1.0  0.31115  0.98096  0.83051  1.0000
  C   C311      1.0  0.16279  0.91239  0.99901  1.0000
  H   H496      1.0  0.33023  0.99431  0.98181  1.0000
  C   C312      1.0  0.00558  0.74716  0.01037  1.0000
  H   H497      1.0  0.02946  0.83789  0.01507  1.0000
  H   H498      1.0  0.14827  0.89189  0.00550  1.0000
  H   H499      1.0  0.31095  0.96370  0.77923  1.0000
  C   C313      1.0  0.32199  0.00097  0.83937  1.0000
  C   C314      1.0  0.26897  0.96583  0.01585  1.0000
  C   C315      1.0  0.19836  0.96154  0.00565  1.0000
  H   H500      1.0  0.04089  0.81153  0.01992  1.0000
  H   H501      1.0  0.21145  0.92140  0.01922  1.0000
  H   H502      1.0  0.21246  0.97855  0.01721  1.0000
  H   H503      1.0  0.32350  0.96984  0.92817  1.0000
  H   H504      1.0  0.00664  0.71522  0.83006  1.0000
  H   H505      1.0  0.18612  0.96992  0.99646  1.0000
  H   H506      1.0  0.00712  0.73035  0.86574  1.0000
  H   H507      1.0  0.36052  0.03082  0.25891  1.0000
  H   H508      1.0  0.34133  0.03961  0.22560  1.0000
  C   C316      1.0  0.34310  0.00847  0.25693  1.0000
  Fe  Fe62      1.0  0.40593  0.06608  0.74981  1.0000
  C   C317      1.0  0.33959  0.04865  0.71174  1.0000
  S   S122      1.0  0.38961  0.04498  0.71820  1.0000
  S   S123      1.0  0.41935  0.04205  0.77179  1.0000
  S   S124      1.0  0.44581  0.10781  0.75734  1.0000
  S   S125      1.0  0.59980  0.06266  0.76991  1.0000
  C   C318      1.0  0.35801  0.03954  0.70418  1.0000
  C   C319      1.0  0.34550  0.31203  0.69588  1.0000
  H   H509      1.0  0.34584  0.02342  0.74641  1.0000
  C   C320      1.0  0.45019  0.21878  0.75230  1.0000
  S   S126      1.0  0.42688  0.32685  0.73911  1.0000
  H   H510      1.0  0.44628  0.17641  0.75392  1.0000
  H   H511      1.0  0.45995  0.22273  0.73814  1.0000
  H   H512      1.0  0.36457  0.01715  0.67935  1.0000
  C   C321      1.0  0.44490  0.23974  0.76146  1.0000
  H   H513      1.0  0.54026  0.03881  0.75758  1.0000
  C   C322      1.0  0.35046  0.02426  0.68537  1.0000
  S   S127      1.0  0.45525  0.27281  0.75028  1.0000
  S   S128      1.0  0.38981  0.27864  0.76998  1.0000
  Fe  Fe63      1.0  0.38329  0.30916  0.75015  1.0000
  C   C323      1.0  0.44250  0.19253  0.76124  1.0000
  H   H514      1.0  0.36450  0.32992  0.70283  1.0000
  Fe  Fe64      1.0  0.43417  0.29860  0.76079  1.0000
  H   H515      1.0  0.34725  0.33209  0.66771  1.0000
  H   H516      1.0  0.34524  0.06078  0.72603  1.0000
  H   H517      1.0  0.51005  0.18509  0.76866  1.0000
  H   H518      1.0  0.49130  0.33269  0.74987  1.0000
  C   C324      1.0  0.54572  0.05741  0.76742  1.0000
  C   C325      1.0  0.52441  0.06499  0.77164  1.0000
  H   H519      1.0  0.50292  0.05223  0.76507  1.0000
  S   S129      1.0  0.33950  0.28681  0.73281  1.0000
  H   H520      1.0  0.47499  0.32891  0.71410  1.0000
  S   S130      1.0  0.38027  0.07551  0.77132  1.0000
  C   C326      1.0  0.33562  0.31323  0.67598  1.0000
  H   H521      1.0  0.51901  0.32579  0.72422  1.0000
  N   N34       1.0  0.59759  0.01952  0.82275  1.0000
  S   S131      1.0  0.43400  0.09343  0.80490  1.0000
  S   S132      1.0  0.42211  0.15607  0.79259  1.0000
  Fe  Fe65      1.0  0.39500  0.05332  0.79371  1.0000
  H   H522      1.0  0.55324  0.20411  0.79246  1.0000
  H   H523      1.0  0.41553  0.20475  0.80309  1.0000
  C   C327      1.0  0.61913  0.01069  0.82913  1.0000
  H   H524      1.0  0.54984  0.19802  0.81888  1.0000
  C   C328      1.0  0.50786  0.20865  0.80400  1.0000
  C   C329      1.0  0.43211  0.23436  0.77969  1.0000
  C   C330      1.0  0.55919  0.10522  0.79262  1.0000
  C   C331      1.0  0.42502  0.20847  0.78882  1.0000
  H   H525      1.0  0.48525  0.20414  0.80212  1.0000
  H   H526      1.0  0.59575  0.05856  0.81757  1.0000
  Fe  Fe66      1.0  0.45755  0.08446  0.78099  1.0000
  H   H527      1.0  0.55903  0.01667  0.83287  1.0000
  C   C332      1.0  0.36076  0.04898  0.84444  1.0000
  H   H528      1.0  0.38004  0.06626  0.83962  1.0000
  C   C333      1.0  0.35009  0.05210  0.86266  1.0000
  C   C334      1.0  0.33731  0.01168  0.97101  1.0000
  S   S133      1.0  0.50499  0.09971  0.79044  1.0000
  H   H529      1.0  0.51955  0.22468  0.79294  1.0000
  H   H530      1.0  0.62280  0.06184  0.83663  1.0000
  Fe  Fe67      1.0  0.40600  0.31351  0.79441  1.0000
  C   C335      1.0  0.58053  0.09774  0.78830  1.0000
  H   H531      1.0  0.36143  0.07187  0.87174  1.0000
  S   S134      1.0  0.39300  0.29772  0.82572  1.0000
  C   C336      1.0  0.54034  0.18872  0.80348  1.0000
  S   S135      1.0  0.66497  0.05019  0.78282  1.0000
  H   H532      1.0  0.60046  0.01279  0.79119  1.0000
  H   H533      1.0  0.35767  0.01990  0.92304  1.0000
  C   C337      1.0  0.35247  0.31412  0.83459  1.0000
  C   C338      1.0  0.36347  0.29522  0.83800  1.0000
  H   H534      1.0  0.38728  0.01489  0.96286  1.0000
  S   S136      1.0  0.45165  0.33165  0.78660  1.0000
  H   H535      1.0  0.58498  0.02021  0.85267  1.0000
  H   H536      1.0  0.47118  0.15625  0.81412  1.0000
  C   C339      1.0  0.34693  0.02327  0.83276  1.0000
  H   H537      1.0  0.62714  0.05816  0.81051  1.0000
  C   C340      1.0  0.35101  0.27392  0.85183  1.0000
  H   H538      1.0  0.34680  0.28825  0.79636  1.0000
  H   H539      1.0  0.35951  0.25931  0.85467  1.0000
  H   H540      1.0  0.60206  0.11059  0.79477  1.0000
  H   H541      1.0  0.51635  0.21864  0.81940  1.0000
  C   C341      1.0  0.49397  0.16150  0.81561  1.0000
  C   C342      1.0  0.43006  0.18741  0.77965  1.0000
  H   H542      1.0  0.37194  0.04578  0.94407  1.0000
  N   N35       1.0  0.33749  0.32126  0.92547  1.0000
  Fe  Fe68      1.0  0.42104  0.11506  0.78086  1.0000
  C   C343      1.0  0.49871  0.16990  0.78025  1.0000
  N   N36       1.0  0.51027  0.18225  0.80086  1.0000
  C   C344      1.0  0.53096  0.08901  0.78429  1.0000
  H   H543      1.0  0.54249  0.16895  0.80115  1.0000
  C   C345      1.0  0.35286  0.02612  0.93783  1.0000
  H   H544      1.0  0.56465  0.12381  0.80245  1.0000
  C   C346      1.0  0.61134  0.05091  0.82195  1.0000
  C   C347      1.0  0.57560  0.01034  0.83734  1.0000
  H   H545      1.0  0.35575  0.03085  0.97849  1.0000
  H   H546      1.0  0.42809  0.25037  0.78695  1.0000
  H   H547      1.0  0.35388  0.29224  0.91860  1.0000
  H   H548      1.0  0.50224  0.16992  0.83135  1.0000
  C   C348      1.0  0.58435  0.00632  0.80254  1.0000
  H   H549      1.0  0.56854  0.01319  0.79704  1.0000
  H   H550      1.0  0.49491  0.14110  0.81344  1.0000
  H   H551      1.0  0.35271  0.31332  0.89805  1.0000
  H   H552      1.0  0.37843  0.33578  0.94127  1.0000
  H   H553      1.0  0.62969  0.02042  0.84429  1.0000
  Fe  Fe69      1.0  0.64816  0.08164  0.77700  1.0000
  S   S137      1.0  0.36059  0.01773  0.81030  1.0000
  H   H554      1.0  0.36223  0.33098  0.82432  1.0000
  H   H555      1.0  0.63632  0.01772  0.81861  1.0000
  C   C349      1.0  0.34151  0.30195  0.91125  1.0000
  H   H556      1.0  0.33999  0.12712  0.88344  1.0000
  H   H557      1.0  0.50054  0.15014  0.77725  1.0000
  H   H558      1.0  0.47589  0.16421  0.77793  1.0000
  C   C350      1.0  0.57397  0.07374  0.77562  1.0000
  H   H559      1.0  0.33561  0.03188  0.93457  1.0000
  H   H560      1.0  0.39590  0.38760  0.18240  1.0000
  H   H561      1.0  0.37470  0.36634  0.20153  1.0000
  H   H562      1.0  0.38450  0.38490  0.23673  1.0000
  H   H563      1.0  0.39267  0.44049  0.21802  1.0000
  N   N37       1.0  0.40592  0.40886  0.21187  1.0000
  C   C351      1.0  0.38623  0.42082  0.20823  1.0000
  C   C352      1.0  0.39653  0.38289  0.19856  1.0000
  H   H564      1.0  0.38539  0.42652  0.19232  1.0000
  H   H565      1.0  0.36427  0.40515  0.21141  1.0000
  S   S138      1.0  0.34057  0.43254  0.23665  1.0000
  H   H566      1.0  0.42086  0.39263  0.23655  1.0000
  C   C353      1.0  0.40596  0.40139  0.23312  1.0000
  H   H567      1.0  0.41234  0.42040  0.24361  1.0000
  C   C354      1.0  0.49302  0.55594  0.25608  1.0000
  H   H568      1.0  0.41080  0.37314  0.20091  1.0000
  S   S139      1.0  0.42062  0.47866  0.25501  1.0000
  S   S140      1.0  0.59565  0.64233  0.25749  1.0000
  C   C355      1.0  0.43484  0.43041  0.20769  1.0000
  H   H569      1.0  0.43559  0.43675  0.19183  1.0000
  H   H570      1.0  0.45037  0.42220  0.21033  1.0000
  H   H571      1.0  0.44224  0.45017  0.21764  1.0000
  H   H572      1.0  0.47635  0.51371  0.24167  1.0000
  C   C356      1.0  0.47219  0.52709  0.25195  1.0000
  H   H573      1.0  0.51280  0.56442  0.24896  1.0000
  Fe  Fe70      1.0  0.37444  0.44894  0.26257  1.0000
  C   C357      1.0  0.44602  0.51546  0.26083  1.0000
  Fe  Fe71      1.0  0.55774  0.64567  0.26788  1.0000
  C   C358      1.0  0.48811  0.57371  0.26932  1.0000
  S   S141      1.0  0.36465  0.40451  0.27142  1.0000
  H   H574      1.0  0.52333  0.58888  0.31968  1.0000
  H   H575      1.0  0.53520  0.56533  0.29270  1.0000
  H   H576      1.0  0.56069  0.59932  0.28510  1.0000
  H   H577      1.0  0.57468  0.55991  0.32582  1.0000
  H   H578      1.0  0.60107  0.62470  0.33501  1.0000
  C   C359      1.0  0.59485  0.61562  0.31920  1.0000
  H   H579      1.0  0.54904  0.62321  0.31287  1.0000
  S   S142      1.0  0.34476  0.45134  0.28436  1.0000
  H   H580      1.0  0.60976  0.60753  0.31507  1.0000
  H   H581      1.0  0.57143  0.57276  0.29053  1.0000
  H   H582      1.0  0.59866  0.63363  0.30946  1.0000
  C   C360      1.0  0.56087  0.56947  0.32966  1.0000
  C   C361      1.0  0.55779  0.58204  0.29534  1.0000
  H   H583      1.0  0.53846  0.55213  0.32804  1.0000
  H   H584      1.0  0.56612  0.57706  0.34582  1.0000
  C   C362      1.0  0.54616  0.60503  0.32218  1.0000
  N   N38       1.0  0.56493  0.59305  0.31660  1.0000
  H   H585      1.0  0.55049  0.61308  0.33822  1.0000
  H   H586      1.0  0.45789  0.57539  0.28861  1.0000
  C   C363      1.0  0.46206  0.56201  0.27833  1.0000
  H   H587      1.0  0.42128  0.52482  0.28109  1.0000
  S   S143      1.0  0.51381  0.61022  0.27572  1.0000
  C   C364      1.0  0.44116  0.53323  0.27408  1.0000
  H   H588      1.0  0.51741  0.40527  0.73028  1.0000
  H   H589      1.0  0.53874  0.35404  0.70806  1.0000
  C   C365      1.0  0.50867  0.43093  0.76486  1.0000
  H   H590      1.0  0.54900  0.40359  0.73861  1.0000
  C   C366      1.0  0.54890  0.47813  0.75997  1.0000
  C   C367      1.0  0.56780  0.47070  0.77031  1.0000
  H   H591      1.0  0.50536  0.46433  0.74897  1.0000
  H   H592      1.0  0.52222  0.36408  0.76020  1.0000
  H   H593      1.0  0.64472  0.61778  0.57675  1.0000
  H   H594      1.0  0.55028  0.35715  0.73433  1.0000
  C   C368      1.0  0.50403  0.35616  0.74859  1.0000
  Fe  Fe72      1.0  0.44184  0.35915  0.76564  1.0000
  S   S144      1.0  0.66580  0.63762  0.73545  1.0000
  H   H595      1.0  0.65694  0.66818  0.57072  1.0000
  H   H596      1.0  0.55682  0.49901  0.75388  1.0000
  S   S145      1.0  0.47162  0.40648  0.76003  1.0000
  H   H597      1.0  0.49509  0.35663  0.69768  1.0000
  H   H598      1.0  0.53855  0.40062  0.71212  1.0000
  C   C369      1.0  0.53125  0.34946  0.72346  1.0000
  S   S146      1.0  0.66479  0.56064  0.74303  1.0000
  N   N39       1.0  0.51365  0.36316  0.72814  1.0000
  C   C370      1.0  0.51963  0.45835  0.75721  1.0000
  Fe  Fe73      1.0  0.63902  0.54098  0.76963  1.0000
  H   H599      1.0  0.64345  0.64898  0.60460  1.0000
  C   C371      1.0  0.66625  0.65565  0.60858  1.0000
  C   C372      1.0  0.53045  0.39450  0.72722  1.0000
  H   H600      1.0  0.49046  0.36588  0.75255  1.0000
  Fe  Fe74      1.0  0.66685  0.60216  0.75361  1.0000
  C   C373      1.0  0.66748  0.62527  0.58159  1.0000
  H   H601      1.0  0.47534  0.36290  0.71619  1.0000
  C   C374      1.0  0.48870  0.35241  0.71335  1.0000
  H   H602      1.0  0.66753  0.64149  0.62028  1.0000
  H   H603      1.0  0.66846  0.61006  0.59248  1.0000
  H   H604      1.0  0.58063  0.54267  0.81950  1.0000
  H   H605      1.0  0.57112  0.43729  0.78620  1.0000
  C   C375      1.0  0.60059  0.54160  0.81749  1.0000
  C   C376      1.0  0.55683  0.44333  0.77807  1.0000
  H   H606      1.0  0.57917  0.48470  0.81528  1.0000
  H   H607      1.0  0.59891  0.53272  0.80189  1.0000
  H   H608      1.0  0.63653  0.51024  0.84037  1.0000
  H   H609      1.0  0.63082  0.51320  0.81395  1.0000
  C   C377      1.0  0.60787  0.53685  0.85296  1.0000
  H   H610      1.0  0.61159  0.52421  0.86477  1.0000
  H   H611      1.0  0.62601  0.55899  0.85470  1.0000
  H   H612      1.0  0.58831  0.53818  0.85606  1.0000
  H   H613      1.0  0.58427  0.48072  0.84167  1.0000
  C   C378      1.0  0.63198  0.52301  0.82912  1.0000
  C   C379      1.0  0.58136  0.49472  0.83061  1.0000
  H   H614      1.0  0.56090  0.49461  0.83296  1.0000
  N   N40       1.0  0.60542  0.52401  0.83257  1.0000
  H   H615      1.0  0.65052  0.54483  0.83010  1.0000
  H   H616      1.0  0.61829  0.56390  0.81859  1.0000
  H   H617      1.0  0.51953  0.40297  0.78185  1.0000
  S   S147      1.0  0.39702  0.34332  0.77533  1.0000
  C   C380      1.0  0.52752  0.42367  0.77551  1.0000
  H   H618      1.0  0.37771  0.35715  0.92086  1.0000
  H   H619      1.0  0.36323  0.35933  0.94415  1.0000
  S   S148      1.0  0.63777  0.58163  0.77837  1.0000
  C   C381      1.0  0.36548  0.34444  0.93329  1.0000
  S   S149      1.0  0.60513  0.49440  0.77413  1.0000
  H   H620      1.0  0.63639  0.77239  0.25041  1.0000
  H   H621      1.0  0.64742  0.92395  0.21607  1.0000
  H   H622      1.0  0.49947  0.87191  0.26247  1.0000
  H   H623      1.0  0.45557  0.80342  0.21805  1.0000
  H   H624      1.0  0.62979  0.70169  0.16565  1.0000
  H   H625      1.0  0.47085  0.94565  0.24492  1.0000
  N   N41       1.0  0.47613  0.84078  0.23825  1.0000
  H   H626      1.0  0.33711  0.97732  0.17131  1.0000
  H   H627      1.0  0.64799  0.94079  0.15464  1.0000
  S   S150      1.0  0.61801  0.90912  0.26312  1.0000
  H   H628      1.0  0.64199  0.96376  0.09411  1.0000
  H   H629      1.0  0.45769  0.86879  0.24110  1.0000
  C   C382      1.0  0.47766  0.91861  0.26583  1.0000
  H   H630      1.0  0.61495  0.80030  0.20585  1.0000
  H   H631      1.0  0.47751  0.83663  0.27035  1.0000
  C   C383      1.0  0.45115  0.84573  0.23808  1.0000
  C   C384      1.0  0.46700  0.81030  0.23326  1.0000
  H   H632      1.0  0.64475  0.91315  0.11332  1.0000
  H   H633      1.0  0.61260  0.93343  0.10342  1.0000
  C   C385      1.0  0.49525  0.85841  0.22324  1.0000
  H   H634      1.0  0.66013  0.96899  0.04251  1.0000
  C   C386      1.0  0.66185  0.96798  0.20969  1.0000
  C   C387      1.0  0.64674  0.69958  0.19537  1.0000
  C   C388      1.0  0.64865  0.70526  0.17480  1.0000
  S   S151      1.0  0.61339  0.68750  0.20583  1.0000
  S   S152      1.0  0.64104  0.97419  0.22690  1.0000
  H   H635      1.0  0.48449  0.85306  0.20779  1.0000
  S   S153      1.0  0.63185  0.71257  0.26301  1.0000
  C   C389      1.0  0.58508  0.77573  0.27297  1.0000
  H   H636      1.0  0.50269  0.88160  0.22669  1.0000
  H   H637      1.0  0.51438  0.85520  0.22298  1.0000
  H   H638      1.0  0.50995  0.84466  0.25922  1.0000
  H   H639      1.0  0.55745  0.74338  0.25048  1.0000
  N   N42       1.0  0.64968  0.95379  0.12421  1.0000
  H   H640      1.0  0.45270  0.79640  0.24438  1.0000
  H   H641      1.0  0.42067  0.92947  0.25208  1.0000
  C   C390      1.0  0.43274  0.92053  0.25987  1.0000
  H   H642      1.0  0.43867  0.83917  0.22322  1.0000
  Fe  Fe75      1.0  0.55211  0.92278  0.26545  1.0000
  C   C391      1.0  0.63391  0.94209  0.14217  1.0000
  C   C392      1.0  0.60263  0.74767  0.21703  1.0000
  C   C393      1.0  0.55576  0.78303  0.24687  1.0000
  Fe  Fe76      1.0  0.60353  0.68017  0.23883  1.0000
  C   C394      1.0  0.46131  0.92970  0.25585  1.0000
  H   H643      1.0  0.58562  0.75350  0.21965  1.0000
  C   C395      1.0  0.63735  0.78726  0.23856  1.0000
  H   H644      1.0  0.60172  0.73243  0.22851  1.0000
  S   S154      1.0  0.51341  0.93057  0.25941  1.0000
  S   S155      1.0  0.56381  0.68142  0.24754  1.0000
  H   H645      1.0  0.61604  0.92020  0.13880  1.0000
  H   H646      1.0  0.43681  0.83383  0.24984  1.0000
  C   C396      1.0  0.65254  0.76419  0.21406  1.0000
  C   C397      1.0  0.56541  0.76523  0.25616  1.0000
  H   H647      1.0  0.65247  0.74844  0.22488  1.0000
  N   N43       1.0  0.63091  0.77309  0.21818  1.0000
  C   C398      1.0  0.56564  0.81129  0.25440  1.0000
  Fe  Fe77      1.0  0.57191  0.87875  0.25576  1.0000
  S   S156      1.0  0.35051  0.94298  0.26505  1.0000
  S   S157      1.0  0.55326  0.83327  0.24260  1.0000
  Fe  Fe78      1.0  0.60977  0.94125  0.24675  1.0000
  S   S158      1.0  0.56479  0.90974  0.23697  1.0000
  H   H648      1.0  0.35144  0.99568  0.24892  1.0000
  H   H649      1.0  0.54043  0.77480  0.23395  1.0000
  H   H650      1.0  0.48563  0.80616  0.23336  1.0000
  Fe  Fe79      1.0  0.59218  0.71176  0.27288  1.0000
  C   C399      1.0  0.49139  0.84882  0.25846  1.0000
  H   H651      1.0  0.34068  0.83717  0.25574  1.0000
  H   H652      1.0  0.62185  0.79492  0.24193  1.0000
  H   H653      1.0  0.65782  0.98575  0.26764  1.0000
  H   H654      1.0  0.65886  0.80606  0.24023  1.0000
  C   C400      1.0  0.63045  0.95500  0.10784  1.0000
  H   H655      1.0  0.62502  0.95577  0.14801  1.0000
  Fe  Fe80      1.0  0.34997  0.90050  0.26885  1.0000
  H   H656      1.0  0.62604  0.78298  0.18756  1.0000
  H   H657      1.0  0.62128  0.96902  0.11241  1.0000
  C   C401      1.0  0.58524  0.82168  0.27121  1.0000
  H   H658      1.0  0.65211  0.81254  0.20346  1.0000
  C   C402      1.0  0.63103  0.79314  0.20308  1.0000
  H   H659      1.0  0.64841  0.75367  0.19871  1.0000
  H   H660      1.0  0.34217  0.78291  0.26920  1.0000
  H   H661      1.0  0.59741  0.73578  0.20210  1.0000
  H   H662      1.0  0.66497  0.99725  0.13541  1.0000
  C   C403      1.0  0.66164  0.93533  0.11736  1.0000
  C   C404      1.0  0.66122  0.94146  0.20741  1.0000
  H   H663      1.0  0.33813  0.99992  0.27218  1.0000
  H   H664      1.0  0.35683  0.81664  0.28337  1.0000
  C   C405      1.0  0.43621  0.88869  0.28387  1.0000
  S   S159      1.0  0.59893  0.75496  0.28472  1.0000
  S   S160      1.0  0.38373  0.88717  0.27953  1.0000
  S   S161      1.0  0.65701  0.67485  0.30241  1.0000
  Fe  Fe81      1.0  0.62124  0.67558  0.28260  1.0000
  H   H665      1.0  0.42673  0.87298  0.29494  1.0000
  C   C406      1.0  0.66358  0.98212  0.33466  1.0000
  C   C407      1.0  0.64578  0.68921  0.33994  1.0000
  S   S162      1.0  0.62965  0.92581  0.31934  1.0000
  Fe  Fe82      1.0  0.60360  0.92352  0.29016  1.0000
  H   H666      1.0  0.47707  0.88944  0.28798  1.0000
  C   C408      1.0  0.46485  0.89798  0.27992  1.0000
  H   H667      1.0  0.66281  0.78294  0.35074  1.0000
  H   H668      1.0  0.65257  0.98845  0.32340  1.0000
  C   C409      1.0  0.66572  0.68759  0.32804  1.0000
  H   H669      1.0  0.63682  0.69728  0.36990  1.0000
  S   S163      1.0  0.55749  0.89021  0.28391  1.0000
  C   C410      1.0  0.65266  0.69693  0.36068  1.0000
  H   H670      1.0  0.61000  0.81217  0.29349  1.0000
  H   H671      1.0  0.66373  0.92302  0.35303  1.0000
  C   C411      1.0  0.65587  0.95316  0.33620  1.0000
  H   H672      1.0  0.62482  0.68377  0.33332  1.0000
  H   H673      1.0  0.65659  0.96808  0.29046  1.0000
  S   S164      1.0  0.58340  0.67679  0.29412  1.0000
  C   C412      1.0  0.59488  0.80395  0.28044  1.0000
  C   C413      1.0  0.33715  0.79587  0.27998  1.0000
  H   H674      1.0  0.59286  0.84334  0.27722  1.0000
  S   S165      1.0  0.59719  0.95725  0.27407  1.0000
  C   C414      1.0  0.41994  0.89998  0.27398  1.0000
  H   H675      1.0  0.37110  0.99543  0.74664  1.0000
  H   H676      1.0  0.62791  0.94405  0.57881  1.0000
  H   H677      1.0  0.35376  0.95892  0.75338  1.0000
  C   C415      1.0  0.64688  0.96517  0.57766  1.0000
  H   H678      1.0  0.62307  0.96131  0.61289  1.0000
  H   H679      1.0  0.65301  0.99124  0.62588  1.0000
  H   H680      1.0  0.66121  0.96182  0.56764  1.0000
  H   H681      1.0  0.65227  0.93689  0.60940  1.0000
  N   N44       1.0  0.66155  0.97760  0.59769  1.0000
  C   C416      1.0  0.35447  0.98001  0.75590  1.0000
  H   H682      1.0  0.63982  0.97940  0.56997  1.0000
  C   C417      1.0  0.64223  0.98187  0.61067  1.0000
  H   H683      1.0  0.36161  0.98715  0.77203  1.0000
  H   H684      1.0  0.63501  0.99665  0.60406  1.0000
  H   H685      1.0  0.37375  0.98916  0.94180  1.0000
  H   H686      1.0  0.60970  0.98711  0.82977  1.0000
  N   N45       1.0  0.34437  0.00276  0.95188  1.0000
  C   C418      1.0  0.36795  0.99602  0.95592  1.0000
  H   H687      1.0  0.36213  0.97841  0.96644  1.0000
  H   H688      1.0  0.66259  0.97005  0.00564  1.0000
  H   H689      1.0  0.56485  0.98674  0.83842  1.0000
  H   H690      1.0  0.57343  0.98260  0.80249  1.0000
  Fe  Fe83      1.0  0.97138  0.18962  0.09828  1.0000
  S   S166      1.0  0.96172  0.22435  0.10853  1.0000
  S   S167      1.0  0.94130  0.14219  0.09375  1.0000
  C   C419      1.0  0.91294  0.14765  0.04269  1.0000
  S   S168      1.0  0.96982  0.26945  0.06162  1.0000
  H   H691      1.0  0.71842  0.03105  0.27233  1.0000
  S   S169      1.0  0.99336  0.21190  0.07141  1.0000
  Fe  Fe84      1.0  0.79173  0.03398  0.12363  1.0000
  H   H692      1.0  0.89606  0.18772  0.04878  1.0000
  S   S170      1.0  0.82199  0.08091  0.13096  1.0000
  C   C420      1.0  0.91229  0.19225  0.03774  1.0000
  H   H693      1.0  0.95593  0.18883  0.18794  1.0000
  H   H694      1.0  0.90618  0.12481  0.15497  1.0000
  C   C421      1.0  0.94308  0.17870  0.14823  1.0000
  H   H695      1.0  0.95681  0.20172  0.15271  1.0000
  C   C422      1.0  0.90691  0.12556  0.10236  1.0000
  C   C423      1.0  0.89203  0.09563  0.10211  1.0000
  C   C424      1.0  0.86550  0.08163  0.11024  1.0000
  C   C425      1.0  0.85383  0.09756  0.11888  1.0000
  C   C426      1.0  0.86844  0.12749  0.11873  1.0000
  C   C427      1.0  0.89468  0.14145  0.11020  1.0000
  H   H696      1.0  0.90128  0.08318  0.09595  1.0000
  H   H697      1.0  0.85441  0.05856  0.11031  1.0000
  H   H698      1.0  0.85931  0.13988  0.12518  1.0000
  H   H699      1.0  0.90551  0.16448  0.10988  1.0000
  H   H700      1.0  0.93330  0.12474  0.14051  1.0000
  H   H701      1.0  0.91955  0.16188  0.18313  1.0000
  C   C428      1.0  0.94194  0.16605  0.18277  1.0000
  H   H702      1.0  0.98267  0.15311  0.17333  1.0000
  H   H703      1.0  0.91028  0.12727  0.03565  1.0000
  H   H704      1.0  0.98276  0.16107  0.14726  1.0000
  H   H705      1.0  0.94789  0.17502  0.13277  1.0000
  H   H706      1.0  0.75110  0.01280  0.05082  1.0000
  C   C429      1.0  0.97785  0.16608  0.16240  1.0000
  H   H707      1.0  0.99275  0.18908  0.16641  1.0000
  N   N46       1.0  0.94794  0.16012  0.16234  1.0000
  H   H708      1.0  0.93451  0.15874  0.05073  1.0000
  N   N47       1.0  0.90891  0.16569  0.02756  1.0000
  H   H709      1.0  0.92067  0.17468  0.14753  1.0000
  S   S171      1.0  0.74533  0.01929  0.12706  1.0000
  H   H710      1.0  0.93347  0.20424  0.04622  1.0000
  Fe  Fe85      1.0  0.98685  0.24788  0.08290  1.0000
  H   H711      1.0  0.93161  0.11509  0.16625  1.0000
  C   C430      1.0  0.92895  0.12987  0.15581  1.0000
  H   H712      1.0  0.89743  0.14209  0.05442  1.0000
  H   H713      1.0  0.94545  0.15247  0.19390  1.0000
  C   C431      1.0  0.96703  0.26406  0.03518  1.0000
  C   C432      1.0  0.71338  0.01007  0.26490  1.0000
  H   H714      1.0  0.99169  0.24171  0.03376  1.0000
  S   S172      1.0  0.78474  0.01305  0.09263  1.0000
  H   H715      1.0  0.94145  0.28530  0.03152  1.0000
  H   H716      1.0  0.71105  0.00416  0.17609  1.0000
  C   C433      1.0  0.97949  0.24974  0.02516  1.0000
  H   H717      1.0  0.70119  0.00801  0.25022  1.0000
  H   H718      1.0  0.91037  0.20692  0.02676  1.0000
  H   H719      1.0  0.86341  0.14382  0.02799  1.0000
  H   H720      1.0  0.68056  0.01112  0.20001  1.0000
  H   H721      1.0  0.73367  0.01055  0.26143  1.0000
  C   C434      1.0  0.95114  0.27426  0.02394  1.0000
  H   H722      1.0  0.83938  0.04563  0.36227  1.0000
  H   H723      1.0  0.91313  0.15241  0.47708  1.0000
  H   H724      1.0  0.87375  0.16362  0.47173  1.0000
  H   H725      1.0  0.84869  0.07515  0.38004  1.0000
  H   H726      1.0  0.88074  0.19986  0.46846  1.0000
  C   C435      1.0  0.83062  0.05530  0.37291  1.0000
  H   H727      1.0  0.77535  0.01834  0.36542  1.0000
  H   H728      1.0  0.76773  0.03751  0.34651  1.0000
  S   S173      1.0  0.98979  0.20397  0.44231  1.0000
  C   C436      1.0  0.78511  0.03409  0.35374  1.0000
  N   N48       1.0  0.80869  0.06111  0.36276  1.0000
  H   H729      1.0  0.82188  0.04022  0.38511  1.0000
  H   H730      1.0  0.78064  0.07782  0.37065  1.0000
  H   H731      1.0  0.83492  0.03310  0.51420  1.0000
  H   H732      1.0  0.80529  0.08631  0.33899  1.0000
  H   H733      1.0  0.90449  0.17970  0.50433  1.0000
  C   C437      1.0  0.82128  0.08136  0.34686  1.0000
  H   H734      1.0  0.81480  0.09417  0.38477  1.0000
  H   H735      1.0  0.84191  0.06880  0.50885  1.0000
  H   H736      1.0  0.91075  0.09097  0.42200  1.0000
  C   C438      1.0  0.89939  0.10326  0.42072  1.0000
  H   H737      1.0  0.93717  0.14302  0.41700  1.0000
  C   C439      1.0  0.86982  0.08956  0.42180  1.0000
  C   C440      1.0  0.91440  0.13275  0.41785  1.0000
  S   S174      1.0  0.91782  0.18573  0.41202  1.0000
  C   C441      1.0  0.89984  0.14868  0.41573  1.0000
  S   S175      1.0  0.85168  0.05221  0.42436  1.0000
  C   C442      1.0  0.85535  0.10563  0.42007  1.0000
  H   H738      1.0  0.78821  0.05895  0.38978  1.0000
  H   H739      1.0  0.94010  0.20832  0.50455  1.0000
  S   S176      1.0  0.77649  0.04832  0.42981  1.0000
  Fe  Fe86      1.0  0.80426  0.02760  0.42774  1.0000
  H   H740      1.0  0.85886  0.14721  0.41530  1.0000
  C   C443      1.0  0.87027  0.13501  0.41685  1.0000
  H   H741      1.0  0.83266  0.09541  0.42107  1.0000
  H   H742      1.0  0.91082  0.21562  0.50061  1.0000
  C   C444      1.0  0.93713  0.22197  0.46636  1.0000
  N   N49       1.0  0.91793  0.19487  0.47513  1.0000
  C   C445      1.0  0.88880  0.18432  0.46576  1.0000
  H   H743      1.0  0.94923  0.18034  0.47839  1.0000
  Fe  Fe87      1.0  0.96592  0.21069  0.41596  1.0000
  C   C446      1.0  0.91828  0.19979  0.49710  1.0000
  H   H744      1.0  0.88803  0.18076  0.44914  1.0000
  H   H745      1.0  0.95939  0.23031  0.47276  1.0000
  C   C447      1.0  0.79773  0.07371  0.37761  1.0000
  S   S177      1.0  0.72562  0.02185  0.38032  1.0000
  S   S178      1.0  0.98490  0.25838  0.42223  1.0000
  Fe  Fe88      1.0  0.75778  0.01945  0.45516  1.0000
  H   H746      1.0  0.93712  0.21915  0.44976  1.0000
  H   H747      1.0  0.82984  0.07258  0.33538  1.0000
  C   C448      1.0  0.99298  0.21240  0.51761  1.0000
  H   H748      1.0  0.92825  0.16979  0.45479  1.0000
  C   C449      1.0  0.92755  0.17341  0.47122  1.0000
  H   H749      1.0  0.83913  0.10194  0.35330  1.0000
  H   H750      1.0  0.79241  0.02397  0.34232  1.0000
  S   S179      1.0  0.75444  0.03928  0.48480  1.0000
  C   C450      1.0  0.74482  0.01908  0.50644  1.0000
  H   H751      1.0  0.69060  0.02518  0.34702  1.0000
  H   H752      1.0  0.93085  0.23885  0.46927  1.0000
  H   H753      1.0  0.98656  0.30772  0.32691  1.0000
  S   S180      1.0  0.99765  0.21489  0.39368  1.0000
  Fe  Fe89      1.0  0.74507  0.01186  0.40862  1.0000
  H   H754      1.0  0.80621  0.04149  0.51090  1.0000
  C   C451      1.0  0.82856  0.04988  0.51734  1.0000
  C   C452      1.0  0.00119  0.22716  0.49990  1.0000
  H   H755      1.0  0.98493  0.18950  0.51711  1.0000
  H   H756      1.0  0.71855  0.00948  0.30555  1.0000
  H   H757      1.0  0.67439  0.00640  0.29063  1.0000
  H   H758      1.0  0.99986  0.21571  0.48596  1.0000
  H   H759      1.0  0.99421  0.28459  0.35712  1.0000
  H   H760      1.0  0.98370  0.33236  0.39611  1.0000
  H   H761      1.0  0.83511  0.09894  0.53497  1.0000
  H   H762      1.0  0.94138  0.30225  0.66509  1.0000
  C   C453      1.0  0.73830  0.01762  0.54250  1.0000
  H   H763      1.0  0.93505  0.15421  0.60545  1.0000
  H   H764      1.0  0.81363  0.03662  0.56602  1.0000
  S   S181      1.0  0.68212  0.10619  0.75589  1.0000
  H   H765      1.0  0.82072  0.01503  0.54852  1.0000
  Fe  Fe90      1.0  0.80341  0.03787  0.61288  1.0000
  N   N50       1.0  0.83132  0.05727  0.53918  1.0000
  S   S182      1.0  0.96133  0.21444  0.61265  1.0000
  S   S183      1.0  0.75911  0.03140  0.60678  1.0000
  H   H766      1.0  0.73828  0.02830  0.55649  1.0000
  H   H767      1.0  0.88727  0.12484  0.58842  1.0000
  S   S184      1.0  0.83732  0.07777  0.60042  1.0000
  C   C454      1.0  0.91913  0.13697  0.61314  1.0000
  H   H768      1.0  0.68126  0.04536  0.71112  1.0000
  C   C455      1.0  0.89208  0.12010  0.60342  1.0000
  H   H769      1.0  0.67860  0.02739  0.67584  1.0000
  S   S185      1.0  0.97234  0.28095  0.64266  1.0000
  H   H770      1.0  0.87882  0.16529  0.65184  1.0000
  H   H771      1.0  0.79097  0.02129  0.54344  1.0000
  S   S186      1.0  0.72678  0.06427  0.74391  1.0000
  S   S187      1.0  0.71714  0.01699  0.65304  1.0000
  C   C456      1.0  0.74595  0.04800  0.71125  1.0000
  H   H772      1.0  0.88583  0.21502  0.65346  1.0000
  C   C457      1.0  0.90217  0.17431  0.65486  1.0000
  H   H773      1.0  0.91150  0.17720  0.64003  1.0000
  C   C458      1.0  0.72320  0.05076  0.71863  1.0000
  H   H774      1.0  0.91125  0.21708  0.69631  1.0000
  H   H775      1.0  0.73321  0.10402  0.70160  1.0000
  H   H776      1.0  0.95099  0.19655  0.67748  1.0000
  H   H777      1.0  0.71525  0.12530  0.69945  1.0000
  C   C459      1.0  0.87773  0.09127  0.63241  1.0000
  C   C460      1.0  0.90221  0.19680  0.68677  1.0000
  H   H778      1.0  0.77378  0.11830  0.72667  1.0000
  S   S188      1.0  0.85859  0.24625  0.75956  1.0000
  C   C461      1.0  0.86122  0.06869  0.54716  1.0000
  H   H779      1.0  0.91827  0.24341  0.66518  1.0000
  N   N51       1.0  0.91473  0.20153  0.66712  1.0000
  H   H780      1.0  0.90964  0.10397  0.65734  1.0000
  C   C462      1.0  0.90897  0.22256  0.65639  1.0000
  C   C463      1.0  0.94570  0.21248  0.67046  1.0000
  H   H781      1.0  0.79955  0.07115  0.53683  1.0000
  S   S189      1.0  0.79584  0.02031  0.64376  1.0000
  C   C464      1.0  0.69896  0.04343  0.70569  1.0000
  H   H782      1.0  0.86180  0.07365  0.63988  1.0000
  H   H783      1.0  0.95586  0.23247  0.68027  1.0000
  H   H784      1.0  0.90622  0.15796  0.66248  1.0000
  H   H785      1.0  0.78997  0.15319  0.73938  1.0000
  H   H786      1.0  0.73364  0.15515  0.74164  1.0000
  H   H787      1.0  0.77890  0.14383  0.69451  1.0000
  H   H788      1.0  0.71443  0.10703  0.72199  1.0000
  H   H789      1.0  0.91852  0.22690  0.64159  1.0000
  H   H790      1.0  0.76477  0.05353  0.72113  1.0000
  C   C465      1.0  0.74658  0.16466  0.72867  1.0000
  H   H791      1.0  0.94478  0.31768  0.70107  1.0000
  C   C466      1.0  0.95908  0.31020  0.69595  1.0000
  H   H792      1.0  0.76582  0.18440  0.73468  1.0000
  H   H793      1.0  0.87881  0.18834  0.68485  1.0000
  H   H794      1.0  0.79244  0.17774  0.70827  1.0000
  S   S190      1.0  0.95807  0.15491  0.64604  1.0000
  H   H795      1.0  0.90648  0.18121  0.69528  1.0000
  N   N52       1.0  0.75416  0.14437  0.71860  1.0000
  C   C467      1.0  0.72811  0.11917  0.71000  1.0000
  H   H796      1.0  0.75667  0.12570  0.74648  1.0000
  C   C468      1.0  0.72022  0.03025  0.67834  1.0000
  C   C469      1.0  0.74452  0.03783  0.69125  1.0000
  H   H797      1.0  0.76167  0.16560  0.69078  1.0000
  C   C470      1.0  0.76941  0.13508  0.73340  1.0000
  H   H798      1.0  0.95589  0.21755  0.65601  1.0000
  C   C471      1.0  0.77262  0.15853  0.70229  1.0000
  H   H799      1.0  0.73405  0.17129  0.71820  1.0000
  C   C472      1.0  0.90483  0.10839  0.64223  1.0000
  C   C473      1.0  0.92546  0.13154  0.63272  1.0000
  C   C474      1.0  0.82418  0.22918  0.76796  1.0000
  H   H800      1.0  0.76211  0.03560  0.68590  1.0000
  H   H801      1.0  0.99251  0.29266  0.76750  1.0000
  C   C475      1.0  0.95724  0.30149  0.67553  1.0000
  Fe  Fe91      1.0  0.98430  0.19547  0.63054  1.0000
  C   C476      1.0  0.87125  0.09736  0.61305  1.0000
  C   C477      1.0  0.69753  0.03324  0.68567  1.0000
  C   C478      1.0  0.97586  0.29202  0.66851  1.0000
  S   S191      1.0  0.98444  0.32276  0.73509  1.0000
  Fe  Fe92      1.0  0.75015  0.01039  0.63643  1.0000
  C   C479      1.0  0.98005  0.31020  0.70951  1.0000
  H   H802      1.0  0.68066  0.02078  0.58824  1.0000
  Fe  Fe93      1.0  0.88985  0.29361  0.76350  1.0000
  C   C480      1.0  0.80925  0.24406  0.77216  1.0000
  Fe  Fe94      1.0  0.70086  0.07724  0.76395  1.0000
  S   S192      1.0  0.98205  0.20691  0.55725  1.0000
  H   H803      1.0  0.86371  0.07405  0.56369  1.0000
  C   C481      1.0  0.81340  0.03141  0.54973  1.0000
  H   H804      1.0  0.82292  0.18802  0.76700  1.0000
  Fe  Fe95      1.0  0.99260  0.25571  0.62923  1.0000
  S   S193      1.0  0.90877  0.32380  0.73882  1.0000
  C   C482      1.0  0.82199  0.07905  0.54262  1.0000
  H   H805      1.0  0.86905  0.05289  0.54479  1.0000
  H   H806      1.0  0.82351  0.08490  0.55898  1.0000
  Fe  Fe96      1.0  0.95071  0.32843  0.75115  1.0000
  C   C483      1.0  0.81125  0.19954  0.76994  1.0000
  Fe  Fe97      1.0  0.99371  0.22339  0.59008  1.0000
  C   C484      1.0  0.99489  0.22701  0.53593  1.0000
  H   H807      1.0  0.87541  0.08851  0.53983  1.0000
  C   C485      1.0  0.99868  0.30072  0.70250  1.0000
  H   H808      1.0  0.81903  0.26691  0.77064  1.0000
  C   C486      1.0  0.99646  0.29144  0.68215  1.0000
  C   C487      1.0  0.74450  0.03256  0.52472  1.0000
  H   H809      1.0  0.74911  0.05471  0.52510  1.0000
  H   H810      1.0  0.69837  0.01530  0.61015  1.0000
  C   C488      1.0  0.68666  0.00540  0.59532  1.0000
  H   H811      1.0  0.98533  0.23475  0.99610  1.0000
  S   S194      1.0  0.72848  0.10511  0.79090  1.0000
  H   H812      1.0  0.98476  0.28177  0.79264  1.0000
  Fe  Fe98      1.0  0.69129  0.08024  0.80904  1.0000
  H   H813      1.0  0.73288  0.05094  0.82825  1.0000
  H   H814      1.0  0.82462  0.22530  0.81179  1.0000
  C   C489      1.0  0.78107  0.22908  0.77751  1.0000
  S   S195      1.0  0.89393  0.32809  0.78577  1.0000
  H   H815      1.0  0.76924  0.24053  0.78015  1.0000
  C   C490      1.0  0.87536  0.27217  0.81698  1.0000
  H   H816      1.0  0.99023  0.32986  0.80169  1.0000
  N   N53       1.0  0.86697  0.24454  0.82618  1.0000
  H   H817      1.0  0.86967  0.20596  0.82016  1.0000
  Fe  Fe99      1.0  0.97689  0.18607  0.92636  1.0000
  S   S196      1.0  0.95343  0.21032  0.91823  1.0000
  S   S197      1.0  0.95637  0.13813  0.92510  1.0000
  H   H818      1.0  0.80290  0.09695  0.92814  1.0000
  H   H819      1.0  0.84660  0.14683  0.90699  1.0000
  Fe  Fe100     1.0  0.80844  0.04234  0.95839  1.0000
  S   S198      1.0  0.84322  0.08593  0.97000  1.0000
  H   H820      1.0  0.87634  0.16305  0.00576  1.0000
  Fe  Fe101     1.0  0.93691  0.33221  0.79502  1.0000
  C   C491      1.0  0.83580  0.22936  0.82708  1.0000
  S   S199      1.0  0.67296  0.11040  0.80400  1.0000
  C   C492      1.0  0.74384  0.03109  0.87531  1.0000
  C   C493      1.0  0.73066  0.04735  0.84413  1.0000
  C   C494      1.0  0.71140  0.05311  0.85402  1.0000
  C   C495      1.0  0.70875  0.04812  0.87466  1.0000
  C   C496      1.0  0.72494  0.03731  0.88528  1.0000
  C   C497      1.0  0.95934  0.30901  0.83951  1.0000
  C   C498      1.0  0.80102  0.09610  0.91136  1.0000
  C   C499      1.0  0.92557  0.12351  0.93829  1.0000
  C   C500      1.0  0.91825  0.14126  0.94957  1.0000
  C   C501      1.0  0.89331  0.12941  0.95972  1.0000
  C   C502      1.0  0.87541  0.09983  0.95843  1.0000
  C   C503      1.0  0.88294  0.08205  0.94741  1.0000
  C   C504      1.0  0.90800  0.09389  0.93736  1.0000
  H   H821      1.0  0.93173  0.16414  0.95040  1.0000
  H   H822      1.0  0.88755  0.14328  0.96816  1.0000
  H   H823      1.0  0.86949  0.05918  0.94663  1.0000
  H   H824      1.0  0.91367  0.08008  0.92875  1.0000
  H   H825      1.0  0.96323  0.24796  0.82876  1.0000
  Fe  Fe102     1.0  0.70809  0.13255  0.78362  1.0000
  N   N54       1.0  0.82791  0.10109  0.90309  1.0000
  H   H826      1.0  0.93499  0.27816  0.99452  1.0000
  H   H827      1.0  0.87528  0.22927  0.85417  1.0000
  H   H828      1.0  0.85619  0.08263  0.90473  1.0000
  C   C505      1.0  0.97385  0.26965  0.85814  1.0000
  Fe  Fe103     1.0  0.99138  0.23853  0.90176  1.0000
  C   C506      1.0  0.97529  0.29284  0.86946  1.0000
  H   H829      1.0  0.81921  0.05723  0.90195  1.0000
  H   H830      1.0  0.86583  0.22315  0.79811  1.0000
  S   S200      1.0  0.99799  0.21163  0.95513  1.0000
  C   C507      1.0  0.85101  0.12905  0.91115  1.0000
  H   H831      1.0  0.87175  0.13342  0.90544  1.0000
  S   S201      1.0  0.98460  0.24547  0.86853  1.0000
  H   H832      1.0  0.86968  0.28631  0.82605  1.0000
  C   C508      1.0  0.82471  0.10065  0.88088  1.0000
  C   C509      1.0  0.96001  0.25630  0.99280  1.0000
  H   H833      1.0  0.90452  0.26118  0.84660  1.0000
  C   C510      1.0  0.97607  0.24596  0.00390  1.0000
  C   C511      1.0  0.95705  0.28532  0.82838  1.0000
  H   H834      1.0  0.79454  0.11227  0.90662  1.0000
  H   H835      1.0  0.84448  0.10391  0.87413  1.0000
  H   H836      1.0  0.78338  0.07469  0.90618  1.0000
  H   H837      1.0  0.85379  0.12975  0.92791  1.0000
  C   C512      1.0  0.96455  0.26594  0.83759  1.0000
  C   C513      1.0  0.83485  0.07835  0.90909  1.0000
  C   C514      1.0  0.96821  0.31251  0.86013  1.0000
  H   H838      1.0  0.83463  0.07627  0.92563  1.0000
  H   H839      1.0  0.81947  0.11753  0.87574  1.0000
  S   S202      1.0  0.68966  0.06580  0.84127  1.0000
  H   H840      1.0  0.94964  0.28200  0.81266  1.0000
  H   H841      1.0  0.89919  0.23797  0.81280  1.0000
  H   H842      1.0  0.86482  0.26912  0.80156  1.0000
  H   H843      1.0  0.80722  0.07972  0.87454  1.0000
  C   C515      1.0  0.94748  0.27021  0.00296  1.0000
  C   C516      1.0  0.87578  0.22709  0.81380  1.0000
  S   S203      1.0  0.76772  0.04018  0.94547  1.0000
  H   H844      1.0  0.69392  0.05247  0.88248  1.0000
  Fe  Fe104     1.0  0.97782  0.23841  0.94571  1.0000
  H   H845      1.0  0.89867  0.28394  0.81567  1.0000
  H   H846      1.0  0.72244  0.03337  0.90110  1.0000
  H   H847      1.0  0.82840  0.24202  0.83620  1.0000
  H   H848      1.0  0.82858  0.20829  0.83383  1.0000
  H   H849      1.0  0.87499  0.26296  0.85646  1.0000
  C   C517      1.0  0.74669  0.03632  0.85472  1.0000
  S   S204      1.0  0.95371  0.25162  0.96636  1.0000
  C   C518      1.0  0.88098  0.24965  0.84676  1.0000
  S   S205      1.0  0.76449  0.01701  0.88784  1.0000
  H   H850      1.0  0.98245  0.29598  0.88529  1.0000
  H   H851      1.0  0.92792  0.18673  0.00102  1.0000
  S   S206      1.0  0.78706  0.00615  0.97855  1.0000
  Fe  Fe105     1.0  0.76846  0.01031  0.92152  1.0000
  H   H852      1.0  0.76117  0.03152  0.84682  1.0000
  S   S207      1.0  0.81078  0.01450  0.93356  1.0000
  S   S208      1.0  0.73181  0.18093  0.78397  1.0000
  H   H853      1.0  0.96989  0.33067  0.86893  1.0000
  H   H854      1.0  0.75358  0.01363  0.01335  1.0000
  C   C519      1.0  0.76786  0.19930  0.77892  1.0000
  H   H855      1.0  0.87697  0.12991  0.00911  1.0000
  S   S209      1.0  0.95144  0.33464  0.82817  1.0000
  C   C520      1.0  0.78328  0.18466  0.77558  1.0000
  H   H856      1.0  0.92823  0.15343  0.00449  1.0000
  C   C521      1.0  0.88016  0.14995  0.01718  1.0000
  H   H857      1.0  0.77346  0.16182  0.77697  1.0000
  C   C522      1.0  0.93029  0.17295  0.01260  1.0000
  S   S210      1.0  0.93146  0.29627  0.77436  1.0000
  H   H858      1.0  0.95223  0.18478  0.01990  1.0000
  H   H859      1.0  0.85064  0.64513  0.43492  1.0000
  H   H860      1.0  0.98317  0.58585  0.34252  1.0000
  H   H861      1.0  0.87677  0.65871  0.40384  1.0000
  H   H862      1.0  0.99223  0.55864  0.33495  1.0000
  C   C523      1.0  0.00060  0.57995  0.34301  1.0000
  H   H863      1.0  0.88371  0.65667  0.44984  1.0000
  C   C524      1.0  0.86884  0.66392  0.44301  1.0000
  H   H864      1.0  0.00075  0.61040  0.31115  1.0000
  H   H865      1.0  0.00032  0.38310  0.40669  1.0000
  H   H866      1.0  0.00155  0.36915  0.37079  1.0000
  H   H867      1.0  0.90992  0.67040  0.41875  1.0000
  C   C525      1.0  0.68090  0.64880  0.71215  1.0000
  S   S211      1.0  0.90605  0.39498  0.75222  1.0000
  H   H868      1.0  0.89675  0.43929  0.73484  1.0000
  C   C526      1.0  0.74318  0.62130  0.71526  1.0000
  H   H869      1.0  0.79430  0.58323  0.73763  1.0000
  C   C527      1.0  0.91529  0.47613  0.75591  1.0000
  C   C528      1.0  0.90824  0.44789  0.74936  1.0000
  H   H870      1.0  0.90941  0.48900  0.74634  1.0000
  C   C529      1.0  0.82053  0.49359  0.77150  1.0000
  H   H871      1.0  0.91208  0.63890  0.67805  1.0000
  H   H872      1.0  0.83465  0.57910  0.75457  1.0000
  Fe  Fe106     1.0  0.70356  0.57469  0.76457  1.0000
  C   C530      1.0  0.70428  0.66795  0.67485  1.0000
  C   C531      1.0  0.93389  0.65178  0.68398  1.0000
  H   H873      1.0  0.79432  0.66728  0.75007  1.0000
  C   C532      1.0  0.81624  0.57490  0.76266  1.0000
  C   C533      1.0  0.77763  0.64641  0.74322  1.0000
  C   C534      1.0  0.68431  0.63022  0.69875  1.0000
  H   H874      1.0  0.97209  0.66986  0.63710  1.0000
  H   H875      1.0  0.76123  0.63667  0.75421  1.0000
  C   C535      1.0  0.75195  0.66834  0.72674  1.0000
  H   H876      1.0  0.73410  0.65874  0.73671  1.0000
  C   C536      1.0  0.91620  0.43076  0.76125  1.0000
  C   C537      1.0  0.78751  0.66242  0.70955  1.0000
  C   C538      1.0  0.97300  0.65352  0.62690  1.0000
  S   S212      1.0  0.91185  0.62325  0.77095  1.0000
  H   H877      1.0  0.99001  0.61541  0.61622  1.0000
  Fe  Fe107     1.0  0.92306  0.60169  0.74618  1.0000
  S   S213      1.0  0.89281  0.55682  0.75459  1.0000
  S   S214      1.0  0.91998  0.61295  0.71350  1.0000
  C   C539      1.0  0.97171  0.66131  0.70946  1.0000
  C   C540      1.0  0.76932  0.57184  0.76340  1.0000
  N   N55       1.0  0.68100  0.65471  0.59070  1.0000
  H   H878      1.0  0.69779  0.62500  0.66974  1.0000
  H   H879      1.0  0.67755  0.60836  0.70255  1.0000
  C   C541      1.0  0.71109  0.66371  0.59687  1.0000
  H   H880      1.0  0.72540  0.61139  0.72524  1.0000
  H   H881      1.0  0.95951  0.63231  0.63293  1.0000
  H   H882      1.0  0.67819  0.62385  0.56811  1.0000
  S   S215      1.0  0.74097  0.57444  0.75043  1.0000
  H   H883      1.0  0.73399  0.62275  0.70021  1.0000
  H   H884      1.0  0.80494  0.47819  0.75972  1.0000
  Fe  Fe108     1.0  0.91647  0.35928  0.76212  1.0000
  C   C542      1.0  0.69572  0.63970  0.68014  1.0000
  H   H885      1.0  0.75204  0.60620  0.71355  1.0000
  H   H886      1.0  0.72313  0.66373  0.58379  1.0000
  C   C543      1.0  0.94349  0.64442  0.70192  1.0000
  S   S216      1.0  0.95991  0.36560  0.77291  1.0000
  H   H887      1.0  0.79774  0.64871  0.70691  1.0000
  C   C544      1.0  0.79338  0.57729  0.75311  1.0000
  H   H888      1.0  0.83808  0.45802  0.75578  1.0000
  S   S217      1.0  0.96049  0.60247  0.76414  1.0000
  H   H889      1.0  0.97942  0.65585  0.72319  1.0000
  H   H890      1.0  0.00172  0.63538  0.65178  1.0000
  H   H891      1.0  0.83451  0.51335  0.76399  1.0000
  C   C545      1.0  0.85271  0.47395  0.76771  1.0000
  H   H892      1.0  0.78742  0.63210  0.74154  1.0000
  H   H893      1.0  0.99448  0.63874  0.59599  1.0000
  N   N56       1.0  0.76508  0.64963  0.72371  1.0000
  H   H894      1.0  0.96309  0.65424  0.61190  1.0000
  H   H895      1.0  0.77872  0.66518  0.69466  1.0000
  H   H896      1.0  0.86786  0.49305  0.76012  1.0000
  H   H897      1.0  0.71333  0.64969  0.60827  1.0000
  C   C546      1.0  0.69947  0.64447  0.86394  1.0000
  H   H898      1.0  0.99238  0.60965  0.84940  1.0000
  C   C547      1.0  0.93129  0.44239  0.77992  1.0000
  H   H899      1.0  0.94955  0.47901  0.80110  1.0000
  C   C548      1.0  0.93805  0.47051  0.78658  1.0000
  Fe  Fe109     1.0  0.94743  0.62156  0.78958  1.0000
  C   C549      1.0  0.99435  0.60846  0.83292  1.0000
  S   S218      1.0  0.70655  0.61695  0.77405  1.0000
  H   H900      1.0  0.95176  0.64322  0.87799  1.0000
  C   C550      1.0  0.81775  0.45570  0.79221  1.0000
  C   C551      1.0  0.70372  0.63795  0.84426  1.0000
  S   S219      1.0  0.91951  0.57886  0.80111  1.0000
  H   H901      1.0  0.84673  0.50937  0.80872  1.0000
  C   C552      1.0  0.97323  0.55699  0.83184  1.0000
  S   S220      1.0  0.67830  0.55233  0.79033  1.0000
  C   C553      1.0  0.96199  0.65066  0.84705  1.0000
  H   H902      1.0  0.73270  0.65126  0.82090  1.0000
  H   H903      1.0  0.87086  0.49478  0.80576  1.0000
  C   C554      1.0  0.76822  0.56394  0.78335  1.0000
  S   S221      1.0  0.84252  0.56156  0.79446  1.0000
  Fe  Fe110     1.0  0.88471  0.57885  0.78061  1.0000
  S   S222      1.0  0.98093  0.66040  0.80853  1.0000
  H   H904      1.0  0.78981  0.55455  0.80814  1.0000
  H   H905      1.0  0.94909  0.62852  0.84196  1.0000
  H   H906      1.0  0.80572  0.46074  0.80329  1.0000
  C   C555      1.0  0.96341  0.65909  0.86748  1.0000
  C   C556      1.0  0.93005  0.48759  0.77469  1.0000
  C   C557      1.0  0.72910  0.65606  0.83599  1.0000
  C   C558      1.0  0.72040  0.66867  0.87532  1.0000
  H   H907      1.0  0.74974  0.55961  0.79137  1.0000
  H   H908      1.0  0.97485  0.53772  0.82674  1.0000
  H   H909      1.0  0.67996  0.63055  0.87051  1.0000
  Fe  Fe111     1.0  0.67777  0.59357  0.79804  1.0000
  H   H910      1.0  0.97491  0.60744  0.82516  1.0000
  H   H911      1.0  0.80863  0.49970  0.78205  1.0000
  C   C559      1.0  0.79090  0.56103  0.79279  1.0000
  H   H912      1.0  0.97095  0.55630  0.84834  1.0000
  S   S223      1.0  0.93878  0.52279  0.78425  1.0000
  H   H913      1.0  0.93758  0.42962  0.78929  1.0000
  H   H914      1.0  0.82964  0.44610  0.80045  1.0000
  C   C560      1.0  0.81497  0.56654  0.78249  1.0000
  H   H915      1.0  0.95317  0.55491  0.82431  1.0000
  S   S224      1.0  0.67695  0.60683  0.83078  1.0000
  C   C561      1.0  0.85763  0.50290  0.79753  1.0000
  H   H916      1.0  0.98092  0.58128  0.79644  1.0000
  H   H917      1.0  0.80202  0.43908  0.78108  1.0000
  H   H918      1.0  0.87236  0.52266  0.79047  1.0000
  N   N57       1.0  0.83713  0.48153  0.78222  1.0000
  H   H919      1.0  0.99940  0.34104  0.77677  1.0000
  C   C562      1.0  0.00037  0.58314  0.80471  1.0000
  N   N58       1.0  0.99803  0.58359  0.82669  1.0000
  H   H920      1.0  0.86537  0.46468  0.77533  1.0000
  Fe  Fe112     1.0  0.92936  0.55911  0.77445  1.0000
  S   S225      1.0  0.92038  0.74049  0.12937  1.0000
  H   H921      1.0  0.74159  0.95802  0.04829  1.0000
  H   H922      1.0  0.80439  0.94543  0.05482  1.0000
  S   S226      1.0  0.75256  0.70755  0.06555  1.0000
  H   H923      1.0  0.83792  0.81030  0.21618  1.0000
  H   H924      1.0  0.98297  0.76180  0.18224  1.0000
  S   S227      1.0  0.77639  0.73703  0.12105  1.0000
  C   C563      1.0  0.74397  0.71352  0.04073  1.0000
  C   C564      1.0  0.90142  0.76012  0.12940  1.0000
  S   S228      1.0  0.73249  0.73132  0.16690  1.0000
  H   H925      1.0  0.74080  0.92403  0.05003  1.0000
  H   H926      1.0  0.87781  0.74993  0.08893  1.0000
  H   H927      1.0  0.88145  0.75607  0.06266  1.0000
  S   S229      1.0  0.98610  0.73128  0.12401  1.0000
  C   C565      1.0  0.86917  0.73999  0.07353  1.0000
  H   H928      1.0  0.70713  0.74359  0.04559  1.0000
  H   H929      1.0  0.85269  0.79179  0.20225  1.0000
  N   N59       1.0  0.83844  0.73079  0.07042  1.0000
  H   H930      1.0  0.91323  0.71564  0.20174  1.0000
  H   H931      1.0  0.74337  0.82300  0.05155  1.0000
  H   H932      1.0  0.86236  0.72327  0.13530  1.0000
  H   H933      1.0  0.96750  0.74087  0.05939  1.0000
  C   C566      1.0  0.78986  0.79217  0.19221  1.0000
  H   H934      1.0  0.79969  0.70147  0.08283  1.0000
  C   C567      1.0  0.71616  0.69746  0.03224  1.0000
  H   H935      1.0  0.87370  0.72168  0.07168  1.0000
  H   H936      1.0  0.83856  0.73446  0.03830  1.0000
  C   C568      1.0  0.69921  0.71958  0.17744  1.0000
  C   C569      1.0  0.69735  0.71411  0.19805  1.0000
  H   H937      1.0  0.80712  0.99295  0.05369  1.0000
  C   C570      1.0  0.73188  0.00297  0.04091  1.0000
  S   S230      1.0  0.98866  0.78315  0.09633  1.0000
  H   H938      1.0  0.81987  0.77193  0.21375  1.0000
  N   N60       1.0  0.94908  0.71986  0.18637  1.0000
  C   C571      1.0  0.85613  0.76025  0.13164  1.0000
  Fe  Fe113     1.0  0.74416  0.74649  0.13524  1.0000
  C   C572      1.0  0.83247  0.79160  0.20565  1.0000
  Fe  Fe114     1.0  0.75511  0.73757  0.09109  1.0000
  C   C573      1.0  0.87239  0.74579  0.13250  1.0000
  C   C574      1.0  0.75511  0.94748  0.05081  1.0000
  C   C575      1.0  0.67852  0.93759  0.19385  1.0000
  S   S231      1.0  0.71992  0.74173  0.10528  1.0000
  H   H939      1.0  0.79615  0.74696  0.18069  1.0000
  H   H940      1.0  0.83379  0.74889  0.13393  1.0000
  C   C576      1.0  0.79324  0.94005  0.03943  1.0000
  H   H941      1.0  0.77595  0.77232  0.19970  1.0000
  H   H942      1.0  0.80467  0.71058  0.04703  1.0000
  H   H943      1.0  0.90668  0.70878  0.17488  1.0000
  C   C577      1.0  0.89804  0.80382  0.12532  1.0000
  S   S232      1.0  0.77076  0.79410  0.13422  1.0000
  S   S233      1.0  0.78235  0.78428  0.08766  1.0000
  Fe  Fe115     1.0  0.74884  0.78890  0.10359  1.0000
  S   S234      1.0  0.72846  0.81514  0.09226  1.0000
  Fe  Fe116     1.0  0.78140  0.97528  0.10930  1.0000
  S   S235      1.0  0.73463  0.95609  0.11137  1.0000
  S   S236      1.0  0.80257  0.94993  0.09841  1.0000
  H   H944      1.0  0.82257  0.82020  0.16260  1.0000
  C   C578      1.0  0.70543  0.99024  0.04916  1.0000
  C   C579      1.0  0.74940  0.85250  0.09442  1.0000
  C   C580      1.0  0.73623  0.86973  0.09177  1.0000
  C   C581      1.0  0.75236  0.89960  0.09329  1.0000
  C   C582      1.0  0.78184  0.91246  0.09712  1.0000
  C   C583      1.0  0.79511  0.89520  0.09923  1.0000
  C   C584      1.0  0.77890  0.86525  0.09812  1.0000
  H   H945      1.0  0.71342  0.85995  0.08882  1.0000
  H   H946      1.0  0.74194  0.91259  0.09127  1.0000
  H   H947      1.0  0.81794  0.90503  0.10206  1.0000
  H   H948      1.0  0.78925  0.85210  0.10005  1.0000
  H   H949      1.0  0.96043  0.72609  0.21831  1.0000
  H   H950      1.0  0.72509  0.77353  0.06332  1.0000
  H   H951      1.0  0.83970  0.83834  0.18639  1.0000
  H   H952      1.0  0.79402  0.81080  0.20239  1.0000
  C   C585      1.0  0.69651  0.96006  0.18238  1.0000
  C   C586      1.0  0.80975  0.76729  0.17360  1.0000
  H   H953      1.0  0.80960  0.94547  0.02838  1.0000
  H   H954      1.0  0.85402  0.81948  0.17225  1.0000
  S   S237      1.0  0.71713  0.95348  0.16521  1.0000
  C   C587      1.0  0.83356  0.75570  0.07370  1.0000
  C   C588      1.0  0.97823  0.74271  0.04581  1.0000
  H   H955      1.0  0.98728  0.72637  0.20328  1.0000
  N   N61       1.0  0.77671  0.95558  0.03595  1.0000
  H   H956      1.0  0.77722  0.79271  0.17850  1.0000
  H   H957      1.0  0.83187  0.69996  0.04651  1.0000
  C   C589      1.0  0.83397  0.81880  0.17672  1.0000
  H   H958      1.0  0.79780  0.76743  0.15947  1.0000
  Fe  Fe117     1.0  0.80143  0.78415  0.11858  1.0000
  H   H959      1.0  0.77932  0.91653  0.03813  1.0000
  Fe  Fe118     1.0  0.96710  0.76118  0.12353  1.0000
  H   H960      1.0  0.84098  0.76546  0.08927  1.0000
  H   H961      1.0  0.82930  0.76679  0.16930  1.0000
  Fe  Fe119     1.0  0.74458  0.98090  0.14107  1.0000
  H   H962      1.0  0.84495  0.77265  0.06315  1.0000
  H   H963      1.0  0.90810  0.82637  0.12256  1.0000
  S   S238      1.0  0.84886  0.80797  0.12655  1.0000
  H   H964      1.0  0.82630  0.68993  0.08286  1.0000
  H   H965      1.0  0.95551  0.76139  0.19650  1.0000
  H   H966      1.0  0.83000  0.71752  0.10063  1.0000
  H   H967      1.0  0.93667  0.80053  0.12353  1.0000
  C   C590      1.0  0.96391  0.71617  0.20461  1.0000
  C   C591      1.0  0.91427  0.78925  0.12588  1.0000
  C   C592      1.0  0.86885  0.78931  0.12794  1.0000
  C   C593      1.0  0.82798  0.71844  0.04964  1.0000
  C   C594      1.0  0.69712  0.98659  0.18465  1.0000
  N   N62       1.0  0.81651  0.79249  0.18705  1.0000
  S   S239      1.0  0.00096  0.79377  0.14514  1.0000
  C   C595      1.0  0.95456  0.70649  0.16867  1.0000
  H   H968      1.0  0.76515  0.95373  0.06647  1.0000
  H   H969      1.0  0.67651  0.93417  0.12929  1.0000
  H   H970      1.0  0.71608  0.71718  0.20714  1.0000
  C   C596      1.0  0.68062  0.97857  0.03630  1.0000
  C   C597      1.0  0.91821  0.70614  0.18851  1.0000
  C   C598      1.0  0.95966  0.75066  0.18359  1.0000
  H   H971      1.0  0.81062  0.74954  0.07148  1.0000
  H   H972      1.0  0.94383  0.70903  0.15459  1.0000
  H   H973      1.0  0.69990  0.68274  0.04126  1.0000
  C   C599      1.0  0.72382  0.76633  0.04733  1.0000
  C   C600      1.0  0.82296  0.70896  0.08482  1.0000
  H   H974      1.0  0.68854  0.98259  0.14112  1.0000
  C   C601      1.0  0.79607  0.98666  0.03829  1.0000
  H   H975      1.0  0.94951  0.75429  0.16966  1.0000
  H   H976      1.0  0.67788  0.91698  0.19216  1.0000
  C   C602      1.0  0.74077  0.81399  0.03585  1.0000
  S   S240      1.0  0.70189  0.98835  0.07535  1.0000
  H   H977      1.0  0.97766  0.71627  0.16659  1.0000
  H   H978      1.0  0.73670  0.82819  0.02563  1.0000
  H   H979      1.0  0.69200  0.79193  0.05403  1.0000
  Fe  Fe120     1.0  0.73853  0.99549  0.09730  1.0000
  C   C603      1.0  0.76505  0.73197  0.02868  1.0000
  H   H980      1.0  0.76142  0.81519  0.03251  1.0000
  C   C604      1.0  0.69019  0.95888  0.26698  1.0000
  C   C605      1.0  0.69059  0.78363  0.03825  1.0000
  H   H981      1.0  0.68464  0.99273  0.11602  1.0000
  H   H982      1.0  0.70973  0.95816  0.26298  1.0000
  H   H983      1.0  0.74445  0.76710  0.04466  1.0000
  H   H984      1.0  0.67428  0.78264  0.21508  1.0000
  N   N63       1.0  0.71749  0.78429  0.03345  1.0000
  H   H985      1.0  0.78669  0.74428  0.03503  1.0000
  H   H986      1.0  0.67025  0.70008  0.22284  1.0000
  H   H987      1.0  0.94613  0.74610  0.02668  1.0000
  H   H988      1.0  0.95667  0.69320  0.20713  1.0000
  H   H989      1.0  0.67265  0.76147  0.03675  1.0000
  H   H990      1.0  0.67573  0.71934  0.15003  1.0000
  C   C606      1.0  0.67295  0.98288  0.12943  1.0000
  H   H991      1.0  0.81258  0.99353  0.02724  1.0000
  S   S241      1.0  0.79180  0.99738  0.14016  1.0000
  H   H992      1.0  0.90943  0.68282  0.19049  1.0000
  H   H993      1.0  0.67372  0.94362  0.10383  1.0000
  C   C607      1.0  0.96613  0.74558  0.02727  1.0000
  C   C608      1.0  0.67471  0.71533  0.16589  1.0000
  C   C609      1.0  0.67987  0.99049  0.19827  1.0000
  H   H994      1.0  0.67679  0.95548  0.25270  1.0000
  H   H995      1.0  0.78438  0.99910  0.03584  1.0000
  C   C610      1.0  0.67134  0.70434  0.20701  1.0000
  H   H996      1.0  0.94687  0.68325  0.17020  1.0000
  H   H997      1.0  0.68506  0.79695  0.02810  1.0000
  H   H998      1.0  0.00133  0.83133  0.05551  1.0000
  C   C611      1.0  0.90721  0.71148  0.44077  1.0000
  S   S242      1.0  0.68677  0.71217  0.39598  1.0000
  H   H999      1.0  0.94528  0.72204  0.51717  1.0000
  H   H1000     1.0  0.73279  0.83460  0.48224  1.0000
  C   C612      1.0  0.70005  0.70341  0.35758  1.0000
  H   H1001     1.0  0.70089  0.95954  0.37710  1.0000
  C   C613      1.0  0.70501  0.77072  0.34382  1.0000
  H   H1002     1.0  0.91957  0.72877  0.43072  1.0000
  H   H1003     1.0  0.68461  0.81693  0.36396  1.0000
  Fe  Fe121     1.0  0.72964  0.74073  0.41309  1.0000
  C   C614      1.0  0.90786  0.77274  0.42993  1.0000
  C   C615      1.0  0.74586  0.76800  0.50813  1.0000
  Fe  Fe122     1.0  0.75224  0.77218  0.45517  1.0000
  C   C616      1.0  0.77091  0.89003  0.49207  1.0000
  S   S243      1.0  0.97391  0.72973  0.42018  1.0000
  H   H1004     1.0  0.74798  0.83205  0.45956  1.0000
  C   C617      1.0  0.67978  0.70402  0.36962  1.0000
  Fe  Fe123     1.0  0.98946  0.74766  0.45216  1.0000
  C   C618      1.0  0.89418  0.67711  0.41283  1.0000
  S   S244      1.0  0.74737  0.73086  0.44177  1.0000
  H   H1005     1.0  0.74979  0.73366  0.49352  1.0000
  H   H1006     1.0  0.74080  0.82717  0.34723  1.0000
  S   S245      1.0  0.96642  0.72288  0.47851  1.0000
  H   H1007     1.0  0.80964  0.87145  0.49750  1.0000
  H   H1008     1.0  0.69877  0.79307  0.39056  1.0000
  H   H1009     1.0  0.68360  0.75175  0.34159  1.0000
  Fe  Fe124     1.0  0.79030  0.75824  0.43006  1.0000
  C   C619      1.0  0.98321  0.72932  0.50315  1.0000
  C   C620      1.0  0.74901  0.74331  0.50778  1.0000
  H   H1010     1.0  0.90515  0.69441  0.40232  1.0000
  H   H1011     1.0  0.87295  0.71353  0.41014  1.0000
  C   C621      1.0  0.88255  0.76662  0.43879  1.0000
  S   S246      1.0  0.82516  0.74635  0.43809  1.0000
  C   C622      1.0  0.77620  0.91355  0.41479  1.0000
  S   S247      1.0  0.77430  0.99281  0.40507  1.0000
  Fe  Fe125     1.0  0.77396  0.80325  0.41656  1.0000
  C   C623      1.0  0.68473  0.80121  0.35268  1.0000
  C   C624      1.0  0.74619  0.84738  0.47029  1.0000
  H   H1012     1.0  0.78275  0.89610  0.45378  1.0000
  C   C625      1.0  0.90836  0.77214  0.40897  1.0000
  C   C626      1.0  0.78788  0.89642  0.40782  1.0000
  C   C627      1.0  0.71345  0.98923  0.29695  1.0000
  C   C628      1.0  0.79206  0.88443  0.46240  1.0000
  H   H1013     1.0  0.73561  0.83259  0.37303  1.0000
  C   C629      1.0  0.69857  0.99497  0.36368  1.0000
  H   H1014     1.0  0.71050  0.78019  0.32895  1.0000
  H   H1015     1.0  0.73366  0.98891  0.29450  1.0000
  H   H1016     1.0  0.79134  0.83991  0.48099  1.0000
  S   S248      1.0  0.93754  0.77295  0.39720  1.0000
  H   H1017     1.0  0.78814  0.93658  0.41472  1.0000
  H   H1018     1.0  0.77542  0.84350  0.50300  1.0000
  C   C630      1.0  0.69077  0.96605  0.36526  1.0000
  C   C631      1.0  0.73825  0.99028  0.50597  1.0000
  C   C632      1.0  0.69289  0.69484  0.33696  1.0000
  H   H1019     1.0  0.72567  0.95266  0.52310  1.0000
  S   S249      1.0  0.78904  0.84562  0.40207  1.0000
  Fe  Fe126     1.0  0.97416  0.77173  0.41538  1.0000
  H   H1020     1.0  0.76040  0.90079  0.48350  1.0000
  H   H1021     1.0  0.85472  0.70491  0.43275  1.0000
  H   H1022     1.0  0.75059  0.80988  0.36675  1.0000
  S   S250      1.0  0.98701  0.78817  0.44755  1.0000
  C   C633      1.0  0.96716  0.72650  0.51970  1.0000
  C   C634      1.0  0.73123  0.97507  0.52364  1.0000
  C   C635      1.0  0.85885  0.76250  0.40593  1.0000
  C   C636      1.0  0.77317  0.86664  0.40903  1.0000
  C   C637      1.0  0.78840  0.85556  0.49065  1.0000
  H   H1023     1.0  0.79401  0.86929  0.45155  1.0000
  H   H1024     1.0  0.80873  0.90633  0.40216  1.0000
  H   H1025     1.0  0.73821  0.97961  0.49193  1.0000
  C   C638      1.0  0.88405  0.76798  0.39703  1.0000
  Fe  Fe127     1.0  0.75465  0.96831  0.43196  1.0000
  S   S251      1.0  0.78758  0.00084  0.45437  1.0000
  H   H1026     1.0  0.81387  0.90042  0.46822  1.0000
  C   C639      1.0  0.74615  0.85398  0.41613  1.0000
  C   C640      1.0  0.66964  0.94534  0.35156  1.0000
  S   S252      1.0  0.77213  0.76474  0.40029  1.0000
  S   S253      1.0  0.73081  0.77979  0.42777  1.0000
  H   H1027     1.0  0.70840  0.69347  0.32791  1.0000
  H   H1028     1.0  0.88431  0.76772  0.38080  1.0000
  H   H1029     1.0  0.83984  0.75787  0.39655  1.0000
  H   H1030     1.0  0.71374  0.77042  0.38377  1.0000
  C   C641      1.0  0.85780  0.76092  0.42683  1.0000
  H   H1031     1.0  0.70120  0.97145  0.30680  1.0000
  S   S254      1.0  0.73629  0.92085  0.43511  1.0000
  H   H1032     1.0  0.68947  0.81157  0.33804  1.0000
  N   N64       1.0  0.77441  0.86936  0.47887  1.0000
  S   S255      1.0  0.79578  0.79898  0.44504  1.0000
  N   N65       1.0  0.70562  0.79160  0.35913  1.0000
  H   H1033     1.0  0.75754  0.87928  0.50459  1.0000
  S   S256      1.0  0.74265  0.78389  0.48575  1.0000
  H   H1034     1.0  0.92662  0.77669  0.43933  1.0000
  C   C642      1.0  0.74964  0.90076  0.42273  1.0000
  H   H1035     1.0  0.73448  0.85715  0.46213  1.0000
  C   C643      1.0  0.73435  0.87096  0.42279  1.0000
  H   H1036     1.0  0.84423  0.67847  0.41237  1.0000
  H   H1037     1.0  0.71359  0.86100  0.42862  1.0000
  H   H1038     1.0  0.88192  0.76547  0.45496  1.0000
  H   H1039     1.0  0.72090  0.70853  0.36430  1.0000
  H   H1040     1.0  0.89992  0.72085  0.45276  1.0000
  C   C644      1.0  0.73437  0.81638  0.36158  1.0000
  S   S257      1.0  0.72337  0.98524  0.43433  1.0000
  H   H1041     1.0  0.73430  0.83114  0.41662  1.0000
  H   H1042     1.0  0.79174  0.90700  0.49881  1.0000
  H   H1043     1.0  0.99300  0.69000  0.33188  1.0000
  H   H1044     1.0  0.92225  0.70493  0.44816  1.0000
  N   N66       1.0  0.88323  0.68719  0.42935  1.0000
  H   H1045     1.0  0.67838  0.94047  0.27641  1.0000
  C   C645      1.0  0.69841  0.77800  0.37856  1.0000
  H   H1046     1.0  0.72030  0.76276  0.34838  1.0000
  H   H1047     1.0  0.67692  0.75906  0.37739  1.0000
  C   C646      1.0  0.86288  0.69636  0.42080  1.0000
  H   H1048     1.0  0.99900  0.71381  0.36571  1.0000
  N   N67       1.0  0.69690  0.98624  0.27766  1.0000
  C   C647      1.0  0.67030  0.98665  0.28180  1.0000
  H   H1049     1.0  0.86048  0.67112  0.45560  1.0000
  C   C648      1.0  0.68501  0.00290  0.34820  1.0000
  H   H1050     1.0  0.79978  0.83770  0.68097  1.0000
  Fe  Fe128     1.0  0.75480  0.74695  0.59780  1.0000
  S   S258      1.0  0.96678  0.71429  0.61138  1.0000
  S   S259      1.0  0.77457  0.72988  0.62053  1.0000
  H   H1051     1.0  0.84398  0.78148  0.59386  1.0000
  C   C649      1.0  0.82576  0.89200  0.67036  1.0000
  S   S260      1.0  0.75133  0.72643  0.56685  1.0000
  H   H1052     1.0  0.90438  0.81773  0.63646  1.0000
  Fe  Fe129     1.0  0.79809  0.77438  0.63409  1.0000
  C   C650      1.0  0.85470  0.79037  0.55496  1.0000
  H   H1053     1.0  0.74502  0.91105  0.64850  1.0000
  C   C651      1.0  0.74927  0.74295  0.54449  1.0000
  H   H1054     1.0  0.85137  0.71400  0.61780  1.0000
  C   C652      1.0  0.89193  0.75182  0.61882  1.0000
  H   H1055     1.0  0.96635  0.72651  0.55211  1.0000
  S   S261      1.0  0.72853  0.81269  0.63758  1.0000
  H   H1056     1.0  0.87713  0.75440  0.55743  1.0000
  C   C653      1.0  0.86308  0.73661  0.62199  1.0000
  H   H1057     1.0  0.80452  0.74493  0.54508  1.0000
  S   S262      1.0  0.71811  0.73834  0.61627  1.0000
  S   S263      1.0  0.90721  0.73446  0.60533  1.0000
  H   H1058     1.0  0.82721  0.73832  0.63335  1.0000
  Fe  Fe130     1.0  0.95384  0.74900  0.61166  1.0000
  H   H1059     1.0  0.67601  0.67752  0.61593  1.0000
  C   C654      1.0  0.84323  0.87297  0.64456  1.0000
  N   N68       1.0  0.84285  0.76272  0.56461  1.0000
  C   C655      1.0  0.86372  0.77985  0.63521  1.0000
  H   H1060     1.0  0.80444  0.68382  0.71543  1.0000
  H   H1061     1.0  0.84947  0.86830  0.69519  1.0000
  Fe  Fe131     1.0  0.99450  0.73822  0.63915  1.0000
  C   C656      1.0  0.99021  0.68483  0.69888  1.0000
  C   C657      1.0  0.73155  0.98876  0.54200  1.0000
  H   H1062     1.0  0.72172  0.68571  0.60387  1.0000
  S   S264      1.0  0.84524  0.79800  0.64299  1.0000
  H   H1063     1.0  0.85778  0.73517  0.57796  1.0000
  C   C658      1.0  0.75213  0.89745  0.64117  1.0000
  C   C659      1.0  0.73684  0.86760  0.64229  1.0000
  C   C660      1.0  0.74660  0.84974  0.63378  1.0000
  Fe  Fe132     1.0  0.73944  0.72369  0.63992  1.0000
  H   H1064     1.0  0.88213  0.77252  0.58153  1.0000
  C   C661      1.0  0.82882  0.76456  0.58264  1.0000
  C   C662      1.0  0.97906  0.72897  0.53952  1.0000
  S   S265      1.0  0.78132  0.79243  0.60980  1.0000
  C   C663      1.0  0.74663  0.76790  0.54489  1.0000
  H   H1065     1.0  0.86217  0.89411  0.64337  1.0000
  H   H1066     1.0  0.84375  0.91374  0.66897  1.0000
  C   C664      1.0  0.89289  0.79501  0.63266  1.0000
  S   S266      1.0  0.72215  0.96908  0.56387  1.0000
  H   H1067     1.0  0.92934  0.79288  0.62204  1.0000
  C   C665      1.0  0.95217  0.67572  0.67369  1.0000
  C   C666      1.0  0.90706  0.78097  0.62456  1.0000
  S   S267      1.0  0.80036  0.94690  0.63400  1.0000
  H   H1068     1.0  0.68507  0.95413  0.59768  1.0000
  H   H1069     1.0  0.84898  0.85610  0.64012  1.0000
  Fe  Fe133     1.0  0.78300  0.97773  0.62716  1.0000
  C   C667      1.0  0.85625  0.87126  0.67956  1.0000
  C   C668      1.0  0.67064  0.95804  0.60717  1.0000
  H   H1070     1.0  0.81923  0.89056  0.68603  1.0000
  Fe  Fe134     1.0  0.74908  0.98868  0.59312  1.0000
  S   S268      1.0  0.73712  0.96659  0.62212  1.0000
  H   H1071     1.0  0.74560  0.77747  0.55911  1.0000
  H   H1072     1.0  0.83774  0.79610  0.55031  1.0000
  H   H1073     1.0  0.81114  0.76948  0.57865  1.0000
  C   C669      1.0  0.68924  0.67698  0.70679  1.0000
  C   C670      1.0  0.84918  0.75048  0.63046  1.0000
  H   H1074     1.0  0.80606  0.90113  0.61483  1.0000
  S   S269      1.0  0.76472  0.76730  0.65550  1.0000
  C   C671      1.0  0.77744  0.90969  0.63160  1.0000
  Fe  Fe135     1.0  0.74630  0.78270  0.63022  1.0000
  C   C672      1.0  0.70116  0.68663  0.68834  1.0000
  H   H1075     1.0  0.80761  0.89030  0.66033  1.0000
  H   H1076     1.0  0.87556  0.89238  0.67945  1.0000
  H   H1077     1.0  0.83172  0.73752  0.53664  1.0000
  H   H1078     1.0  0.77834  0.84825  0.61621  1.0000
  C   C673      1.0  0.80820  0.84110  0.66583  1.0000
  S   S270      1.0  0.98706  0.77724  0.59164  1.0000
  H   H1079     1.0  0.81342  0.82364  0.66222  1.0000
  H   H1080     1.0  0.79059  0.83858  0.65483  1.0000
  C   C674      1.0  0.77110  0.86187  0.62329  1.0000
  N   N69       1.0  0.83335  0.86939  0.66508  1.0000
  S   S271      1.0  0.79383  0.99638  0.59702  1.0000
  C   C675      1.0  0.78660  0.89176  0.62236  1.0000
  H   H1081     1.0  0.71778  0.85837  0.65031  1.0000
  H   H1082     1.0  0.82652  0.87153  0.63320  1.0000
  H   H1083     1.0  0.86245  0.85446  0.67583  1.0000
  C   C676      1.0  0.98060  0.69210  0.68091  1.0000
  H   H1084     1.0  0.74312  0.67199  0.71220  1.0000
  S   S272      1.0  0.97939  0.77114  0.64052  1.0000
  H   H1085     1.0  0.81963  0.74404  0.59029  1.0000
  C   C677      1.0  0.86595  0.75593  0.57060  1.0000
  C   C678      1.0  0.82183  0.74004  0.55026  1.0000
  H   H1086     1.0  0.70742  0.70835  0.68442  1.0000
  H   H1087     1.0  0.76756  0.68961  0.73371  1.0000
  S   S273      1.0  0.71822  0.67854  0.65113  1.0000
  H   H1088     1.0  0.94425  0.68122  0.66008  1.0000
  C   C679      1.0  0.75041  0.73068  0.52590  1.0000
  H   H1089     1.0  0.86535  0.78972  0.54124  1.0000
  H   H1090     1.0  0.68949  0.69668  0.58208  1.0000
  H   H1091     1.0  0.70168  0.00293  0.58560  1.0000
  H   H1092     1.0  0.87065  0.80796  0.56541  1.0000
  H   H1093     1.0  0.81167  0.71904  0.55728  1.0000
  H   H1094     1.0  0.68216  0.96697  0.62223  1.0000
  H   H1095     1.0  0.75234  0.71130  0.52545  1.0000
  H   H1096     1.0  0.68643  0.69144  0.71697  1.0000
  C   C680      1.0  0.67931  0.67422  0.57578  1.0000
  C   C681      1.0  0.74468  0.78022  0.52674  1.0000
  H   H1097     1.0  0.74203  0.79920  0.52712  1.0000
  H   H1098     1.0  0.69058  0.67430  0.56220  1.0000
  C   C682      1.0  0.99470  0.70814  0.86069  1.0000
  S   S274      1.0  0.78501  0.73279  0.94088  1.0000
  C   C683      1.0  0.84167  0.72191  0.89953  1.0000
  Fe  Fe136     1.0  0.77053  0.73912  0.90980  1.0000
  S   S275      1.0  0.77315  0.71724  0.88075  1.0000
  C   C684      1.0  0.73029  0.71781  0.99978  1.0000
  H   H1099     1.0  0.68148  0.75623  0.85307  1.0000
  Fe  Fe137     1.0  0.75172  0.74334  0.95172  1.0000
  C   C685      1.0  0.70821  0.99137  0.00698  1.0000
  H   H1100     1.0  0.73493  0.77374  0.00826  1.0000
  S   S276      1.0  0.72007  0.71994  0.97445  1.0000
  C   C686      1.0  0.73494  0.77643  0.86935  1.0000
  H   H1101     1.0  0.76978  0.69382  0.84092  1.0000
  C   C687      1.0  0.71485  0.77318  0.01245  1.0000
  H   H1102     1.0  0.77826  0.95379  0.00371  1.0000
  H   H1103     1.0  0.84292  0.67341  0.88904  1.0000
  C   C688      1.0  0.69644  0.75336  0.84351  1.0000
  H   H1104     1.0  0.70961  0.78588  0.00151  1.0000
  C   C689      1.0  0.74591  0.68658  0.86711  1.0000
  H   H1105     1.0  0.72140  0.72284  0.87798  1.0000
  C   C690      1.0  0.84675  0.86525  0.95323  1.0000
  H   H1106     1.0  0.70583  0.77218  0.83405  1.0000
  H   H1107     1.0  0.86140  0.86177  0.96404  1.0000
  H   H1108     1.0  0.69323  0.70518  0.85868  1.0000
  Fe  Fe138     1.0  0.99327  0.73914  0.91650  1.0000
  N   N70       1.0  0.86373  0.71379  0.90597  1.0000
  H   H1109     1.0  0.75548  0.74521  0.85165  1.0000
  H   H1110     1.0  0.68378  0.73409  0.83322  1.0000
  C   C691      1.0  0.75824  0.73406  0.00820  1.0000
  H   H1111     1.0  0.83348  0.67227  0.91457  1.0000
  H   H1112     1.0  0.88419  0.74830  0.92847  1.0000
  H   H1113     1.0  0.74803  0.76489  0.83281  1.0000
  S   S277      1.0  0.98353  0.69661  0.90073  1.0000
  S   S278      1.0  0.70799  0.99120  0.98046  1.0000
  C   C692      1.0  0.85135  0.68234  0.90470  1.0000
  S   S279      1.0  0.95738  0.74367  0.92885  1.0000
  H   H1114     1.0  0.75211  0.77510  0.87879  1.0000
  H   H1115     1.0  0.71696  0.67318  0.89052  1.0000
  H   H1116     1.0  0.89139  0.71907  0.93236  1.0000
  C   C693      1.0  0.97978  0.74794  0.00951  1.0000
  S   S280      1.0  0.73490  0.74595  0.92034  1.0000
  C   C694      1.0  0.99428  0.69951  0.84044  1.0000
  H   H1117     1.0  0.74515  0.79599  0.86070  1.0000
  H   H1118     1.0  0.85741  0.71594  0.93748  1.0000
  N   N71       1.0  0.71865  0.75046  0.85594  1.0000
  H   H1119     1.0  0.85032  0.74550  0.90015  1.0000
  C   C695      1.0  0.70931  0.69985  0.01196  1.0000
  H   H1120     1.0  0.74765  0.92496  0.01303  1.0000
  C   C696      1.0  0.97984  0.68781  0.87445  1.0000
  H   H1121     1.0  0.89714  0.74991  0.89315  1.0000
  H   H1122     1.0  0.83273  0.71388  0.88380  1.0000
  H   H1123     1.0  0.72667  0.72668  0.83291  1.0000
  H   H1124     1.0  0.69792  0.75056  0.01015  1.0000
  C   C697      1.0  0.76258  0.94819  0.01533  1.0000
  C   C698      1.0  0.68201  0.97915  0.01539  1.0000
  Fe  Fe139     1.0  0.78571  0.97765  0.95255  1.0000
  S   S281      1.0  0.79673  0.94315  0.96265  1.0000
  S   S282      1.0  0.74362  0.97074  0.93849  1.0000
  Fe  Fe140     1.0  0.76653  0.79257  0.92433  1.0000
  S   S283      1.0  0.75768  0.82680  0.91131  1.0000
  C   C699      1.0  0.75010  0.68017  0.84740  1.0000
  S   S284      1.0  0.78047  0.79039  0.95633  1.0000
  C   C700      1.0  0.92929  0.80461  0.93845  1.0000
  Fe  Fe141     1.0  0.81250  0.78038  0.94290  1.0000
  H   H1125     1.0  0.75015  0.95979  0.01209  1.0000
  C   C701      1.0  0.87918  0.80120  0.92033  1.0000
  C   C702      1.0  0.90050  0.80247  0.90843  1.0000
  H   H1126     1.0  0.85982  0.79953  0.91320  1.0000
  H   H1127     1.0  0.85130  0.89594  0.90835  1.0000
  H   H1128     1.0  0.68770  0.68719  0.00556  1.0000
  C   C703      1.0  0.78420  0.91051  0.94842  1.0000
  C   C704      1.0  0.78706  0.88802  0.95708  1.0000
  C   C705      1.0  0.77828  0.86203  0.94602  1.0000
  C   C706      1.0  0.76697  0.85845  0.92607  1.0000
  C   C707      1.0  0.76393  0.88086  0.91744  1.0000
  C   C708      1.0  0.77240  0.90678  0.92860  1.0000
  H   H1129     1.0  0.79602  0.89074  0.97245  1.0000
  H   H1130     1.0  0.78038  0.84486  0.95291  1.0000
  H   H1131     1.0  0.75513  0.87828  0.90203  1.0000
  H   H1132     1.0  0.77010  0.92399  0.92178  1.0000
  H   H1133     1.0  0.72116  0.77975  0.87985  1.0000
  C   C709      1.0  0.87460  0.72466  0.92699  1.0000
  H   H1134     1.0  0.82927  0.84378  0.94816  1.0000
  H   H1135     1.0  0.91172  0.80540  0.96662  1.0000
  H   H1136     1.0  0.90018  0.90780  0.95402  1.0000
  H   H1137     1.0  0.94839  0.80550  0.94555  1.0000
  C   C710      1.0  0.88733  0.72621  0.89267  1.0000
  H   H1138     1.0  0.90457  0.72087  0.89725  1.0000
  H   H1139     1.0  0.82360  0.71314  0.90932  1.0000
  C   C711      1.0  0.87376  0.86515  0.92556  1.0000
  H   H1140     1.0  0.77454  0.74806  0.99890  1.0000
  C   C712      1.0  0.92544  0.80380  0.91745  1.0000
  C   C713      1.0  0.84108  0.88455  0.92180  1.0000
  H   H1141     1.0  0.88539  0.87652  0.91253  1.0000
  H   H1142     1.0  0.89605  0.92223  0.93062  1.0000
  S   S285      1.0  0.96414  0.75273  0.98683  1.0000
  C   C714      1.0  0.88443  0.90963  0.94328  1.0000
  C   C715      1.0  0.88323  0.80243  0.94135  1.0000
  H   H1143     1.0  0.83178  0.89701  0.92905  1.0000
  S   S286      1.0  0.80087  0.78625  0.91130  1.0000
  H   H1144     1.0  0.89743  0.80178  0.89218  1.0000
  H   H1145     1.0  0.69028  0.72726  0.87835  1.0000
  H   H1146     1.0  0.82307  0.86346  0.91636  1.0000
  Fe  Fe142     1.0  0.98538  0.76216  0.95744  1.0000
  C   C716      1.0  0.90846  0.80447  0.95037  1.0000
  H   H1147     1.0  0.87582  0.92222  0.95121  1.0000
  S   S287      1.0  0.85745  0.80220  0.95663  1.0000
  H   H1148     1.0  0.88887  0.86169  0.93593  1.0000
  H   H1149     1.0  0.88004  0.71837  0.87670  1.0000
  C   C717      1.0  0.73802  0.74668  0.84270  1.0000
  N   N72       1.0  0.86152  0.88117  0.93596  1.0000
  S   S288      1.0  0.95073  0.80286  0.90223  1.0000
  Fe  Fe143     1.0  0.97920  0.78814  0.91850  1.0000
  H   H1150     1.0  0.85693  0.84366  0.91982  1.0000
  C   C718      1.0  0.70521  0.72533  0.86825  1.0000
  H   H1151     1.0  0.83739  0.87672  0.96159  1.0000
  C   C719      1.0  0.73328  0.00344  0.01976  1.0000
  Fe  Fe144     1.0  0.74659  0.00140  0.96357  1.0000
  H   H1152     1.0  0.86748  0.67553  0.90943  1.0000
  C   C720      1.0  0.97804  0.67073  0.83350  1.0000
