data_image0
_chemical_formula_structural       S2FeSFeSCHCHC3H2CSFeHCHSHCH6CHCHNCH3CH4C2H2C2H5C2H2NH2FeS2FeS2C3HC2H2CH6C2H2C4HCHC2HFeCFeHCSCH2SHC4H2CH4S3H3NHCH3CH3CHNH3S2H4SH3SC7H2CHCHCHSFeCH2CHFeHFeC4SH2S2H2C4FeSHNHCH2CFeNCH2CHCHCHCH2FeSFeSFeS4HC6H2S2H5FeCH4NCH3CH5SCSHFeCSFeSH2C6H5SH3CHCH2NH2SH3CFe2S2H2C6HCHNCHCHFeH3SC2SFeSCH8CH3SH5CFeS3NC6H3FeH5CH2FeHCH2CH2CS2HCNHFeCSCH2SC9H3SHNH6CNHCH3SH4CHCHCH2FeH3SCH2CH3C2HSCH2FeH4CHC4NHS2FeH4S2FeCHC2SCHNHC3SHCH2FeCSC3SH2SH4FeCH12CHC2HCHCH2SCSH2FeS2FeS2FeHFeS3C2FeC2H2C4H2C5H4CH2CH5NCH2CH2SH4CHCFeSHC7H6CHCH3S3H2C2HNH5SHNCH2Fe2HSCSC2HC3H2CH3CFeH3NH4SCFeC4H2S2HCS2CFeH2C6H3CHNHCHSHFeCHSH3CSHFeH3CH6C2H2SHSC2SHFeS2HCHSCH5C6H3NHNC2HNFeH2FeH4SHC2H2CHCH6CSFeSFeSC2NSC2HS2CH2FeHCH5C2H3CHCH2SH3FeCH2NHC2H6CSC2NH2C6H4SHC2FeCHC2H4CH2CH2CH2S2HCFeS2CHFeSHS2CHNC3H5C3FeSH9C2NH5C2HCSHC2HCHNH2CH5FeS2FeS2FeHFeS3C4H2CHC6H4C3NH2CH2CHCHCHCH3CH4CHCH4SHNH2CHSFeSFeHC6H5SCH2C2HC2SH2SH2FeH6FeCH2SH2NH
_chemical_formula_sum              "S128 Fe64 C320 H512 N32"
_cell_length_a       43.774
_cell_length_b       46.4216
_cell_length_c       29.4938
_cell_angle_alpha    87.7257
_cell_angle_beta     110.627
_cell_angle_gamma    89.5349

_space_group_name_H-M_alt    "P 1"
_space_group_IT_number       1

loop_
  _space_group_symop_operation_xyz
  'x, y, z'

loop_
  _atom_site_type_symbol
  _atom_site_label
  _atom_site_symmetry_multiplicity
  _atom_site_fract_x
  _atom_site_fract_y
  _atom_site_fract_z
  _atom_site_occupancy
  S   S1        1.0  0.04748  0.24089  0.30556  1.0000
  S   S2        1.0  0.10385  0.19233  0.25840  1.0000
  Fe  Fe1       1.0  0.15446  0.20057  0.30910  1.0000
  S   S3        1.0  0.18549  0.16704  0.36289  1.0000
  Fe  Fe2       1.0  0.11703  0.21919  0.20307  1.0000
  S   S4        1.0  0.11002  0.20736  0.12619  1.0000
  C   C1        1.0  0.07999  0.22374  0.07427  1.0000
  H   H1        1.0  0.32769  0.25536  0.21446  1.0000
  C   C2        1.0  0.07941  0.21655  0.02817  1.0000
  H   H2        1.0  0.07443  0.10373  0.36916  1.0000
  C   C3        1.0  0.17247  0.16347  0.41252  1.0000
  C   C4        1.0  0.14415  0.17798  0.41175  1.0000
  C   C5        1.0  0.19165  0.14771  0.45448  1.0000
  H   H3        1.0  0.12865  0.18947  0.37907  1.0000
  H   H4        1.0  0.21333  0.13613  0.45496  1.0000
  C   C6        1.0  0.13593  0.17794  0.45352  1.0000
  S   S5        1.0  0.16946  0.22255  0.25167  1.0000
  Fe  Fe3       1.0  0.09178  0.23460  0.28340  1.0000
  H   H5        1.0  0.20002  0.21574  0.44087  1.0000
  C   C7        1.0  0.51116  0.24689  0.09717  1.0000
  H   H6        1.0  0.12712  0.11229  0.43541  1.0000
  S   S6        1.0  0.14224  0.24169  0.33700  1.0000
  H   H7        1.0  0.13274  0.25644  0.06823  1.0000
  C   C8        1.0  0.18324  0.14746  0.49622  1.0000
  H   H8        1.0  0.28248  0.25769  0.39734  1.0000
  H   H9        1.0  0.12540  0.07655  0.46006  1.0000
  H   H10       1.0  0.11440  0.18982  0.45296  1.0000
  H   H11       1.0  0.49434  0.22967  0.07883  1.0000
  H   H12       1.0  0.08524  0.14296  0.48018  1.0000
  H   H13       1.0  0.07916  0.14641  0.41665  1.0000
  C   C9        1.0  0.05785  0.24462  0.07791  1.0000
  H   H14       1.0  0.09641  0.20036  0.02506  1.0000
  C   C10       1.0  0.48661  0.24997  0.15877  1.0000
  H   H15       1.0  0.50763  0.25236  0.36365  1.0000
  N   N1        1.0  0.08179  0.10270  0.44518  1.0000
  C   C11       1.0  0.07045  0.08626  0.47996  1.0000
  H   H16       1.0  0.27195  0.20352  0.50248  1.0000
  H   H17       1.0  0.04605  0.13661  0.43597  1.0000
  H   H18       1.0  0.07251  0.06847  0.39534  1.0000
  C   C12       1.0  0.15562  0.16293  0.49593  1.0000
  H   H19       1.0  0.07715  0.06294  0.48192  1.0000
  H   H20       1.0  0.46916  0.23271  0.14262  1.0000
  H   H21       1.0  0.51682  0.19966  0.15652  1.0000
  H   H22       1.0  0.49098  0.24954  0.19847  1.0000
  C   C13       1.0  0.07271  0.13349  0.44446  1.0000
  C   C14       1.0  0.06631  0.09168  0.39617  1.0000
  H   H23       1.0  0.05782  0.25012  0.11319  1.0000
  H   H24       1.0  0.34933  0.23574  0.27062  1.0000
  C   C15       1.0  0.11765  0.09943  0.46013  1.0000
  C   C16       1.0  0.21668  0.23392  0.45448  1.0000
  H   H25       1.0  0.16690  0.24391  0.15225  1.0000
  H   H26       1.0  0.13011  0.10690  0.49749  1.0000
  H   H27       1.0  0.23427  0.23406  0.43489  1.0000
  H   H28       1.0  0.05454  0.17942  0.29478  1.0000
  H   H29       1.0  0.20163  0.25418  0.44347  1.0000
  C   C17       1.0  0.53295  0.21789  0.17196  1.0000
  C   C18       1.0  0.35084  0.25426  0.24636  1.0000
  H   H30       1.0  0.37113  0.24936  0.23313  1.0000
  H   H31       1.0  0.53865  0.21682  0.21200  1.0000
  N   N2        1.0  0.51753  0.24597  0.14991  1.0000
  H   H32       1.0  0.53420  0.24392  0.08965  1.0000
  H   H33       1.0  0.22398  0.25849  0.34403  1.0000
  Fe  Fe4       1.0  0.18790  0.15909  0.61723  1.0000
  S   S7        1.0  0.20196  0.19922  0.65862  1.0000
  S   S8        1.0  0.14480  0.16321  0.54769  1.0000
  Fe  Fe5       1.0  0.20585  0.17117  0.72378  1.0000
  S   S9        1.0  0.18983  0.18364  0.78548  1.0000
  S   S10       1.0  0.18701  0.13200  0.68135  1.0000
  C   C19       1.0  0.15739  0.20867  0.77598  1.0000
  C   C20       1.0  0.13718  0.20543  0.80361  1.0000
  C   C21       1.0  0.11190  0.22561  0.79834  1.0000
  H   H34       1.0  0.22113  0.22807  0.57203  1.0000
  C   C22       1.0  0.06977  0.22013  0.64935  1.0000
  C   C23       1.0  0.15261  0.23259  0.74368  1.0000
  H   H35       1.0  0.14101  0.18715  0.82909  1.0000
  H   H36       1.0  0.09633  0.22272  0.81954  1.0000
  C   C24       1.0  0.10723  0.24966  0.76637  1.0000
  H   H37       1.0  0.26002  0.19756  0.81816  1.0000
  H   H38       1.0  0.32984  0.21824  0.85089  1.0000
  H   H39       1.0  0.08152  0.09436  0.51718  1.0000
  H   H40       1.0  0.38195  0.24425  0.63624  1.0000
  H   H41       1.0  0.26646  0.20102  0.56023  1.0000
  H   H42       1.0  0.25014  0.01984  0.75091  1.0000
  C   C25       1.0  0.37726  0.24638  0.73336  1.0000
  C   C26       1.0  0.24572  0.02022  0.71241  1.0000
  H   H43       1.0  0.05678  0.22444  0.95064  1.0000
  H   H44       1.0  0.06865  0.18729  0.72555  1.0000
  C   C27       1.0  0.39300  0.22090  0.75765  1.0000
  C   C28       1.0  0.34407  0.24621  0.70372  1.0000
  C   C29       1.0  0.40478  0.25208  0.63191  1.0000
  C   C30       1.0  0.26158  0.24315  0.75932  1.0000
  H   H45       1.0  0.30877  0.20243  0.79407  1.0000
  C   C31       1.0  0.26549  0.21882  0.83507  1.0000
  H   H46       1.0  0.38727  0.17572  0.77154  1.0000
  C   C32       1.0  0.31344  0.22317  0.81282  1.0000
  C   C33       1.0  0.05701  0.23019  0.98595  1.0000
  H   H47       1.0  0.09326  0.20846  0.66977  1.0000
  Fe  Fe6       1.0  0.25344  0.18459  0.67129  1.0000
  C   C34       1.0  0.23500  0.02091  0.61340  1.0000
  Fe  Fe7       1.0  0.23940  0.12184  0.69217  1.0000
  H   H48       1.0  0.07104  0.24193  0.66432  1.0000
  C   C35       1.0  0.34193  0.19540  0.72382  1.0000
  S   S11       1.0  0.23910  0.14636  0.62440  1.0000
  C   C36       1.0  0.24721  0.04644  0.68794  1.0000
  H   H49       1.0  0.19789  0.13496  0.52827  1.0000
  H   H50       1.0  0.24254  0.06685  0.61897  1.0000
  S   S12       1.0  0.25857  0.15918  0.73999  1.0000
  H   H51       1.0  0.06231  0.16289  0.64888  1.0000
  C   C37       1.0  0.24116  0.04681  0.63808  1.0000
  C   C38       1.0  0.37519  0.19549  0.75287  1.0000
  C   C39       1.0  0.04563  0.19953  0.70496  1.0000
  C   C40       1.0  0.12799  0.25328  0.73959  1.0000
  H   H52       1.0  0.25578  0.22276  0.73993  1.0000
  H   H53       1.0  0.41275  0.23597  0.61117  1.0000
  C   C41       1.0  0.32636  0.22072  0.69888  1.0000
  H   H54       1.0  0.16831  0.23548  0.72267  1.0000
  H   H55       1.0  0.32852  0.17562  0.72018  1.0000
  H   H56       1.0  0.32717  0.23682  0.79500  1.0000
  H   H57       1.0  0.28028  0.21450  0.87404  1.0000
  S   S13       1.0  0.28485  0.22119  0.66146  1.0000
  S   S14       1.0  0.43489  0.21985  0.79342  1.0000
  S   S15       1.0  0.26059  0.07739  0.72184  1.0000
  H   H58       1.0  0.24160  0.22857  0.83277  1.0000
  H   H59       1.0  0.23143  0.02120  0.57516  1.0000
  H   H60       1.0  0.06814  0.22322  0.61096  1.0000
  N   N3        1.0  0.28264  0.23758  0.81055  1.0000
  H   H61       1.0  0.27373  0.25711  0.73946  1.0000
  C   C42       1.0  0.20917  0.23028  0.53185  1.0000
  H   H62       1.0  0.04641  0.22030  0.72280  1.0000
  H   H63       1.0  0.19354  0.25022  0.52294  1.0000
  H   H64       1.0  0.23792  0.25370  0.75604  1.0000
  C   C43       1.0  0.25340  0.20393  0.52032  1.0000
  H   H65       1.0  0.19266  0.21174  0.52049  1.0000
  H   H66       1.0  0.26833  0.25404  0.56412  1.0000
  H   H67       1.0  0.42377  0.25211  0.66894  1.0000
  C   C44       1.0  0.25507  0.25575  0.52413  1.0000
  H   H68       1.0  0.23792  0.18481  0.50869  1.0000
  N   N4        1.0  0.23357  0.23097  0.50765  1.0000
  H   H69       1.0  0.27361  0.25704  0.50624  1.0000
  H   H70       1.0  0.38625  0.26182  0.34110  1.0000
  H   H71       1.0  0.19473  0.31284  0.11304  1.0000
  S   S16       1.0  0.33333  0.29880  0.41223  1.0000
  S   S17       1.0  0.35818  0.44131  0.35839  1.0000
  H   H72       1.0  0.39243  0.29949  0.33306  1.0000
  H   H73       1.0  0.46434  0.28727  0.36407  1.0000
  H   H74       1.0  0.18756  0.27138  0.19224  1.0000
  H   H75       1.0  0.36244  0.32641  0.25730  1.0000
  S   S18       1.0  0.18360  0.30254  0.27548  1.0000
  H   H76       1.0  0.52688  0.33487  0.05846  1.0000
  H   H77       1.0  0.40832  0.27417  0.30282  1.0000
  H   H78       1.0  0.52935  0.29089  0.15615  1.0000
  S   S19       1.0  0.10104  0.26110  0.22394  1.0000
  C   C45       1.0  0.38714  0.27895  0.31413  1.0000
  C   C46       1.0  0.29169  0.30037  0.37431  1.0000
  C   C47       1.0  0.27802  0.32455  0.34382  1.0000
  C   C48       1.0  0.24487  0.32498  0.31374  1.0000
  C   C49       1.0  0.22516  0.30125  0.31378  1.0000
  C   C50       1.0  0.23891  0.27695  0.34397  1.0000
  C   C51       1.0  0.27203  0.27656  0.37417  1.0000
  H   H79       1.0  0.29285  0.34309  0.34381  1.0000
  H   H80       1.0  0.23439  0.34390  0.29069  1.0000
  C   C52       1.0  0.47791  0.29131  0.34022  1.0000
  H   H81       1.0  0.16555  0.27494  0.05769  1.0000
  C   C53       1.0  0.48802  0.32045  0.27742  1.0000
  H   H82       1.0  0.35791  0.50017  0.32555  1.0000
  C   C54       1.0  0.53972  0.26930  0.17223  1.0000
  H   H83       1.0  0.33232  0.30750  0.30888  1.0000
  S   S20       1.0  0.43540  0.33771  0.30031  1.0000
  Fe  Fe8       1.0  0.38168  0.39784  0.38987  1.0000
  C   C55       1.0  0.37170  0.47279  0.39060  1.0000
  H   H84       1.0  0.18189  0.32237  0.16222  1.0000
  H   H85       1.0  0.11520  0.27034  0.13618  1.0000
  C   C56       1.0  0.39266  0.49780  0.46593  1.0000
  H   H86       1.0  0.52713  0.30564  0.25500  1.0000
  Fe  Fe9       1.0  0.43191  0.36105  0.46794  1.0000
  H   H87       1.0  0.37951  0.30232  0.22665  1.0000
  Fe  Fe10      1.0  0.36743  0.33482  0.40841  1.0000
  C   C57       1.0  0.50250  0.27159  0.34000  1.0000
  C   C58       1.0  0.52038  0.27652  0.30923  1.0000
  C   C59       1.0  0.14492  0.27763  0.07100  1.0000
  C   C60       1.0  0.51353  0.30142  0.27871  1.0000
  S   S21       1.0  0.37955  0.37295  0.45590  1.0000
  H   H88       1.0  0.50010  0.26803  0.07952  1.0000
  H   H89       1.0  0.13547  0.29868  0.17441  1.0000
  S   S22       1.0  0.41983  0.32083  0.42603  1.0000
  S   S23       1.0  0.36516  0.36051  0.34135  1.0000
  H   H90       1.0  0.48208  0.33911  0.25245  1.0000
  H   H91       1.0  0.38778  0.45153  0.46151  1.0000
  C   C61       1.0  0.47007  0.31550  0.30805  1.0000
  C   C62       1.0  0.17894  0.26510  0.15376  1.0000
  C   C63       1.0  0.38469  0.47198  0.44130  1.0000
  C   C64       1.0  0.35844  0.30551  0.23897  1.0000
  Fe  Fe11      1.0  0.41849  0.34914  0.36202  1.0000
  S   S24       1.0  0.43489  0.38851  0.40520  1.0000
  H   H92       1.0  0.12684  0.29322  0.04568  1.0000
  N   N5        1.0  0.15625  0.28717  0.12139  1.0000
  H   H93       1.0  0.33581  0.30805  0.20644  1.0000
  C   C65       1.0  0.12790  0.29102  0.13679  1.0000
  H   H94       1.0  0.30512  0.28930  0.25859  1.0000
  H   H95       1.0  0.32686  0.26971  0.31484  1.0000
  C   C66       1.0  0.32892  0.28718  0.28913  1.0000
  Fe  Fe12      1.0  0.15315  0.26321  0.27517  1.0000
  N   N6        1.0  0.35629  0.28148  0.27210  1.0000
  C   C67       1.0  0.53428  0.30447  0.00968  1.0000
  H   H96       1.0  0.10968  0.30689  0.11255  1.0000
  H   H97       1.0  0.15658  0.33203  0.10070  1.0000
  C   C68       1.0  0.17314  0.31485  0.12436  1.0000
  H   H98       1.0  0.20075  0.26163  0.14348  1.0000
  C   C69       1.0  0.36764  0.49947  0.36478  1.0000
  H   H99       1.0  0.47459  0.27113  0.14305  1.0000
  C   C70       1.0  0.54157  0.31683  0.05488  1.0000
  H   H100      1.0  0.36980  0.30196  0.53966  1.0000
  C   C71       1.0  0.43063  0.29033  0.60186  1.0000
  H   H101      1.0  0.40196  0.49703  0.50516  1.0000
  H   H102      1.0  0.33204  0.26593  0.68486  1.0000
  Fe  Fe13      1.0  0.46169  0.32414  0.77691  1.0000
  S   S25       1.0  0.43094  0.35709  0.72168  1.0000
  Fe  Fe14      1.0  0.49383  0.30502  0.88338  1.0000
  S   S26       1.0  0.50177  0.31908  0.95938  1.0000
  Fe  Fe15      1.0  0.52581  0.29118  0.81020  1.0000
  S   S27       1.0  0.51047  0.33281  0.83269  1.0000
  S   S28       1.0  0.44297  0.30066  0.82937  1.0000
  S   S29       1.0  0.51269  0.26369  0.86509  1.0000
  S   S30       1.0  0.47801  0.28428  0.75049  1.0000
  H   H103      1.0  0.12462  0.27194  0.71499  1.0000
  C   C72       1.0  0.46352  0.36079  0.59100  1.0000
  C   C73       1.0  0.48440  0.34883  0.63560  1.0000
  C   C74       1.0  0.47503  0.34875  0.67640  1.0000
  C   C75       1.0  0.44478  0.36068  0.67276  1.0000
  C   C76       1.0  0.42451  0.37377  0.62873  1.0000
  C   C77       1.0  0.43381  0.37370  0.58780  1.0000
  H   H104      1.0  0.50734  0.33871  0.63832  1.0000
  H   H105      1.0  0.49113  0.33921  0.71057  1.0000
  S   S31       1.0  0.47405  0.35734  0.53932  1.0000
  S   S32       1.0  0.07510  0.27503  0.75765  1.0000
  H   H106      1.0  0.41799  0.38363  0.55387  1.0000
  H   H107      1.0  0.38638  0.32393  0.61997  1.0000
  H   H108      1.0  0.30598  0.26188  0.87357  1.0000
  H   H109      1.0  0.36715  0.29548  0.64239  1.0000
  H   H110      1.0  0.40127  0.38335  0.62596  1.0000
  Fe  Fe16      1.0  0.46290  0.26125  0.80714  1.0000
  C   C78       1.0  0.37400  0.28033  0.55904  1.0000
  H   H111      1.0  0.39078  0.26611  0.73721  1.0000
  H   H112      1.0  0.45048  0.29223  0.63766  1.0000
  H   H113      1.0  0.40926  0.30306  0.67375  1.0000
  H   H114      1.0  0.42743  0.31174  0.58225  1.0000
  N   N7        1.0  0.39988  0.28109  0.60747  1.0000
  C   C79       1.0  0.39016  0.30175  0.63708  1.0000
  H   H115      1.0  0.53735  0.33920  0.54403  1.0000
  H   H116      1.0  0.43928  0.27492  0.58080  1.0000
  H   H117      1.0  0.30282  0.27992  0.81703  1.0000
  C   C80       1.0  0.28999  0.26524  0.83486  1.0000
  H   H118      1.0  0.26724  0.27663  0.83382  1.0000
  H   H119      1.0  0.24084  0.27650  0.51552  1.0000
  H   H120      1.0  0.35038  0.27352  0.56172  1.0000
  H   H121      1.0  0.54241  0.38300  0.59180  1.0000
  H   H122      1.0  0.38061  0.26514  0.53550  1.0000
  S   S33       1.0  0.10095  0.72239  0.26997  1.0000
  C   C81       1.0  0.25338  0.58736  0.32205  1.0000
  S   S34       1.0  0.18768  0.70092  0.37777  1.0000
  H   H123      1.0  0.32317  0.56335  0.30876  1.0000
  Fe  Fe17      1.0  0.14882  0.73171  0.32782  1.0000
  C   C82       1.0  0.28113  0.54098  0.34749  1.0000
  S   S35       1.0  0.10977  0.75189  0.15086  1.0000
  Fe  Fe18      1.0  0.35407  0.64753  0.36515  1.0000
  S   S36       1.0  0.30363  0.65970  0.31201  1.0000
  H   H124      1.0  0.31121  0.60771  0.37571  1.0000
  H   H125      1.0  0.48557  0.63374  0.11033  1.0000
  C   C83       1.0  0.21977  0.68964  0.35909  1.0000
  C   C84       1.0  0.24841  0.67745  0.39363  1.0000
  C   C85       1.0  0.27465  0.66877  0.37991  1.0000
  C   C86       1.0  0.27210  0.67171  0.33134  1.0000
  C   C87       1.0  0.24336  0.68367  0.29678  1.0000
  C   C88       1.0  0.21737  0.69286  0.31064  1.0000
  H   H126      1.0  0.25030  0.67483  0.43115  1.0000
  H   H127      1.0  0.29660  0.65948  0.40680  1.0000
  H   H128      1.0  0.51171  0.63350  0.29343  1.0000
  H   H129      1.0  0.29808  0.58244  0.41227  1.0000
  H   H130      1.0  0.30314  0.59803  0.29068  1.0000
  S   S37       1.0  0.52876  0.73639  0.26896  1.0000
  H   H131      1.0  0.26469  0.53068  0.31459  1.0000
  H   H132      1.0  0.19528  0.70201  0.28369  1.0000
  H   H133      1.0  0.27061  0.53786  0.37658  1.0000
  C   C89       1.0  0.30768  0.58440  0.38204  1.0000
  H   H134      1.0  0.23571  0.57842  0.28874  1.0000
  C   C90       1.0  0.29919  0.57495  0.29861  1.0000
  H   H135      1.0  0.24113  0.68582  0.25906  1.0000
  H   H136      1.0  0.24238  0.58602  0.35081  1.0000
  N   N8        1.0  0.28533  0.57189  0.33754  1.0000
  H   H137      1.0  0.50268  0.66220  0.18416  1.0000
  H   H138      1.0  0.33213  0.57341  0.39477  1.0000
  S   S38       1.0  0.36740  0.63737  0.44507  1.0000
  H   H139      1.0  0.25585  0.61071  0.31380  1.0000
  H   H140      1.0  0.37402  0.54543  0.36914  1.0000
  H   H141      1.0  0.53652  0.66922  0.08486  1.0000
  C   C91       1.0  0.38847  0.52447  0.44006  1.0000
  Fe  Fe19      1.0  0.41237  0.66238  0.45207  1.0000
  Fe  Fe20      1.0  0.42316  0.63532  0.36688  1.0000
  S   S39       1.0  0.45912  0.62980  0.32845  1.0000
  S   S40       1.0  0.44158  0.62379  0.44648  1.0000
  H   H142      1.0  0.30494  0.52882  0.35973  1.0000
  H   H143      1.0  0.51022  0.70000  0.17987  1.0000
  C   C92       1.0  0.47763  0.65996  0.31203  1.0000
  C   C93       1.0  0.46741  0.68821  0.31521  1.0000
  C   C94       1.0  0.48302  0.71166  0.30163  1.0000
  C   C95       1.0  0.50932  0.70694  0.28592  1.0000
  C   C96       1.0  0.51977  0.67870  0.28362  1.0000
  C   C97       1.0  0.50372  0.65532  0.29594  1.0000
  H   H144      1.0  0.44728  0.69198  0.32756  1.0000
  C   C98       1.0  0.53735  0.74485  0.03788  1.0000
  H   H145      1.0  0.50224  0.72392  0.09988  1.0000
  N   N9        1.0  0.49832  0.67843  0.11276  1.0000
  C   C99       1.0  0.48754  0.70529  0.08233  1.0000
  H   H146      1.0  0.45174  0.65850  0.08254  1.0000
  C   C100      1.0  0.49495  0.68213  0.16035  1.0000
  H   H147      1.0  0.47475  0.73346  0.30355  1.0000
  Fe  Fe21      1.0  0.39532  0.59952  0.43192  1.0000
  H   H148      1.0  0.47996  0.65113  0.05229  1.0000
  H   H149      1.0  0.23217  0.75376  0.31747  1.0000
  H   H150      1.0  0.49012  0.70343  0.04625  1.0000
  S   S41       1.0  0.39697  0.55660  0.47207  1.0000
  C   C101      1.0  0.37652  0.52516  0.38939  1.0000
  C   C102      1.0  0.47798  0.65438  0.08840  1.0000
  S   S42       1.0  0.37888  0.60784  0.35150  1.0000
  Fe  Fe22      1.0  0.07897  0.75680  0.30176  1.0000
  S   S43       1.0  0.39699  0.67579  0.37309  1.0000
  C   C103      1.0  0.53287  0.67194  0.11999  1.0000
  H   H151      1.0  0.46148  0.71078  0.07573  1.0000
  H   H152      1.0  0.46926  0.68732  0.15655  1.0000
  H   H153      1.0  0.22105  0.75337  0.39378  1.0000
  H   H154      1.0  0.28275  0.56610  0.26425  1.0000
  H   H155      1.0  0.09471  0.74670  0.04953  1.0000
  H   H156      1.0  0.27173  0.73770  0.34826  1.0000
  H   H157      1.0  0.26012  0.73645  0.42449  1.0000
  H   H158      1.0  0.52985  0.65095  0.40762  1.0000
  C   C104      1.0  0.24730  0.75776  0.41310  1.0000
  H   H159      1.0  0.54234  0.68444  0.38793  1.0000
  H   H160      1.0  0.54201  0.65183  0.14282  1.0000
  H   H161      1.0  0.53996  0.67472  0.27180  1.0000
  S   S44       1.0  0.49666  0.74499  0.94370  1.0000
  H   H162      1.0  0.48179  0.60801  0.55076  1.0000
  H   H163      1.0  0.40944  0.59720  0.54065  1.0000
  H   H164      1.0  0.47081  0.56125  0.64873  1.0000
  H   H165      1.0  0.33208  0.75046  0.60628  1.0000
  H   H166      1.0  0.46058  0.62605  0.65755  1.0000
  C   C105      1.0  0.47510  0.58910  0.56946  1.0000
  Fe  Fe23      1.0  0.47007  0.71844  0.76726  1.0000
  S   S45       1.0  0.43731  0.68542  0.72080  1.0000
  S   S46       1.0  0.51644  0.71035  0.83166  1.0000
  S   S47       1.0  0.44784  0.74814  0.80590  1.0000
  N   N10       1.0  0.45575  0.59812  0.59886  1.0000
  C   C106      1.0  0.43712  0.69170  0.56581  1.0000
  C   C107      1.0  0.40995  0.68097  0.57493  1.0000
  C   C108      1.0  0.41017  0.67872  0.62274  1.0000
  C   C109      1.0  0.43735  0.68758  0.66126  1.0000
  C   C110      1.0  0.46448  0.69804  0.65196  1.0000
  C   C111      1.0  0.46420  0.70043  0.60435  1.0000
  H   H167      1.0  0.46113  0.57430  0.54091  1.0000
  H   H168      1.0  0.48603  0.70384  0.68152  1.0000
  H   H169      1.0  0.48530  0.70870  0.59749  1.0000
  Fe  Fe24      1.0  0.53486  0.74821  0.79951  1.0000
  H   H170      1.0  0.49813  0.57761  0.59220  1.0000
  H   H171      1.0  0.48029  0.63834  0.61671  1.0000
  H   H172      1.0  0.41031  0.62039  0.58791  1.0000
  H   H173      1.0  0.38599  0.72346  0.72931  1.0000
  H   H174      1.0  0.49805  0.60888  0.65964  1.0000
  C   C112      1.0  0.47453  0.61866  0.63482  1.0000
  H   H175      1.0  0.43327  0.57853  0.64615  1.0000
  H   H176      1.0  0.43405  0.55665  0.59755  1.0000
  Fe  Fe25      1.0  0.49622  0.74396  0.86696  1.0000
  H   H177      1.0  0.38882  0.67451  0.54514  1.0000
  C   C113      1.0  0.44817  0.57251  0.62403  1.0000
  H   H178      1.0  0.34309  0.71725  0.70191  1.0000
  H   H179      1.0  0.38921  0.67039  0.62983  1.0000
  C   C114      1.0  0.42498  0.61229  0.56682  1.0000
  H   H180      1.0  0.42978  0.63080  0.54531  1.0000
  H   H181      1.0  0.36938  0.71478  0.66696  1.0000
  C   C115      1.0  0.36437  0.72703  0.69538  1.0000
  S   S48       1.0  0.48990  0.75406  0.73285  1.0000
  S   S49       1.0  0.43840  0.69435  0.50702  1.0000
  H   H182      1.0  0.30704  0.75375  0.64295  1.0000
  C   C116      1.0  0.53103  0.73264  0.99289  1.0000
  N   N11       1.0  0.35853  0.75806  0.68125  1.0000
  H   H183      1.0  0.39183  0.75856  0.64203  1.0000
  Fe  Fe26      1.0  0.13571  0.79633  0.31583  1.0000
  C   C117      1.0  0.07290  0.78184  0.44826  1.0000
  S   S50       1.0  0.15725  0.83758  0.34982  1.0000
  C   C118      1.0  0.04454  0.81208  0.06554  1.0000
  H   H184      1.0  0.24417  0.81552  0.39873  1.0000
  H   H185      1.0  0.07865  0.83596  0.41629  1.0000
  S   S51       1.0  0.08718  0.79331  0.25536  1.0000
  C   C119      1.0  0.24253  0.80271  0.36684  1.0000
  C   C120      1.0  0.08306  0.77228  0.10083  1.0000
  C   C121      1.0  0.29564  0.78041  0.40872  1.0000
  C   C122      1.0  0.12975  0.78693  0.49675  1.0000
  C   C123      1.0  0.06481  0.79581  0.10653  1.0000
  C   C124      1.0  0.19618  0.85194  0.49346  1.0000
  C   C125      1.0  0.18209  0.85627  0.44277  1.0000
  C   C126      1.0  0.17757  0.83281  0.41274  1.0000
  C   C127      1.0  0.18842  0.80532  0.43334  1.0000
  H   H186      1.0  0.17388  0.87766  0.42695  1.0000
  H   H187      1.0  0.18551  0.78728  0.41044  1.0000
  H   H188      1.0  0.06660  0.80168  0.14249  1.0000
  S   S52       1.0  0.12553  0.76219  0.36384  1.0000
  H   H189      1.0  0.21609  0.79943  0.34689  1.0000
  N   N12       1.0  0.09836  0.80261  0.47220  1.0000
  H   H190      1.0  0.13827  0.77598  0.47029  1.0000
  H   H191      1.0  0.29866  0.79259  0.44175  1.0000
  H   H192      1.0  0.10901  0.81308  0.40755  1.0000
  H   H193      1.0  0.04844  0.79262  0.43220  1.0000
  H   H194      1.0  0.52983  0.81033  0.30817  1.0000
  H   H195      1.0  0.25175  0.81619  0.34260  1.0000
  C   C128      1.0  0.06019  0.78101  0.01317  1.0000
  N   N13       1.0  0.26087  0.77492  0.38170  1.0000
  H   H196      1.0  0.07802  0.77121  0.41837  1.0000
  C   C129      1.0  0.10188  0.82375  0.43560  1.0000
  H   H197      1.0  0.30668  0.79325  0.38600  1.0000
  H   H198      1.0  0.21072  0.77956  0.49937  1.0000
  H   H199      1.0  0.16232  0.81280  0.02828  1.0000
  S   S53       1.0  0.16203  0.76637  0.28365  1.0000
  H   H200      1.0  0.04640  0.81192  0.32339  1.0000
  H   H201      1.0  0.24910  0.76915  0.44641  1.0000
  H   H202      1.0  0.53491  0.84700  0.29066  1.0000
  H   H203      1.0  0.07096  0.76448  0.47413  1.0000
  C   C130      1.0  0.20300  0.80105  0.48367  1.0000
  H   H204      1.0  0.26763  0.77106  0.31327  1.0000
  C   C131      1.0  0.08059  0.76490  0.05403  1.0000
  H   H205      1.0  0.12103  0.83964  0.45245  1.0000
  C   C132      1.0  0.25803  0.75872  0.33828  1.0000
  H   H206      1.0  0.52187  0.76237  0.04112  1.0000
  H   H207      1.0  0.06537  0.83018  0.49090  1.0000
  Fe  Fe27      1.0  0.11250  0.75950  0.22757  1.0000
  H   H208      1.0  0.31012  0.75985  0.42053  1.0000
  H   H209      1.0  0.10447  0.82655  0.01078  1.0000
  H   H210      1.0  0.07391  0.84576  0.79071  1.0000
  S   S54       1.0  0.09249  0.78552  0.81758  1.0000
  C   C133      1.0  0.40301  0.82504  0.79368  1.0000
  H   H211      1.0  0.05887  0.77529  0.97756  1.0000
  H   H212      1.0  0.10777  0.83380  0.52716  1.0000
  C   C134      1.0  0.08894  0.81801  0.50838  1.0000
  H   H213      1.0  0.05179  0.79662  0.64630  1.0000
  H   H214      1.0  0.38413  0.85673  0.68100  1.0000
  H   H215      1.0  0.31748  0.93182  0.67715  1.0000
  C   C135      1.0  0.16074  0.82440  0.99368  1.0000
  C   C136      1.0  0.09505  0.84078  0.78146  1.0000
  H   H216      1.0  0.10977  0.86054  0.98358  1.0000
  S   S55       1.0  0.44083  0.82267  0.73600  1.0000
  C   C137      1.0  0.13550  0.85621  0.74657  1.0000
  H   H217      1.0  0.14916  0.80182  0.51685  1.0000
  H   H218      1.0  0.32428  0.78525  0.62535  1.0000
  Fe  Fe28      1.0  0.47060  0.78335  0.77576  1.0000
  H   H219      1.0  0.35981  0.98500  0.70590  1.0000
  H   H220      1.0  0.12784  0.77016  0.52357  1.0000
  H   H221      1.0  0.40977  0.76697  0.70432  1.0000
  H   H222      1.0  0.11911  0.78075  0.98059  1.0000
  C   C138      1.0  0.20635  0.82421  0.51388  1.0000
  H   H223      1.0  0.37299  0.82788  0.83789  1.0000
  C   C139      1.0  0.35018  0.85046  0.76861  1.0000
  C   C140      1.0  0.04970  0.81335  0.67107  1.0000
  C   C141      1.0  0.37518  0.83392  0.80336  1.0000
  C   C142      1.0  0.36373  0.96624  0.73223  1.0000
  N   N14       1.0  0.12739  0.82358  0.95730  1.0000
  H   H224      1.0  0.13329  0.86202  0.91803  1.0000
  S   S56       1.0  0.22980  0.96217  0.60702  1.0000
  S   S57       1.0  0.51768  0.78148  0.83939  1.0000
  Fe  Fe29      1.0  0.22938  0.91845  0.64419  1.0000
  H   H225      1.0  0.13495  0.78224  0.93181  1.0000
  H   H226      1.0  0.34809  0.79683  0.71107  1.0000
  H   H227      1.0  0.19881  0.86994  0.51668  1.0000
  H   H228      1.0  0.17071  0.82364  0.74635  1.0000
  S   S58       1.0  0.18630  0.88961  0.61602  1.0000
  S   S59       1.0  0.31602  0.86192  0.78248  1.0000
  Fe  Fe30      1.0  0.26846  0.87349  0.72137  1.0000
  C   C143      1.0  0.10837  0.86230  0.75971  1.0000
  H   H229      1.0  0.31626  0.92638  0.77945  1.0000
  C   C144      1.0  0.40635  0.83328  0.74957  1.0000
  C   C145      1.0  0.23883  0.99445  0.68751  1.0000
  S   S60       1.0  0.26585  0.88365  0.64527  1.0000
  C   C146      1.0  0.33916  0.93347  0.77438  1.0000
  H   H230      1.0  0.14762  0.78556  0.78586  1.0000
  N   N15       1.0  0.33298  0.95833  0.73917  1.0000
  H   H231      1.0  0.38400  0.79322  0.66177  1.0000
  C   C147      1.0  0.10904  0.81301  0.79082  1.0000
  C   C148      1.0  0.30877  0.95046  0.69228  1.0000
  C   C149      1.0  0.32019  0.98308  0.75766  1.0000
  S   S61       1.0  0.14969  0.88370  0.71661  1.0000
  H   H232      1.0  0.31383  0.00189  0.73104  1.0000
  C   C150      1.0  0.35345  0.77349  0.72099  1.0000
  H   H233      1.0  0.30309  0.96873  0.66471  1.0000
  H   H234      1.0  0.37388  0.94800  0.71806  1.0000
  Fe  Fe31      1.0  0.22335  0.85417  0.62481  1.0000
  C   C151      1.0  0.13659  0.80699  0.77857  1.0000
  S   S62       1.0  0.23541  0.91074  0.72247  1.0000
  C   C152      1.0  0.23427  0.99458  0.63814  1.0000
  C   C153      1.0  0.14972  0.82850  0.75623  1.0000
  C   C154      1.0  0.35343  0.85844  0.72431  1.0000
  S   S63       1.0  0.22788  0.84175  0.70134  1.0000
  H   H235      1.0  0.33460  0.87144  0.69749  1.0000
  H   H236      1.0  0.09749  0.88380  0.75266  1.0000
  S   S64       1.0  0.22101  0.81704  0.57678  1.0000
  H   H237      1.0  0.23761  0.97446  0.70673  1.0000
  H   H238      1.0  0.08610  0.80273  0.53658  1.0000
  H   H239      1.0  0.28529  0.94435  0.69616  1.0000
  H   H240      1.0  0.33257  0.76481  0.73003  1.0000
  Fe  Fe32      1.0  0.19429  0.87971  0.69474  1.0000
  C   C155      1.0  0.38160  0.85019  0.71511  1.0000
  H   H241      1.0  0.07331  0.82474  0.68367  1.0000
  H   H242      1.0  0.09326  0.79194  0.92008  1.0000
  H   H243      1.0  0.34936  0.91454  0.76203  1.0000
  H   H244      1.0  0.42211  0.81223  0.82067  1.0000
  H   H245      1.0  0.38266  0.97213  0.76697  1.0000
  H   H246      1.0  0.10148  0.83897  0.88397  1.0000
  H   H247      1.0  0.17888  0.81407  0.98044  1.0000
  H   H248      1.0  0.14316  0.82885  0.89608  1.0000
  H   H249      1.0  0.37549  0.77178  0.75463  1.0000
  H   H250      1.0  0.33823  0.99033  0.79215  1.0000
  H   H251      1.0  0.07858  0.83683  0.95010  1.0000
  H   H252      1.0  0.35678  0.93865  0.81060  1.0000
  C   C156      1.0  0.12636  0.83910  0.91200  1.0000
  H   H253      1.0  0.29764  0.97739  0.76496  1.0000
  C   C157      1.0  0.11834  0.79327  0.94720  1.0000
  C   C158      1.0  0.10411  0.83749  0.97627  1.0000
  H   H254      1.0  0.05058  0.86205  0.61928  1.0000
  C   C159      1.0  0.38716  0.76971  0.67175  1.0000
  H   H255      1.0  0.04706  0.80197  0.70346  1.0000
  C   C160      1.0  0.32920  0.76200  0.63694  1.0000
  H   H256      1.0  0.16834  0.84697  0.00221  1.0000
  H   H257      1.0  0.59536  0.25342  0.04161  1.0000
  S   S65       1.0  0.61644  0.23180  0.25290  1.0000
  C   C161      1.0  0.02928  0.21027  0.32208  1.0000
  S   S66       1.0  0.70366  0.20581  0.35822  1.0000
  H   H258      1.0  0.03922  0.09399  0.38364  1.0000
  H   H259      1.0  0.92414  0.17724  0.20014  1.0000
  Fe  Fe33      1.0  0.94210  0.13377  0.39641  1.0000
  S   S67       1.0  0.95042  0.12174  0.47438  1.0000
  S   S68       1.0  0.98253  0.13078  0.36564  1.0000
  Fe  Fe34      1.0  0.86844  0.14199  0.37033  1.0000
  S   S69       1.0  0.87066  0.12939  0.44576  1.0000
  S   S70       1.0  0.82488  0.16033  0.30761  1.0000
  Fe  Fe35      1.0  0.91437  0.15737  0.46926  1.0000
  H   H260      1.0  0.75992  0.17165  0.41227  1.0000
  Fe  Fe36      1.0  0.90619  0.09439  0.44427  1.0000
  S   S71       1.0  0.91131  0.05067  0.48361  1.0000
  S   S72       1.0  0.91028  0.17212  0.39410  1.0000
  S   S73       1.0  0.90002  0.10419  0.36633  1.0000
  C   C162      1.0  0.89500  0.01960  0.45192  1.0000
  C   C163      1.0  0.92198  0.19311  0.22624  1.0000
  Fe  Fe37      1.0  0.66485  0.23784  0.31185  1.0000
  C   C164      1.0  0.73651  0.19316  0.34226  1.0000
  C   C165      1.0  0.87298  0.02168  0.40419  1.0000
  H   H261      1.0  0.91795  0.21487  0.20758  1.0000
  H   H262      1.0  0.86601  0.04262  0.38572  1.0000
  C   C166      1.0  0.79106  0.17309  0.32142  1.0000
  C   C167      1.0  0.78877  0.16697  0.36688  1.0000
  C   C168      1.0  0.76157  0.17680  0.37711  1.0000
  C   C169      1.0  0.76598  0.18950  0.28640  1.0000
  H   H263      1.0  0.80764  0.15422  0.39397  1.0000
  H   H264      1.0  0.76744  0.19424  0.25103  1.0000
  C   C170      1.0  0.03714  0.18247  0.31252  1.0000
  C   C171      1.0  0.00608  0.21377  0.34456  1.0000
  C   C172      1.0  0.99135  0.18963  0.35807  1.0000
  C   C173      1.0  0.99941  0.16189  0.34840  1.0000
  C   C174      1.0  0.02208  0.15846  0.32521  1.0000
  H   H265      1.0  0.99993  0.23522  0.35223  1.0000
  H   H266      1.0  0.87391  0.20230  0.29370  1.0000
  H   H267      1.0  0.97419  0.19252  0.37649  1.0000
  H   H268      1.0  0.86434  0.16914  0.17708  1.0000
  C   C175      1.0  0.90216  0.15698  0.26941  1.0000
  H   H269      1.0  0.92518  0.15665  0.30133  1.0000
  H   H270      1.0  0.88796  0.22943  0.26096  1.0000
  C   C176      1.0  0.86391  0.18549  0.20348  1.0000
  H   H271      1.0  0.90471  0.14010  0.24515  1.0000
  H   H272      1.0  0.85790  0.20686  0.18360  1.0000
  H   H273      1.0  0.88224  0.15044  0.28263  1.0000
  H   H274      1.0  0.94609  0.19318  0.25643  1.0000
  H   H275      1.0  0.91690  0.20844  0.30993  1.0000
  N   N16       1.0  0.89539  0.18578  0.24440  1.0000
  C   C177      1.0  0.73885  0.19969  0.29687  1.0000
  H   H276      1.0  0.71962  0.21227  0.26970  1.0000
  H   H277      1.0  0.84348  0.18006  0.21647  1.0000
  C   C178      1.0  0.89345  0.20746  0.27874  1.0000
  H   H278      1.0  0.55639  0.21423  0.16588  1.0000
  H   H279      1.0  0.77325  0.23926  0.39187  1.0000
  S   S74       1.0  0.54809  0.24955  0.30541  1.0000
  H   H280      1.0  0.02809  0.13716  0.31690  1.0000
  H   H281      1.0  0.73580  0.25371  0.43360  1.0000
  H   H282      1.0  0.74662  0.25799  0.33818  1.0000
  H   H283      1.0  0.04340  0.08815  0.46942  1.0000
  C   C179      1.0  0.03553  0.25834  0.03569  1.0000
  H   H284      1.0  0.89354  0.13151  0.61847  1.0000
  C   C180      1.0  0.86379  0.07425  0.54886  1.0000
  Fe  Fe38      1.0  0.98359  0.21786  0.77735  1.0000
  S   S75       1.0  0.97236  0.17365  0.74726  1.0000
  H   H285      1.0  0.92131  0.09707  0.55392  1.0000
  C   C181      1.0  0.88694  0.07555  0.63611  1.0000
  C   C182      1.0  0.95350  0.17674  0.68399  1.0000
  C   C183      1.0  0.93414  0.20107  0.66225  1.0000
  C   C184      1.0  0.92188  0.20515  0.61170  1.0000
  C   C185      1.0  0.92875  0.18487  0.58257  1.0000
  C   C186      1.0  0.94729  0.15999  0.60404  1.0000
  C   C187      1.0  0.95951  0.15583  0.65487  1.0000
  H   H286      1.0  0.92893  0.21701  0.68447  1.0000
  H   H287      1.0  0.90763  0.22447  0.59521  1.0000
  H   H288      1.0  0.95309  0.14457  0.58158  1.0000
  H   H289      1.0  0.97472  0.13710  0.67179  1.0000
  H   H290      1.0  0.93856  0.09691  0.61903  1.0000
  H   H291      1.0  0.87846  0.13116  0.55357  1.0000
  C   C188      1.0  0.92021  0.08662  0.58793  1.0000
  H   H292      1.0  0.92798  0.06364  0.58858  1.0000
  C   C189      1.0  0.03965  0.17620  0.63078  1.0000
  H   H293      1.0  0.86228  0.07702  0.63894  1.0000
  H   H294      1.0  0.90431  0.08620  0.66792  1.0000
  H   H295      1.0  0.87079  0.05105  0.54946  1.0000
  S   S76       1.0  0.03208  0.22738  0.83416  1.0000
  S   S77       1.0  0.95395  0.24467  0.80944  1.0000
  S   S78       1.0  0.91561  0.19247  0.51994  1.0000
  H   H296      1.0  0.02505  0.18726  0.70942  1.0000
  H   H297      1.0  0.86322  0.08390  0.51344  1.0000
  C   C190      1.0  0.87726  0.11990  0.58697  1.0000
  C   C191      1.0  0.01134  0.22151  0.62811  1.0000
  H   H298      1.0  0.83848  0.07540  0.54922  1.0000
  N   N17       1.0  0.88703  0.08910  0.58995  1.0000
  H   H299      1.0  0.85186  0.12261  0.58644  1.0000
  H   H300      1.0  0.74500  0.25433  0.60514  1.0000
  H   H301      1.0  0.89426  0.05229  0.63946  1.0000
  H   H302      1.0  0.01253  0.24325  0.64332  1.0000
  H   H303      1.0  0.01877  0.16368  0.63352  1.0000
  S   S79       1.0  0.98615  0.25286  0.72452  1.0000
  H   H304      1.0  0.03626  0.17897  0.59163  1.0000
  N   N18       1.0  0.04159  0.20433  0.65329  1.0000
  C   C192      1.0  0.03501  0.25116  0.98958  1.0000
  H   H305      1.0  0.00667  0.22465  0.58861  1.0000
  H   H306      1.0  0.98978  0.21087  0.63211  1.0000
  Fe  Fe39      1.0  0.00284  0.25793  0.86148  1.0000
  Fe  Fe40      1.0  0.65168  0.30183  0.31581  1.0000
  H   H307      1.0  0.71055  0.27371  0.38069  1.0000
  S   S80       1.0  0.67804  0.33874  0.35994  1.0000
  C   C193      1.0  0.58776  0.28358  0.09054  1.0000
  S   S81       1.0  0.60278  0.30246  0.25514  1.0000
  C   C194      1.0  0.65328  0.32223  0.43041  1.0000
  C   C195      1.0  0.67545  0.33951  0.41824  1.0000
  H   H308      1.0  0.63558  0.31031  0.40306  1.0000
  C   C196      1.0  0.78994  0.28513  0.44697  1.0000
  C   C197      1.0  0.56829  0.30647  0.09521  1.0000
  C   C198      1.0  0.75512  0.31115  0.37439  1.0000
  H   H309      1.0  0.57424  0.31661  0.12959  1.0000
  H   H310      1.0  0.01843  0.27442  0.03877  1.0000
  C   C199      1.0  0.69654  0.35670  0.45353  1.0000
  H   H311      1.0  0.74950  0.32847  0.39557  1.0000
  H   H312      1.0  0.71327  0.37065  0.44409  1.0000
  H   H313      1.0  0.78931  0.26599  0.36120  1.0000
  C   C200      1.0  0.65333  0.32077  0.47795  1.0000
  Fe  Fe41      1.0  0.62719  0.27285  0.21865  1.0000
  H   H314      1.0  0.77639  0.31792  0.36460  1.0000
  H   H315      1.0  0.63644  0.30682  0.48703  1.0000
  H   H316      1.0  0.73365  0.31034  0.34011  1.0000
  N   N19       1.0  0.76139  0.28304  0.40183  1.0000
  H   H317      1.0  0.72643  0.29156  0.43630  1.0000
  H   H318      1.0  0.54453  0.26948  0.21176  1.0000
  H   H319      1.0  0.81226  0.29086  0.43903  1.0000
  H   H320      1.0  0.78575  0.30196  0.47014  1.0000
  S   S82       1.0  0.67716  0.27679  0.27529  1.0000
  C   C201      1.0  0.69594  0.35592  0.50102  1.0000
  Fe  Fe42      1.0  0.59466  0.26153  0.29251  1.0000
  C   C202      1.0  0.73244  0.27517  0.41399  1.0000
  C   C203      1.0  0.55355  0.28139  0.00519  1.0000
  C   C204      1.0  0.58037  0.27117  0.04540  1.0000
  C   C205      1.0  0.76802  0.26067  0.37198  1.0000
  H   H321      1.0  0.56369  0.26653  0.16763  1.0000
  H   H322      1.0  0.79524  0.26425  0.46849  1.0000
  S   S83       1.0  0.64182  0.26292  0.35517  1.0000
  S   S84       1.0  0.62195  0.27025  0.13961  1.0000
  H   H323      1.0  0.64717  0.31624  0.00768  1.0000
  C   C206      1.0  0.64407  0.32902  0.97346  1.0000
  S   S85       1.0  0.67230  0.40503  0.63665  1.0000
  S   S86       1.0  0.64190  0.39400  0.74051  1.0000
  C   C207      1.0  0.77150  0.32285  0.60412  1.0000
  Fe  Fe43      1.0  0.68447  0.38993  0.71409  1.0000
  H   H324      1.0  0.60747  0.38764  0.57464  1.0000
  H   H325      1.0  0.65204  0.35133  0.98342  1.0000
  C   C208      1.0  0.59215  0.31548  0.78085  1.0000
  C   C209      1.0  0.62338  0.31242  0.77809  1.0000
  C   C210      1.0  0.63870  0.33619  0.76490  1.0000
  C   C211      1.0  0.62295  0.36327  0.75480  1.0000
  C   C212      1.0  0.59155  0.36624  0.75694  1.0000
  C   C213      1.0  0.57604  0.34238  0.76939  1.0000
  H   H326      1.0  0.78115  0.32118  0.57413  1.0000
  H   H327      1.0  0.66297  0.33370  0.76364  1.0000
  H   H328      1.0  0.57916  0.38711  0.74898  1.0000
  C   C214      1.0  0.61145  0.34092  0.63418  1.0000
  H   H329      1.0  0.60421  0.35535  0.54207  1.0000
  N   N20       1.0  0.60988  0.32889  0.93961  1.0000
  H   H330      1.0  0.74709  0.33384  0.58891  1.0000
  C   C215      1.0  0.60684  0.34599  0.89481  1.0000
  H   H331      1.0  0.58136  0.34616  0.86843  1.0000
  S   S87       1.0  0.71976  0.46996  0.62507  1.0000
  H   H332      1.0  0.78785  0.33723  0.63107  1.0000
  Fe  Fe44      1.0  0.69891  0.36548  0.62889  1.0000
  C   C216      1.0  0.58823  0.34159  0.96271  1.0000
  H   H333      1.0  0.77069  0.31247  0.69314  1.0000
  S   S88       1.0  0.67516  0.33306  0.57318  1.0000
  H   H334      1.0  0.94750  0.33963  0.81184  1.0000
  H   H335      1.0  0.62273  0.33693  0.87629  1.0000
  H   H336      1.0  0.60309  0.28511  0.96038  1.0000
  C   C217      1.0  0.75580  0.29775  0.66539  1.0000
  S   S89       1.0  0.57496  0.28579  0.80171  1.0000
  H   H337      1.0  0.63599  0.29166  0.78691  1.0000
  Fe  Fe45      1.0  0.03289  0.26404  0.78263  1.0000
  H   H338      1.0  0.55887  0.36235  0.64819  1.0000
  H   H339      1.0  0.57148  0.31455  0.55765  1.0000
  H   H340      1.0  0.55186  0.34499  0.77089  1.0000
  C   C218      1.0  0.56541  0.37357  0.61894  1.0000
  H   H341      1.0  0.89344  0.28654  0.78510  1.0000
  H   H342      1.0  0.59370  0.36461  0.97055  1.0000
  H   H343      1.0  0.61371  0.36880  0.90229  1.0000
  H   H344      1.0  0.73052  0.30702  0.65059  1.0000
  H   H345      1.0  0.94583  0.29771  0.86307  1.0000
  H   H346      1.0  0.57454  0.29794  0.90267  1.0000
  C   C219      1.0  0.60040  0.29889  0.92742  1.0000
  C   C220      1.0  0.55948  0.33040  0.57373  1.0000
  H   H347      1.0  0.71201  0.36942  0.52791  1.0000
  H   H348      1.0  0.60526  0.32826  0.66248  1.0000
  S   S90       1.0  0.70778  0.34874  0.70479  1.0000
  H   H349      1.0  0.99179  0.36420  0.90878  1.0000
  S   S91       1.0  0.00727  0.29560  0.81391  1.0000
  C   C221      1.0  0.93101  0.35940  0.91080  1.0000
  C   C222      1.0  0.75632  0.49984  0.70496  1.0000
  S   S92       1.0  0.92003  0.31222  0.71545  1.0000
  H   H350      1.0  0.66099  0.31951  0.95709  1.0000
  Fe  Fe46      1.0  0.75455  0.37302  0.72381  1.0000
  S   S93       1.0  0.74718  0.38692  0.64671  1.0000
  S   S94       1.0  0.79900  0.34766  0.77436  1.0000
  H   H351      1.0  0.90387  0.35954  0.89358  1.0000
  C   C223      1.0  0.93547  0.31156  0.88433  1.0000
  H   H352      1.0  0.91024  0.35414  0.81505  1.0000
  S   S95       1.0  0.73196  0.41355  0.74030  1.0000
  C   C224      1.0  0.98242  0.34197  0.90798  1.0000
  H   H353      1.0  0.93741  0.35108  0.94903  1.0000
  H   H354      1.0  0.99479  0.32862  0.88872  1.0000
  H   H355      1.0  0.94616  0.37546  0.83191  1.0000
  H   H356      1.0  0.76204  0.47920  0.72477  1.0000
  H   H357      1.0  0.94343  0.30158  0.92176  1.0000
  C   C225      1.0  0.88526  0.32051  0.73011  1.0000
  C   C226      1.0  0.86476  0.34390  0.70551  1.0000
  C   C227      1.0  0.83788  0.35216  0.71813  1.0000
  C   C228      1.0  0.83136  0.33709  0.75555  1.0000
  C   C229      1.0  0.85146  0.31333  0.77949  1.0000
  C   C230      1.0  0.87816  0.30490  0.76654  1.0000
  H   H358      1.0  0.87016  0.35614  0.67734  1.0000
  H   H359      1.0  0.82282  0.37073  0.69987  1.0000
  H   H360      1.0  0.84636  0.30143  0.80822  1.0000
  N   N21       1.0  0.94654  0.34155  0.88417  1.0000
  H   H361      1.0  0.99036  0.33281  0.94595  1.0000
  N   N22       1.0  0.58185  0.35364  0.59647  1.0000
  C   C231      1.0  0.73626  0.50119  0.65605  1.0000
  C   C232      1.0  0.93724  0.35322  0.83361  1.0000
  H   H362      1.0  0.62499  0.32630  0.61846  1.0000
  N   N23       1.0  0.76937  0.29427  0.62656  1.0000
  Fe  Fe47      1.0  0.72121  0.42580  0.66146  1.0000
  H   H363      1.0  0.93882  0.38219  0.91144  1.0000
  H   H364      1.0  0.81904  0.29404  0.67605  1.0000
  Fe  Fe48      1.0  0.96011  0.28059  0.76063  1.0000
  H   H365      1.0  0.90844  0.31046  0.86849  1.0000
  H   H366      1.0  0.62852  0.35792  0.65280  1.0000
  H   H367      1.0  0.61552  0.28890  0.90847  1.0000
  H   H368      1.0  0.59095  0.32994  0.99769  1.0000
  S   S96       1.0  0.00690  0.26926  0.93760  1.0000
  H   H369      1.0  0.56203  0.34062  0.93911  1.0000
  C   C233      1.0  0.59106  0.36962  0.55902  1.0000
  C   C234      1.0  0.67471  0.33744  0.51343  1.0000
  H   H370      1.0  0.58150  0.39163  0.63584  1.0000
  H   H371      1.0  0.72270  0.28588  0.57268  1.0000
  C   C235      1.0  0.80235  0.28073  0.64747  1.0000
  H   H372      1.0  0.75718  0.27263  0.55951  1.0000
  C   C236      1.0  0.74769  0.27591  0.58933  1.0000
  H   H373      1.0  0.56919  0.37906  0.52957  1.0000
  H   H374      1.0  0.75484  0.27681  0.68446  1.0000
  H   H375      1.0  0.81369  0.27817  0.61946  1.0000
  H   H376      1.0  0.55099  0.31856  0.60049  1.0000
  H   H377      1.0  0.54793  0.27154  0.97070  1.0000
  H   H378      1.0  0.80172  0.25906  0.66462  1.0000
  C   C237      1.0  0.58442  0.64150  0.38817  1.0000
  S   S97       1.0  0.59351  0.68317  0.24375  1.0000
  Fe  Fe49      1.0  0.63948  0.68944  0.30722  1.0000
  S   S98       1.0  0.65939  0.65475  0.36583  1.0000
  Fe  Fe50      1.0  0.61749  0.70995  0.20110  1.0000
  S   S99       1.0  0.61438  0.69654  0.12664  1.0000
  C   C238      1.0  0.77028  0.74411  0.39584  1.0000
  C   C239      1.0  0.68471  0.66801  0.42120  1.0000
  N   N24       1.0  0.58193  0.65600  0.43053  1.0000
  S   S100      1.0  0.66548  0.71225  0.26339  1.0000
  C   C240      1.0  0.58316  0.71152  0.07511  1.0000
  C   C241      1.0  0.57718  0.69957  0.02988  1.0000
  H   H379      1.0  0.59230  0.68170  0.02689  1.0000
  S   S101      1.0  0.59750  0.75206  0.21479  1.0000
  S   S102      1.0  0.62131  0.72971  0.32889  1.0000
  C   C242      1.0  0.56336  0.73439  0.07884  1.0000
  H   H380      1.0  0.78825  0.72913  0.49074  1.0000
  H   H381      1.0  0.68909  0.71015  0.39111  1.0000
  Fe  Fe51      1.0  0.57728  0.72553  0.26247  1.0000
  H   H382      1.0  0.72223  0.72919  0.47048  1.0000
  C   C243      1.0  0.69534  0.69645  0.42374  1.0000
  H   H383      1.0  0.56588  0.62449  0.37586  1.0000
  H   H384      1.0  0.83359  0.74051  0.40564  1.0000
  H   H385      1.0  0.81577  0.71274  0.46595  1.0000
  H   H386      1.0  0.60126  0.69553  0.41256  1.0000
  H   H387      1.0  0.68529  0.62822  0.46176  1.0000
  C   C244      1.0  0.54849  0.66804  0.41853  1.0000
  C   C245      1.0  0.71428  0.70714  0.46860  1.0000
  H   H388      1.0  0.54551  0.67869  0.44993  1.0000
  H   H389      1.0  0.74896  0.73996  0.40721  1.0000
  H   H390      1.0  0.56784  0.74387  0.11331  1.0000
  C   C246      1.0  0.80844  0.73364  0.47686  1.0000
  H   H391      1.0  0.98908  0.71414  0.04077  1.0000
  C   C247      1.0  0.69324  0.65030  0.46362  1.0000
  H   H392      1.0  0.60425  0.69120  0.47497  1.0000
  H   H393      1.0  0.63107  0.67109  0.45334  1.0000
  S   S103      1.0  0.03247  0.75058  0.31765  1.0000
  H   H394      1.0  0.60894  0.63106  0.39672  1.0000
  H   H395      1.0  0.58083  0.65707  0.35695  1.0000
  H   H396      1.0  0.77677  0.72362  0.38265  1.0000
  Fe  Fe52      1.0  0.64348  0.75250  0.28010  1.0000
  C   C248      1.0  0.60560  0.67954  0.44346  1.0000
  H   H397      1.0  0.97612  0.75425  0.34523  1.0000
  H   H398      1.0  0.00520  0.74843  0.03163  1.0000
  N   N25       1.0  0.79821  0.75515  0.43570  1.0000
  H   H399      1.0  0.54893  0.68961  0.13838  1.0000
  C   C249      1.0  0.98309  0.73490  0.01896  1.0000
  C   C250      1.0  0.58932  0.63486  0.47202  1.0000
  H   H400      1.0  0.61443  0.62536  0.48195  1.0000
  H   H401      1.0  0.59538  0.75733  0.00474  1.0000
  H   H402      1.0  0.96353  0.74617  0.02792  1.0000
  H   H403      1.0  0.65046  0.74106  0.01329  1.0000
  H   H404      1.0  0.57190  0.61678  0.46338  1.0000
  H   H405      1.0  0.92254  0.72334  0.95710  1.0000
  C   C251      1.0  0.72921  0.52809  0.63059  1.0000
  S   S104      1.0  0.64878  0.66371  0.69478  1.0000
  C   C252      1.0  0.65492  0.57797  0.75744  1.0000
  C   C253      1.0  0.99962  0.71537  0.95619  1.0000
  N   N26       1.0  0.68314  0.56979  0.74383  1.0000
  H   H406      1.0  0.69954  0.53407  0.71332  1.0000
  H   H407      1.0  0.73501  0.56311  0.77829  1.0000
  C   C254      1.0  0.60390  0.72629  0.77247  1.0000
  C   C255      1.0  0.58538  0.70426  0.74557  1.0000
  C   C256      1.0  0.59943  0.68524  0.72194  1.0000
  C   C257      1.0  0.63203  0.68812  0.72491  1.0000
  C   C258      1.0  0.65055  0.71010  0.75190  1.0000
  C   C259      1.0  0.63652  0.72907  0.77560  1.0000
  H   H408      1.0  0.85616  0.71964  0.64390  1.0000
  H   H409      1.0  0.58492  0.66834  0.70105  1.0000
  H   H410      1.0  0.67566  0.71253  0.75446  1.0000
  H   H411      1.0  0.80074  0.74653  0.70401  1.0000
  S   S105      1.0  0.71384  0.64202  0.64242  1.0000
  H   H412      1.0  0.60421  0.71776  0.95349  1.0000
  C   C260      1.0  0.60401  0.73502  0.92615  1.0000
  C   C261      1.0  0.86262  0.74594  0.81738  1.0000
  Fe  Fe53      1.0  0.70076  0.66835  0.69596  1.0000
  C   C262      1.0  0.67869  0.54063  0.72431  1.0000
  H   H413      1.0  0.65619  0.53966  0.69158  1.0000
  C   C263      1.0  0.68562  0.59080  0.70648  1.0000
  C   C264      1.0  0.76960  0.52521  0.72793  1.0000
  H   H414      1.0  0.02228  0.72814  0.96763  1.0000
  H   H415      1.0  0.65101  0.74607  0.79625  1.0000
  H   H416      1.0  0.71832  0.59197  0.80137  1.0000
  H   H417      1.0  0.71828  0.64737  0.54120  1.0000
  C   C265      1.0  0.71337  0.56999  0.78701  1.0000
  H   H418      1.0  0.94787  0.69115  0.97086  1.0000
  H   H419      1.0  0.71389  0.52921  0.59265  1.0000
  C   C266      1.0  0.83418  0.72257  0.65403  1.0000
  H   H420      1.0  0.65759  0.60008  0.77172  1.0000
  H   H421      1.0  0.57852  0.73774  0.90003  1.0000
  C   C267      1.0  0.94342  0.71251  0.95088  1.0000
  H   H422      1.0  0.70675  0.58562  0.69555  1.0000
  H   H423      1.0  0.83992  0.71252  0.69104  1.0000
  S   S106      1.0  0.74603  0.70365  0.56673  1.0000
  S   S107      1.0  0.95118  0.72522  0.80960  1.0000
  H   H424      1.0  0.63176  0.57820  0.72558  1.0000
  C   C268      1.0  0.55112  0.71010  0.98876  1.0000
  Fe  Fe54      1.0  0.75865  0.62861  0.70610  1.0000
  S   S108      1.0  0.74400  0.65274  0.76016  1.0000
  S   S109      1.0  0.77869  0.58350  0.73329  1.0000
  C   C269      1.0  0.72231  0.68959  0.51114  1.0000
  H   H425      1.0  0.66330  0.59146  0.67328  1.0000
  Fe  Fe55      1.0  0.77078  0.68976  0.74146  1.0000
  S   S110      1.0  0.80300  0.72067  0.79410  1.0000
  H   H426      1.0  0.73674  0.57404  0.63361  1.0000
  S   S111      1.0  0.78898  0.66460  0.69260  1.0000
  S   S112      1.0  0.58740  0.75058  0.80309  1.0000
  C   C270      1.0  0.91025  0.72427  0.80668  1.0000
  H   H427      1.0  0.93545  0.70847  0.91140  1.0000
  N   N27       1.0  0.97292  0.73026  0.96641  1.0000
  C   C271      1.0  0.84460  0.72120  0.80069  1.0000
  C   C272      1.0  0.85980  0.69771  0.78839  1.0000
  C   C273      1.0  0.89253  0.69921  0.79159  1.0000
  H   H428      1.0  0.71205  0.55504  0.81664  1.0000
  H   H429      1.0  0.78546  0.52399  0.76560  1.0000
  H   H430      1.0  0.84642  0.67824  0.77677  1.0000
  H   H431      1.0  0.90410  0.68088  0.78202  1.0000
  H   H432      1.0  0.61900  0.72713  0.90528  1.0000
  C   C274      1.0  0.76248  0.55211  0.70244  1.0000
  C   C275      1.0  0.74211  0.55349  0.65371  1.0000
  C   C276      1.0  0.89523  0.74763  0.81984  1.0000
  Fe  Fe56      1.0  0.74278  0.68039  0.63379  1.0000
  S   S113      1.0  0.72601  0.70781  0.68194  1.0000
  H   H433      1.0  0.68906  0.61294  0.72012  1.0000
  H   H434      1.0  0.56022  0.70195  0.74283  1.0000
  H   H435      1.0  0.79646  0.75423  0.57627  1.0000
  H   H436      1.0  0.99284  0.71188  0.91666  1.0000
  H   H437      1.0  0.54606  0.70032  0.95423  1.0000
  H   H438      1.0  0.65224  0.56275  0.78583  1.0000
  H   H439      1.0  0.81408  0.71005  0.62902  1.0000
  H   H440      1.0  0.77462  0.74446  0.64207  1.0000
  H   H441      1.0  0.58783  0.64506  0.50475  1.0000
  C   C277      1.0  0.79579  0.75600  0.66678  1.0000
  C   C278      1.0  0.71174  0.66116  0.50862  1.0000
  N   N28       1.0  0.82476  0.75337  0.65233  1.0000
  H   H442      1.0  0.00566  0.69389  0.97570  1.0000
  H   H443      1.0  0.95831  0.75565  0.89964  1.0000
  H   H444      1.0  0.67705  0.52408  0.75164  1.0000
  H   H445      1.0  0.66663  0.74974  0.96633  1.0000
  H   H446      1.0  0.82972  0.74119  0.50734  1.0000
  C   C279      1.0  0.64985  0.75753  0.98439  1.0000
  C   C280      1.0  0.96557  0.75840  0.93927  1.0000
  H   H447      1.0  0.59074  0.86451  0.30152  1.0000
  C   C281      1.0  0.59349  0.79687  0.35151  1.0000
  S   S114      1.0  0.66856  0.79381  0.30778  1.0000
  H   H448      1.0  0.62540  0.84039  0.32692  1.0000
  C   C282      1.0  0.02543  0.80812  0.33396  1.0000
  C   C283      1.0  0.90362  0.99227  0.47562  1.0000
  H   H449      1.0  0.55965  0.79272  0.25685  1.0000
  C   C284      1.0  0.60075  0.84594  0.32783  1.0000
  H   H450      1.0  0.89163  0.95407  0.26052  1.0000
  N   N29       1.0  0.57904  0.82096  0.31585  1.0000
  H   H451      1.0  0.59944  0.80623  0.26428  1.0000
  H   H452      1.0  0.89668  0.94623  0.47051  1.0000
  C   C285      1.0  0.85915  0.99664  0.38073  1.0000
  H   H453      1.0  0.78075  0.79916  0.42115  1.0000
  H   H454      1.0  0.56411  0.82941  0.23872  1.0000
  H   H455      1.0  0.92499  0.89572  0.30467  1.0000
  H   H456      1.0  0.80906  0.79155  0.48128  1.0000
  H   H457      1.0  0.94529  0.98359  0.34016  1.0000
  Fe  Fe57      1.0  0.84615  0.83314  0.35412  1.0000
  S   S115      1.0  0.83332  0.85739  0.40925  1.0000
  S   S116      1.0  0.81007  0.80671  0.29777  1.0000
  Fe  Fe58      1.0  0.91834  0.85010  0.39528  1.0000
  S   S117      1.0  0.91084  0.87476  0.45490  1.0000
  S   S118      1.0  0.96751  0.85491  0.38648  1.0000
  Fe  Fe59      1.0  0.87979  0.83746  0.46170  1.0000
  H   H458      1.0  0.76757  0.77946  0.46429  1.0000
  Fe  Fe60      1.0  0.86524  0.89226  0.39645  1.0000
  S   S119      1.0  0.84912  0.93872  0.37333  1.0000
  S   S120      1.0  0.89133  0.81132  0.40714  1.0000
  S   S121      1.0  0.87420  0.86930  0.33657  1.0000
  C   C286      1.0  0.76985  0.80482  0.29770  1.0000
  C   C287      1.0  0.74925  0.78354  0.27157  1.0000
  C   C288      1.0  0.72712  0.82018  0.32687  1.0000
  C   C289      1.0  0.75846  0.82340  0.32472  1.0000
  H   H459      1.0  0.84156  0.99847  0.34413  1.0000
  H   H460      1.0  0.77360  0.84046  0.34360  1.0000
  C   C290      1.0  0.93570  0.93212  0.37690  1.0000
  H   H461      1.0  0.96121  0.92454  0.39759  1.0000
  C   C291      1.0  0.01312  0.78031  0.33271  1.0000
  C   C292      1.0  0.70694  0.79835  0.30199  1.0000
  C   C293      1.0  0.01088  0.83095  0.34975  1.0000
  C   C294      1.0  0.98378  0.82620  0.36386  1.0000
  C   C295      1.0  0.97107  0.79855  0.36158  1.0000
  C   C296      1.0  0.98578  0.77569  0.34622  1.0000
  H   H462      1.0  0.71861  0.83457  0.34810  1.0000
  H   H463      1.0  0.96595  0.90782  0.32249  1.0000
  H   H464      1.0  0.95017  0.79465  0.37226  1.0000
  H   H465      1.0  0.02071  0.85234  0.35111  1.0000
  C   C297      1.0  0.86757  0.96934  0.40447  1.0000
  C   C298      1.0  0.57534  0.81194  0.26675  1.0000
  C   C299      1.0  0.78843  0.78248  0.45146  1.0000
  N   N30       1.0  0.93090  0.93978  0.32569  1.0000
  H   H466      1.0  0.59623  0.80271  0.38894  1.0000
  H   H467      1.0  0.97795  0.95891  0.34340  1.0000
  C   C300      1.0  0.94001  0.91475  0.30323  1.0000
  H   H468      1.0  0.76199  0.75983  0.36436  1.0000
  H   H469      1.0  0.94873  0.97072  0.28541  1.0000
  C   C301      1.0  0.71791  0.78024  0.27383  1.0000
  H   H470      1.0  0.93659  0.91960  0.26450  1.0000
  C   C302      1.0  0.54661  0.82891  0.31721  1.0000
  H   H471      1.0  0.91945  0.91447  0.37974  1.0000
  C   C303      1.0  0.89625  0.94796  0.29923  1.0000
  H   H472      1.0  0.88838  0.96646  0.31576  1.0000
  C   C304      1.0  0.95166  0.96436  0.32354  1.0000
  H   H473      1.0  0.92996  0.95073  0.39544  1.0000
  H   H474      1.0  0.87984  0.92989  0.30007  1.0000
  H   H475      1.0  0.03074  0.83048  0.07018  1.0000
  C   C305      1.0  0.89015  0.96716  0.45186  1.0000
  H   H476      1.0  0.60431  0.85328  0.36477  1.0000
  H   H477      1.0  0.61823  0.79065  0.35196  1.0000
  H   H478      1.0  0.54840  0.83572  0.35381  1.0000
  H   H479      1.0  0.57806  0.77741  0.34291  1.0000
  C   C306      1.0  0.04226  0.80477  0.01878  1.0000
  H   H480      1.0  0.81883  0.77679  0.38779  1.0000
  C   C307      1.0  0.82569  0.76046  0.41857  1.0000
  H   H481      1.0  0.84726  0.76881  0.44774  1.0000
  H   H482      1.0  0.70233  0.76366  0.25379  1.0000
  H   H483      1.0  0.75778  0.76926  0.25019  1.0000
  H   H484      1.0  0.97027  0.83201  0.60865  1.0000
  S   S122      1.0  0.87814  0.81103  0.52661  1.0000
  H   H485      1.0  0.59168  0.78837  0.88424  1.0000
  N   N31       1.0  0.02200  0.83366  0.64688  1.0000
  H   H486      1.0  0.01571  0.84310  0.71396  1.0000
  H   H487      1.0  0.65995  0.77770  0.00255  1.0000
  C   C308      1.0  0.99152  0.81741  0.62810  1.0000
  H   H488      1.0  0.04119  0.86765  0.69588  1.0000
  S   S123      1.0  0.95914  0.80840  0.83740  1.0000
  Fe  Fe61      1.0  0.98025  0.82872  0.78510  1.0000
  S   S124      1.0  0.95564  0.86328  0.72815  1.0000
  Fe  Fe62      1.0  0.00966  0.81166  0.89273  1.0000
  H   H489      1.0  0.84634  0.79251  0.68489  1.0000
  C   C309      1.0  0.93186  0.84930  0.67268  1.0000
  C   C310      1.0  0.92352  0.82024  0.67008  1.0000
  C   C311      1.0  0.90664  0.80878  0.62502  1.0000
  C   C312      1.0  0.89801  0.82632  0.58249  1.0000
  C   C313      1.0  0.90578  0.85551  0.58508  1.0000
  C   C314      1.0  0.92257  0.86702  0.63023  1.0000
  H   H490      1.0  0.93013  0.80658  0.70278  1.0000
  H   H491      1.0  0.90092  0.78615  0.62294  1.0000
  H   H492      1.0  0.89881  0.86923  0.55237  1.0000
  H   H493      1.0  0.92878  0.88958  0.63219  1.0000
  H   H494      1.0  0.56897  0.77504  0.94947  1.0000
  S   S125      1.0  0.99594  0.78710  0.76296  1.0000
  C   C315      1.0  0.01908  0.85434  0.68206  1.0000
  H   H495      1.0  0.99292  0.80115  0.60214  1.0000
  H   H496      1.0  0.00724  0.86529  0.58755  1.0000
  C   C316      1.0  0.85211  0.76902  0.68608  1.0000
  C   C317      1.0  0.81693  0.76580  0.60251  1.0000
  H   H497      1.0  0.99772  0.86939  0.66556  1.0000
  C   C318      1.0  0.02764  0.84961  0.60626  1.0000
  C   C319      1.0  0.59486  0.77265  0.97450  1.0000
  S   S126      1.0  0.02879  0.83674  0.84225  1.0000
  H   H498      1.0  0.83845  0.76453  0.59078  1.0000
  H   H499      1.0  0.98717  0.77240  0.95020  1.0000
  S   S127      1.0  0.01746  0.82604  0.96814  1.0000
  H   H500      1.0  0.87482  0.76653  0.67768  1.0000
  H   H501      1.0  0.80945  0.78896  0.59995  1.0000
  Fe  Fe63      1.0  0.04315  0.79366  0.82369  1.0000
  H   H502      1.0  0.62597  0.80517  0.92732  1.0000
  H   H503      1.0  0.63220  0.77701  0.89105  1.0000
  H   H504      1.0  0.92061  0.99053  0.51261  1.0000
  H   H505      1.0  0.78810  0.77891  0.66657  1.0000
  H   H506      1.0  0.02965  0.83474  0.57873  1.0000
  H   H507      1.0  0.85102  0.76414  0.82720  1.0000
  Fe  Fe64      1.0  0.97821  0.76706  0.81958  1.0000
  C   C320      1.0  0.61663  0.78426  0.91148  1.0000
  H   H508      1.0  0.90847  0.76709  0.83150  1.0000
  H   H509      1.0  0.94536  0.77031  0.94559  1.0000
  S   S128      1.0  0.02739  0.76882  0.87835  1.0000
  H   H510      1.0  0.98599  0.80583  0.65798  1.0000
  H   H511      1.0  0.85785  0.76069  0.72402  1.0000
  N   N32       1.0  0.61633  0.76238  0.94914  1.0000
  H   H512      1.0  0.60249  0.79392  0.99034  1.0000
