data_image0
_chemical_formula_structural       FeSFeSCFeCFeHCHC2S2CHCHSHCH4CSNH2C2SCSC3HC2H4CSCH2CSH5CHC2H2CH2NH2CH3CH3NCHC2SH8C2H5C2HCHSH6FeS2FeS2FeSFeHS2FeHFeCS2NFeHS2H2SHC2HCSFeC3H2C7H6SC3HCH2C2H2C6H4CH8SHC2HNCH2C4HNC4HCH4CH6CH2FeHSHCH2SC2H4CSH2C3H6CS2FeSCFeS2FeSFeS3H3Fe2SFeHSHCHC6H4C6H6CH6CH2FeCHCHC4H3CH2CHCHSH3S2H6NCNC5H3NH6S3HSCSCSHC2FeNFeHC3H3C2H5CHNH6C2H3C2NC2SHC2HCFeH2CS2FeSHSHCH5FeCHCH2CNC2HC2SHCNHCSC3H8CHSH2CFeSHSH3CFeCHSFeCFeCH3FeCH2CHSNH6S2HC3H5CNH2CH6CH3C2HFeHSFeH2S4FeS2FeS2FeSFeHS2CH3C3HCHC6H4C6H4CSH2SFeH3CH4CHCSCFeCFeNC4H11NH2CH2NHCHSHC2H3CHCHC3HNH3C2SH6C2H3CHCFeSHCH3S2CSC2H3CHCHCHFeH4S2H2C2HFeS2CHFeHCH5S2H2CSH3CFeCFeSH3CS2NCHFeHCHCFeH4CSHFeS2FeS2C2FeSHSFeS2FeS2FeSFeS3H3C2H2C4H3CHC2FeHCH3C6H5CSC2HCH3CHC3HCH12SHCHNC4H12NC4HCSCHSC3HNH2C2HCHFeHNCHCFeH6CHCH4NHCHCHCSHSC3HSHSCSFeNCHSFeSHC3H6SC6HNSCSHC4HCFeH2FeCH2C2H2C2HSHCH3C3HSFeH4CH4CHSCHCH2CH2CFeHSFeS2FeSCFeSFeS3HSCH2C2HNH4CH3C7H3C2HCHFeCH4S2HNH2NH2SH6C2H2C3NC4H12CFeH3CSCHC2HNHCSCH2CH2CNCH3CHC2H5CH2CH10CHCH2NFeH2C3HSHCH3CH3NH4CHFeS2FeS2FeSFeS3H2FeS2FeSFeS3H2C6HCH2CHC2H2CSHCHC7H4C2SHNC2H2NH4C2SH2C2H2CHC2H2CH5CHC3H2NH2NC4H12C3HCHCHFeHCH2CFeCH2SCH2CSH2C2SHC3H8CSH4Fe2H2NCHS2FeHSCHCHSC2HSH2S3CFeHCHC7H11FeH3NFeH4SH4SHFeH2FeS2HCH3S2FeSHFeSCSCFeHFeC4H2CH2C4HCFeCSHCSHC3H2SC6H3C2H5CNFeNC4H15SHSHFeC2SCH2SH2NH2FeH2CHC2H2C2HCH2CH2Fe2HNHSHNCSCSC2HSCS2CHSCNHSH2CH5CFeHCHFeH2SHNFeH2CH4C2HC3HC3HSHNH5CHCHC2H2CNH2SCHSHFeCHFeSHSNH5FeH4CHSH3NH4CHCH4FeSH2CSCH5CFeSHCH5CHCH3CH2SHC5SHCH2CH2CNC3SH3SCHNHC2Fe2H2SCHCSHSCH2FeS2FeHSFeSHCSH2CH2CH3CH2C2HC3H3SC4H3CHCSH7SHC4H2CH2CH2CHSH3CHCNHN2CHCH3C2H3C2HC3FeHCH3SH4C2FeS2FeS2Fe3HS2HSHFeS2FeH3S2CFeS2FeS2FeHFeHS2FeS2FeS2FeSHCS2C3H2C2H2C3H4CHCHFeHC3H5C6H3C3HC6H2C6H5CH5CNH4C3HNC4H12CHSC3HCH6CH3C2HFeCHC2SHCSCH3SCHNH2C2HNC2H8CNH2SH8CHC3H2CHSNHCHNHCHCHCH3CH6CH2C3HCHCNCH2NHS2CHFeS2FeS2FeSFeS3FeS2HFeHSCFe2S2Fe2S3FeHCSCH4SC2HCH4C2HFeNHC6H4C6H5CH4C6H4NC4H12CHCNC4HCH5C2H3S2CH2CHNCHC4FeHCHC3H4SC2SH2NHSCH3CH2S2CS2HFeHCSCHCH3SHCFeH2CH2NH2CHCH8CH6SH2CH3CHNH2CFeSCHC2H2CH3CH3NC2HFe2HSFeS2H2FeCS2H3SC2SFeSHC6H2C6H4C6H5C2HS2CH2C3H7CH4CFeHSHNHC2HSHSH3NC4H14SHC2SHC2S2HFeCHCHCH3NCH5CH2FeH4C2HSC2H3CH4CHCHSC4FeS2FeS2FeSFeS3FeS2FeSFe2SFeS3HNC2HCH5CH3CH2C2HC4H3C2H2C6H4C6H3C2HC2H2C2H6SC2HS3H2NH3SHCHCHCH2CH2SH3CH3C2SNHSNHC2H2CHCHCH2SFeC2HCHCH2CFeCHNH3FeHCHCH7C3H6CH2SH3CHSH3SHC2HCSH5CFeCSCHCHCH2CHC3N2CNH10CHC2H3NCH2SCH3NHCH2CHCH2FeCSHSCH2S2NC2H4FeS2FeS2FeSFeS3FeC4HFeCSC2HSH3CH2SH2NC6H4C3HC2HSH3C2HC3H2C6H4NC4H7C2H3CSH7CH3CH2CSFeSH2CH3NHCHCHCFeH4CH8SHCHCH3CFeH2FeHCFeSH2CFeSCS2NFeCFeHSHC3S3C2FeH2S2CSHC6H7CHCHSHSC4H4SH3FeCH3CSHC2HFeH3CH5NHC2H3CH2CH3SFeSFe2SCFeCFeS4CFeS2CHCHSCHFeH4FeC3HC2H3SH3CHC6H4C5H4FeC2H5SFeHNC3H4SH3S2CSHCH2C3H4CHSH2CHFeH6SNSFeS2CSHC2H2C3H5S2CNHSH3CH4CFeC3NH2C2H2CSHC2HCH2CHCHFeS2FeSFe2S2H3CFeS2CSH3CHNCHCFeSFeSHSH3NFeH4FeC6H6CHS2H2CHC6H2CH2CHCH2CSCH3CHC2H2CNHFeC2H3SCH2CHCH3CH2SH2CNCH5SCH2CH3CSCH3CHFeS2FeS2FeSC2S3HCSH2CSCH3NC6H4FeSHCH4FeSC6H5C2H2CHCSHNHCH3C3H5C3H2CHFeCFeHSCHSHCH5FeHNCHFeNH3SH5CHSH2C2FeH6SFeHFe2HS2HSHS2HSCH2FeCH3CHCH2CHC2FeSH4CNHSC2SHCFeSHSNH3C2H3FeHFeHCHCH2CHCHCSH4NH5C4HCSHCH8CH2SHCFeSFeS2FeHFeS3HFeS2FeSCFeHFeHS2HCFeHCH2CHCH2SHCH2CHC2HC6H4CHSHSH4C6H5CHNCSH5CH4CNHC2HCHCH3CHC3H4C3H2NH2SH5CHC2NCH2CH2SHCHNHCH4CH5CHCHC2HSFeS2FeC2H2FeS3H11SC3H2CH2CH4CHFeCHC4NHCS2HCHSH3C6SH2CH2FeNC3H3SHC4HCH4CHNHCSC2NFeS2H2FeSHSHCHCH2C2HC2FeS2FeS2FeSFeS3C4HCH2CHCH2C3H4C7H4C2H3CH6CH2C2HCH2CHC3HCHS3NC4H14NHCH5NC5NCHSCH4CHSH2FeH4FeH5CH2CNSC2H4CH4Fe2S3H2SHCH2CH2SH2SHNSFeS2FeCFeH3S2H4FeH8CFeHC2HSHC2HCNHC8H3C2HC4H4CNC4H12SCNCHC3S2C3HCH3C2H2FeHCH6CHCH2C2H2SH3FeSCHCSHCHCH3SH2CHCHCH2CH5CNH3CHFeHC
_chemical_formula_sum              "Fe256 S512 C1280 H2048 N128"
_cell_length_a       65.4375
_cell_length_b       64.9387
_cell_length_c       65.9469
_cell_angle_alpha    74.4528
_cell_angle_beta     74.8661
_cell_angle_gamma    74.9821

_space_group_name_H-M_alt    "P 1"
_space_group_IT_number       1

loop_
  _space_group_symop_operation_xyz
  'x, y, z'

loop_
  _atom_site_type_symbol
  _atom_site_label
  _atom_site_symmetry_multiplicity
  _atom_site_fract_x
  _atom_site_fract_y
  _atom_site_fract_z
  _atom_site_occupancy
  Fe  Fe1       1.0  0.26521  0.28022  0.15680  1.0000
  S   S1        1.0  0.24813  0.25340  0.17620  1.0000
  Fe  Fe2       1.0  0.22592  0.30714  0.13868  1.0000
  S   S2        1.0  0.20521  0.28289  0.15732  1.0000
  C   C1        1.0  0.27228  0.18065  0.11343  1.0000
  Fe  Fe3       1.0  0.22080  0.28072  0.18447  1.0000
  C   C2        1.0  0.28729  0.29839  0.19051  1.0000
  Fe  Fe4       1.0  0.23432  0.25789  0.14732  1.0000
  H   H1        1.0  0.16594  0.31266  0.09720  1.0000
  C   C3        1.0  0.25403  0.19737  0.11644  1.0000
  H   H2        1.0  0.29454  0.17391  0.22491  1.0000
  C   C4        1.0  0.20660  0.23578  0.21658  1.0000
  C   C5        1.0  0.31286  0.11427  0.24066  1.0000
  S   S3        1.0  0.20467  0.27761  0.21917  1.0000
  S   S4        1.0  0.30890  0.30094  0.24152  1.0000
  C   C6        1.0  0.20485  0.28680  0.09971  1.0000
  H   H3        1.0  0.25422  0.16493  0.22572  1.0000
  C   C7        1.0  0.26813  0.20651  0.14263  1.0000
  H   H4        1.0  0.15399  0.29322  0.09196  1.0000
  S   S5        1.0  0.25420  0.28210  0.12675  1.0000
  H   H5        1.0  0.17685  0.30243  0.07307  1.0000
  C   C8        1.0  0.28616  0.18940  0.13997  1.0000
  H   H6        1.0  0.27166  0.10490  0.22827  1.0000
  H   H7        1.0  0.28123  0.13271  0.19575  1.0000
  H   H8        1.0  0.27390  0.17082  0.10197  1.0000
  H   H9        1.0  0.31475  0.22539  0.20878  1.0000
  C   C9        1.0  0.30266  0.28179  0.18206  1.0000
  S   S6        1.0  0.29987  0.27390  0.15958  1.0000
  N   N1        1.0  0.18447  0.27981  0.10188  1.0000
  H   H10       1.0  0.15880  0.26879  0.12715  1.0000
  H   H11       1.0  0.24514  0.10865  0.24494  1.0000
  C   C10       1.0  0.32213  0.27652  0.21045  1.0000
  C   C11       1.0  0.18923  0.26039  0.09248  1.0000
  S   S7        1.0  0.32186  0.15502  0.17628  1.0000
  C   C12       1.0  0.29681  0.22761  0.21286  1.0000
  S   S8        1.0  0.22943  0.23181  0.13366  1.0000
  C   C13       1.0  0.28951  0.30434  0.20862  1.0000
  C   C14       1.0  0.30681  0.29331  0.21871  1.0000
  C   C15       1.0  0.22769  0.14445  0.21846  1.0000
  H   H12       1.0  0.30697  0.22378  0.10949  1.0000
  C   C16       1.0  0.20809  0.21335  0.22511  1.0000
  C   C17       1.0  0.26365  0.13948  0.19622  1.0000
  H   H13       1.0  0.21275  0.29185  0.08257  1.0000
  H   H14       1.0  0.21665  0.27350  0.10761  1.0000
  H   H15       1.0  0.30265  0.23032  0.14615  1.0000
  H   H16       1.0  0.21013  0.20242  0.21459  1.0000
  C   C18       1.0  0.20414  0.25000  0.23008  1.0000
  S   S9        1.0  0.31142  0.15600  0.12044  1.0000
  C   C19       1.0  0.25205  0.21048  0.13083  1.0000
  H   H17       1.0  0.20714  0.24209  0.19958  1.0000
  H   H18       1.0  0.20200  0.30086  0.10734  1.0000
  C   C20       1.0  0.28840  0.17660  0.12518  1.0000
  S   S10       1.0  0.23877  0.30750  0.16699  1.0000
  H   H19       1.0  0.26658  0.21650  0.15387  1.0000
  H   H20       1.0  0.29853  0.18650  0.14894  1.0000
  H   H21       1.0  0.29117  0.23252  0.19739  1.0000
  H   H22       1.0  0.19718  0.26393  0.07517  1.0000
  H   H23       1.0  0.27407  0.30720  0.18271  1.0000
  C   C21       1.0  0.32027  0.27111  0.19185  1.0000
  H   H24       1.0  0.17423  0.25464  0.09380  1.0000
  C   C22       1.0  0.29907  0.18946  0.21496  1.0000
  C   C23       1.0  0.17417  0.27425  0.12489  1.0000
  H   H25       1.0  0.32326  0.20614  0.15121  1.0000
  H   H26       1.0  0.24161  0.20035  0.10731  1.0000
  C   C24       1.0  0.16967  0.29777  0.09050  1.0000
  H   H27       1.0  0.17026  0.28858  0.13249  1.0000
  H   H28       1.0  0.18498  0.26084  0.13402  1.0000
  N   N2        1.0  0.28990  0.20748  0.22650  1.0000
  H   H29       1.0  0.22444  0.16237  0.21176  1.0000
  H   H30       1.0  0.27778  0.31754  0.21476  1.0000
  C   C25       1.0  0.32469  0.21833  0.10884  1.0000
  H   H31       1.0  0.26023  0.19606  0.24132  1.0000
  H   H32       1.0  0.26173  0.15720  0.18862  1.0000
  H   H33       1.0  0.25862  0.13145  0.18591  1.0000
  C   C26       1.0  0.32335  0.13104  0.23906  1.0000
  H   H34       1.0  0.30973  0.25968  0.11493  1.0000
  H   H35       1.0  0.25943  0.21578  0.21643  1.0000
  H   H36       1.0  0.27570  0.14171  0.23074  1.0000
  N   N3        1.0  0.25092  0.13573  0.21852  1.0000
  C   C27       1.0  0.32741  0.25306  0.11368  1.0000
  H   H37       1.0  0.20033  0.24657  0.10089  1.0000
  C   C28       1.0  0.26602  0.21105  0.23137  1.0000
  C   C29       1.0  0.32039  0.22403  0.14455  1.0000
  S   S11       1.0  0.31671  0.10254  0.21861  1.0000
  H   H38       1.0  0.17728  0.32580  0.14563  1.0000
  H   H39       1.0  0.29038  0.24160  0.22103  1.0000
  H   H40       1.0  0.31707  0.18645  0.21090  1.0000
  H   H41       1.0  0.29343  0.19315  0.19961  1.0000
  H   H42       1.0  0.32599  0.23147  0.15496  1.0000
  H   H43       1.0  0.24908  0.10306  0.21873  1.0000
  H   H44       1.0  0.22175  0.13655  0.20873  1.0000
  H   H45       1.0  0.25850  0.22427  0.24041  1.0000
  C   C30       1.0  0.25431  0.11205  0.22802  1.0000
  C   C31       1.0  0.25802  0.14690  0.23145  1.0000
  H   H46       1.0  0.31586  0.19854  0.24364  1.0000
  H   H47       1.0  0.25488  0.28365  0.23640  1.0000
  H   H48       1.0  0.21768  0.14179  0.23509  1.0000
  H   H49       1.0  0.22618  0.29104  0.24542  1.0000
  H   H50       1.0  0.13848  0.33475  0.14391  1.0000
  C   C32       1.0  0.17222  0.33536  0.13097  1.0000
  C   C33       1.0  0.29785  0.20174  0.24676  1.0000
  H   H51       1.0  0.25795  0.26347  0.35754  1.0000
  C   C34       1.0  0.20248  0.24187  0.25220  1.0000
  H   H52       1.0  0.06727  0.01994  0.39873  1.0000
  S   S12       1.0  0.30282  0.24895  0.33944  1.0000
  H   H53       1.0  0.24981  0.14321  0.24871  1.0000
  H   H54       1.0  0.32731  0.15420  0.25510  1.0000
  H   H55       1.0  0.16616  0.10933  0.46473  1.0000
  H   H56       1.0  0.16381  0.08194  0.44618  1.0000
  H   H57       1.0  0.08474  0.08493  0.38152  1.0000
  H   H58       1.0  0.29274  0.18674  0.25757  1.0000
  Fe  Fe5       1.0  0.26126  0.15742  0.30661  1.0000
  S   S13       1.0  0.23854  0.13830  0.30385  1.0000
  S   S14       1.0  0.29715  0.14968  0.29547  1.0000
  Fe  Fe6       1.0  0.22513  0.19339  0.32172  1.0000
  S   S15       1.0  0.19896  0.17756  0.32039  1.0000
  S   S16       1.0  0.21802  0.22560  0.33114  1.0000
  Fe  Fe7       1.0  0.21952  0.14661  0.33532  1.0000
  S   S17       1.0  0.20769  0.12120  0.36362  1.0000
  Fe  Fe8       1.0  0.22041  0.17084  0.28923  1.0000
  H   H59       1.0  0.22703  0.27279  0.30379  1.0000
  S   S18       1.0  0.24405  0.16312  0.33931  1.0000
  S   S19       1.0  0.24479  0.18934  0.28934  1.0000
  Fe  Fe9       1.0  0.08844  0.03681  0.42093  1.0000
  H   H60       1.0  0.09322  0.01077  0.48928  1.0000
  Fe  Fe10      1.0  0.12564  0.05387  0.38797  1.0000
  C   C35       1.0  0.32595  0.14838  0.33437  1.0000
  S   S20       1.0  0.13029  0.08195  0.35979  1.0000
  S   S21       1.0  0.21117  0.17693  0.25746  1.0000
  N   N4        1.0  0.16818  0.11465  0.43067  1.0000
  Fe  Fe11      1.0  0.13124  0.03318  0.43314  1.0000
  H   H61       1.0  0.30571  0.18376  0.31014  1.0000
  S   S22       1.0  0.10503  0.03135  0.38784  1.0000
  S   S23       1.0  0.10724  0.06167  0.41974  1.0000
  H   H62       1.0  0.19818  0.09491  0.43853  1.0000
  H   H63       1.0  0.30805  0.15003  0.33812  1.0000
  S   S24       1.0  0.15103  0.02671  0.40136  1.0000
  H   H64       1.0  0.03489  0.07256  0.37459  1.0000
  C   C36       1.0  0.06039  0.06062  0.49009  1.0000
  C   C37       1.0  0.15880  0.09556  0.43289  1.0000
  H   H65       1.0  0.14299  0.13769  0.41623  1.0000
  C   C38       1.0  0.13797  0.04970  0.47537  1.0000
  S   S25       1.0  0.05246  0.04092  0.43442  1.0000
  Fe  Fe12      1.0  0.12829  0.00492  0.40478  1.0000
  C   C39       1.0  0.20412  0.21942  0.26071  1.0000
  C   C40       1.0  0.12232  0.06827  0.46976  1.0000
  C   C41       1.0  0.24101  0.27914  0.24936  1.0000
  H   H66       1.0  0.07295  0.07075  0.48357  1.0000
  H   H67       1.0  0.11703  0.07136  0.45487  1.0000
  C   C42       1.0  0.19205  0.10836  0.42571  1.0000
  C   C43       1.0  0.18742  0.10973  0.36064  1.0000
  C   C44       1.0  0.17480  0.12000  0.34515  1.0000
  C   C45       1.0  0.15740  0.11130  0.34462  1.0000
  C   C46       1.0  0.15256  0.09246  0.35967  1.0000
  C   C47       1.0  0.16537  0.08219  0.37492  1.0000
  C   C48       1.0  0.18290  0.09061  0.37520  1.0000
  H   H68       1.0  0.17822  0.13481  0.33384  1.0000
  H   H69       1.0  0.14757  0.11932  0.33274  1.0000
  H   H70       1.0  0.16182  0.06773  0.38656  1.0000
  H   H71       1.0  0.19297  0.08229  0.38680  1.0000
  H   H72       1.0  0.19967  0.12240  0.42387  1.0000
  H   H73       1.0  0.16590  0.12696  0.39746  1.0000
  S   S26       1.0  0.00545  0.02271  0.37044  1.0000
  C   C49       1.0  0.32360  0.18152  0.30705  1.0000
  C   C50       1.0  0.29333  0.11860  0.27647  1.0000
  C   C51       1.0  0.30380  0.13537  0.27485  1.0000
  H   H74       1.0  0.04926  0.01419  0.37331  1.0000
  C   C52       1.0  0.26408  0.26349  0.27519  1.0000
  H   H75       1.0  0.10092  0.09699  0.47948  1.0000
  H   H76       1.0  0.28192  0.11357  0.29101  1.0000
  C   C53       1.0  0.32277  0.18294  0.34344  1.0000
  C   C54       1.0  0.31908  0.14134  0.25630  1.0000
  H   H77       1.0  0.16803  0.14685  0.41059  1.0000
  H   H78       1.0  0.00662  0.04926  0.43358  1.0000
  C   C55       1.0  0.27928  0.24231  0.33729  1.0000
  C   C56       1.0  0.28061  0.22741  0.32492  1.0000
  C   C57       1.0  0.26186  0.22175  0.32345  1.0000
  C   C58       1.0  0.24162  0.23163  0.33381  1.0000
  C   C59       1.0  0.24020  0.24688  0.34587  1.0000
  C   C60       1.0  0.25905  0.25193  0.34792  1.0000
  H   H79       1.0  0.29615  0.22002  0.31681  1.0000
  H   H80       1.0  0.26306  0.20993  0.31416  1.0000
  H   H81       1.0  0.22455  0.25451  0.35394  1.0000
  H   H82       1.0  0.26003  0.30643  0.25889  1.0000
  C   C61       1.0  0.16090  0.13232  0.41303  1.0000
  H   H83       1.0  0.09310  0.06956  0.34910  1.0000
  H   H84       1.0  0.16400  0.08911  0.41797  1.0000
  H   H85       1.0  0.19804  0.10270  0.41029  1.0000
  H   H86       1.0  0.07785  0.02798  0.46966  1.0000
  H   H87       1.0  0.14300  0.12708  0.45537  1.0000
  H   H88       1.0  0.16766  0.13676  0.45005  1.0000
  H   H89       1.0  0.20280  0.21324  0.27784  1.0000
  H   H90       1.0  0.04225  0.02730  0.49700  1.0000
  S   S27       1.0  0.14855  0.03039  0.45920  1.0000
  H   H91       1.0  0.05749  0.09770  0.39173  1.0000
  C   C62       1.0  0.01589  0.04147  0.42048  1.0000
  C   C63       1.0  0.22539  0.27280  0.28739  1.0000
  H   H92       1.0  0.05758  0.12312  0.35603  1.0000
  N   N5        1.0  0.24409  0.27916  0.27078  1.0000
  C   C64       1.0  0.16096  0.12232  0.45108  1.0000
  H   H93       1.0  0.27844  0.26760  0.26270  1.0000
  H   H94       1.0  0.20994  0.28406  0.28443  1.0000
  C   C65       1.0  0.01732  0.02779  0.38909  1.0000
  C   C66       1.0  0.03976  0.02180  0.38641  1.0000
  C   C67       1.0  0.03852  0.03559  0.41748  1.0000
  C   C68       1.0  0.00524  0.03752  0.40627  1.0000
  H   H95       1.0  0.23118  0.31359  0.26779  1.0000
  N   N6        1.0  0.06223  0.08818  0.36171  1.0000
  C   C69       1.0  0.07547  0.07035  0.35102  1.0000
  C   C70       1.0  0.06711  0.10928  0.34839  1.0000
  C   C71       1.0  0.06743  0.08478  0.38301  1.0000
  C   C72       1.0  0.03904  0.08826  0.36444  1.0000
  H   H96       1.0  0.07196  0.05421  0.36045  1.0000
  C   C73       1.0  0.05018  0.02547  0.40064  1.0000
  H   H97       1.0  0.07228  0.07263  0.33471  1.0000
  H   H98       1.0  0.14084  0.09987  0.43630  1.0000
  H   H99       1.0  0.08459  0.10953  0.34605  1.0000
  H   H100      1.0  0.06339  0.11248  0.33216  1.0000
  C   C74       1.0  0.29806  0.10786  0.25949  1.0000
  H   H101      1.0  0.29005  0.09477  0.26087  1.0000
  H   H102      1.0  0.06434  0.06885  0.39335  1.0000
  H   H103      1.0  0.02854  0.10154  0.37242  1.0000
  H   H104      1.0  0.26712  0.26362  0.29102  1.0000
  H   H105      1.0  0.03452  0.09060  0.34870  1.0000
  H   H106      1.0  0.23913  0.26287  0.24855  1.0000
  C   C75       1.0  0.24593  0.30126  0.27116  1.0000
  H   H107      1.0  0.02604  0.00934  0.46475  1.0000
  H   H108      1.0  0.09894  0.03698  0.47543  1.0000
  Fe  Fe13      1.0  0.32660  0.25187  0.30803  1.0000
  H   H109      1.0  0.20010  0.25286  0.26274  1.0000
  S   S28       1.0  0.11059  0.00911  0.43770  1.0000
  H   H110      1.0  0.22373  0.25602  0.28780  1.0000
  C   C76       1.0  0.11330  0.08282  0.48361  1.0000
  H   H111      1.0  0.26304  0.24651  0.27575  1.0000
  H   H112      1.0  0.05250  0.06137  0.47676  1.0000
  S   S29       1.0  0.31974  0.24438  0.27960  1.0000
  C   C77       1.0  0.08565  0.02791  0.48277  1.0000
  C   C78       1.0  0.14497  0.04604  0.49455  1.0000
  H   H113      1.0  0.24826  0.30186  0.28712  1.0000
  H   H114      1.0  0.30479  0.18542  0.34764  1.0000
  H   H115      1.0  0.29164  0.21505  0.25580  1.0000
  H   H116      1.0  0.32688  0.19945  0.33801  1.0000
  C   C79       1.0  0.20716  0.20513  0.24714  1.0000
  S   S30       1.0  0.29688  0.21568  0.67037  1.0000
  H   H117      1.0  0.13811  0.18463  0.71422  1.0000
  H   H118      1.0  0.32207  0.15232  0.73588  1.0000
  C   C80       1.0  0.05250  0.02514  0.50878  1.0000
  C   C81       1.0  0.27968  0.11025  0.72117  1.0000
  C   C82       1.0  0.01744  0.03585  0.58200  1.0000
  H   H119      1.0  0.13670  0.01722  0.53530  1.0000
  H   H120      1.0  0.32307  0.15039  0.64674  1.0000
  H   H121      1.0  0.17940  0.05648  0.63787  1.0000
  H   H122      1.0  0.22815  0.11186  0.71812  1.0000
  H   H123      1.0  0.03365  0.08229  0.53399  1.0000
  H   H124      1.0  0.17443  0.19416  0.69988  1.0000
  C   C83       1.0  0.11950  0.07845  0.50336  1.0000
  S   S31       1.0  0.10603  0.09468  0.52205  1.0000
  S   S32       1.0  0.27990  0.24003  0.72170  1.0000
  Fe  Fe14      1.0  0.18419  0.13506  0.69483  1.0000
  S   S33       1.0  0.17451  0.15417  0.66382  1.0000
  C   C84       1.0  0.24173  0.11070  0.72511  1.0000
  Fe  Fe15      1.0  0.23198  0.13054  0.67584  1.0000
  S   S34       1.0  0.22690  0.14963  0.64316  1.0000
  S   S35       1.0  0.26491  0.11935  0.68391  1.0000
  Fe  Fe16      1.0  0.20062  0.17186  0.66105  1.0000
  S   S36       1.0  0.19467  0.20831  0.65353  1.0000
  Fe  Fe17      1.0  0.20136  0.13004  0.64858  1.0000
  S   S37       1.0  0.20002  0.11654  0.62084  1.0000
  S   S38       1.0  0.20811  0.15477  0.69326  1.0000
  S   S39       1.0  0.20874  0.10902  0.67998  1.0000
  H   H125      1.0  0.06941  0.04696  0.52879  1.0000
  H   H126      1.0  0.00249  0.06654  0.64479  1.0000
  H   H127      1.0  0.02543  0.11148  0.60553  1.0000
  Fe  Fe18      1.0  0.11276  0.06794  0.60042  1.0000
  Fe  Fe19      1.0  0.29780  0.24351  0.64165  1.0000
  S   S40       1.0  0.11680  0.08078  0.62738  1.0000
  Fe  Fe20      1.0  0.10697  0.07400  0.55520  1.0000
  H   H128      1.0  0.30615  0.14405  0.61980  1.0000
  S   S41       1.0  0.08407  0.08315  0.58481  1.0000
  H   H129      1.0  0.99608  0.03274  0.56355  1.0000
  C   C85       1.0  0.20808  0.24843  0.72523  1.0000
  H   H130      1.0  0.14053  0.05689  0.52383  1.0000
  C   C86       1.0  0.17606  0.10823  0.62223  1.0000
  C   C87       1.0  0.16014  0.10679  0.64110  1.0000
  C   C88       1.0  0.14163  0.09908  0.64218  1.0000
  C   C89       1.0  0.13890  0.09285  0.62442  1.0000
  C   C90       1.0  0.15457  0.09478  0.60537  1.0000
  C   C91       1.0  0.17320  0.10229  0.60435  1.0000
  H   H131      1.0  0.16224  0.11132  0.65495  1.0000
  H   H132      1.0  0.12956  0.09762  0.65697  1.0000
  H   H133      1.0  0.15247  0.09029  0.59151  1.0000
  H   H134      1.0  0.18543  0.10356  0.58968  1.0000
  C   C92       1.0  0.25655  0.23477  0.62668  1.0000
  C   C93       1.0  0.24688  0.23291  0.64850  1.0000
  C   C94       1.0  0.22791  0.22458  0.65679  1.0000
  C   C95       1.0  0.21877  0.21788  0.64331  1.0000
  C   C96       1.0  0.22855  0.21952  0.62154  1.0000
  C   C97       1.0  0.24736  0.22810  0.61320  1.0000
  H   H135      1.0  0.25372  0.23842  0.65882  1.0000
  H   H136      1.0  0.22010  0.22367  0.67352  1.0000
  H   H137      1.0  0.22137  0.21453  0.61106  1.0000
  H   H138      1.0  0.25476  0.22963  0.59630  1.0000
  H   H139      1.0  0.05154  0.07152  0.56500  1.0000
  H   H140      1.0  0.11865  0.24473  0.70966  1.0000
  C   C98       1.0  0.26206  0.11232  0.71193  1.0000
  H   H141      1.0  0.03229  0.08363  0.60302  1.0000
  H   H142      1.0  0.30240  0.19811  0.63127  1.0000
  H   H143      1.0  0.29546  0.11137  0.71103  1.0000
  H   H144      1.0  0.13293  0.19880  0.73557  1.0000
  H   H145      1.0  0.15250  0.04873  0.61125  1.0000
  H   H146      1.0  0.30823  0.16895  0.66370  1.0000
  C   C99       1.0  0.29014  0.15116  0.62883  1.0000
  H   H147      1.0  0.13755  0.23716  0.72718  1.0000
  H   H148      1.0  0.00021  0.08802  0.58750  1.0000
  Fe  Fe21      1.0  0.29816  0.24026  0.68794  1.0000
  C   C100      1.0  0.16991  0.04335  0.64527  1.0000
  H   H149      1.0  0.27912  0.15844  0.61728  1.0000
  C   C101      1.0  0.16957  0.03970  0.60986  1.0000
  H   H150      1.0  0.14878  0.20405  0.67615  1.0000
  C   C102      1.0  0.22217  0.25144  0.70517  1.0000
  C   C103      1.0  0.24422  0.24991  0.70394  1.0000
  C   C104      1.0  0.25209  0.24555  0.72276  1.0000
  C   C105      1.0  0.08047  0.03774  0.51684  1.0000
  H   H151      1.0  0.15254  0.05153  0.64840  1.0000
  H   H152      1.0  0.21616  0.25436  0.69063  1.0000
  H   H153      1.0  0.25518  0.25172  0.68848  1.0000
  C   C106      1.0  0.19691  0.01618  0.62875  1.0000
  H   H154      1.0  0.17225  0.02845  0.59887  1.0000
  H   H155      1.0  0.17712  0.22190  0.69516  1.0000
  C   C107      1.0  0.02917  0.06922  0.54729  1.0000
  H   H156      1.0  0.14526  0.25096  0.69995  1.0000
  C   C108      1.0  0.01377  0.05809  0.54661  1.0000
  H   H157      1.0  0.09487  0.04539  0.51030  1.0000
  S   S42       1.0  0.15924  0.12667  0.72466  1.0000
  H   H158      1.0  0.32132  0.22387  0.73588  1.0000
  H   H159      1.0  0.12515  0.22529  0.67992  1.0000
  H   H160      1.0  0.31700  0.17943  0.61428  1.0000
  S   S43       1.0  0.04675  0.03832  0.60379  1.0000
  S   S44       1.0  0.09848  0.04132  0.56152  1.0000
  H   H161      1.0  0.21594  0.20448  0.72258  1.0000
  H   H162      1.0  0.22801  0.18717  0.70370  1.0000
  H   H163      1.0  0.16949  0.20708  0.72220  1.0000
  H   H164      1.0  0.05931  0.00743  0.51389  1.0000
  H   H165      1.0  0.27350  0.17598  0.71247  1.0000
  H   H166      1.0  0.27086  0.18920  0.65955  1.0000
  N   N7        1.0  0.29194  0.16754  0.63978  1.0000
  C   C109      1.0  0.30652  0.15712  0.65508  1.0000
  N   N8        1.0  0.14436  0.21720  0.70403  1.0000
  C   C110      1.0  0.14229  0.21973  0.68166  1.0000
  C   C111      1.0  0.13192  0.20095  0.71850  1.0000
  C   C112      1.0  0.13599  0.23845  0.71047  1.0000
  C   C113      1.0  0.16737  0.20969  0.70544  1.0000
  C   C114      1.0  0.00779  0.04152  0.56407  1.0000
  H   H167      1.0  0.00443  0.05977  0.61963  1.0000
  H   H168      1.0  0.01283  0.02295  0.59543  1.0000
  H   H169      1.0  0.24231  0.20619  0.70616  1.0000
  N   N9        1.0  0.99927  0.09416  0.61826  1.0000
  H   H170      1.0  0.26322  0.16345  0.66405  1.0000
  H   H171      1.0  0.25901  0.15679  0.71051  1.0000
  H   H172      1.0  0.25880  0.18389  0.64048  1.0000
  H   H173      1.0  0.12305  0.00556  0.50934  1.0000
  H   H174      1.0  0.18004  0.05189  0.60199  1.0000
  H   H175      1.0  0.17537  0.16235  0.73036  1.0000
  S   S45       1.0  0.00408  0.06351  0.52290  1.0000
  S   S46       1.0  0.18148  0.24629  0.72711  1.0000
  S   S47       1.0  0.29551  0.26890  0.66006  1.0000
  H   H176      1.0  0.14238  0.02023  0.64286  1.0000
  S   S48       1.0  0.28042  0.24481  0.61614  1.0000
  C   C115      1.0  0.03928  0.06316  0.56489  1.0000
  S   S49       1.0  0.13636  0.06135  0.57005  1.0000
  C   C116      1.0  0.23781  0.24376  0.74273  1.0000
  S   S50       1.0  0.10507  0.03445  0.61054  1.0000
  H   H177      1.0  0.28350  0.13740  0.64057  1.0000
  C   C117      1.0  0.15975  0.01185  0.64088  1.0000
  C   C118      1.0  0.23149  0.19467  0.71542  1.0000
  Fe  Fe22      1.0  0.12581  0.02923  0.57881  1.0000
  N   N10       1.0  0.17405  0.02776  0.63121  1.0000
  Fe  Fe23      1.0  0.07846  0.04909  0.59247  1.0000
  H   H178      1.0  0.15158  0.23184  0.67031  1.0000
  C   C119      1.0  0.03351  0.04639  0.58219  1.0000
  C   C120      1.0  0.27028  0.17641  0.65153  1.0000
  C   C121      1.0  0.13552  0.06021  0.50869  1.0000
  H   H179      1.0  0.30043  0.14338  0.66742  1.0000
  H   H180      1.0  0.08588  0.02086  0.52573  1.0000
  H   H181      1.0  0.11452  0.20592  0.71768  1.0000
  C   C122      1.0  0.02248  0.09483  0.61371  1.0000
  C   C123      1.0  0.30073  0.18548  0.62360  1.0000
  H   H182      1.0  0.26991  0.15262  0.73395  1.0000
  H   H183      1.0  0.04166  0.03046  0.52325  1.0000
  H   H184      1.0  0.32200  0.17726  0.69991  1.0000
  H   H185      1.0  0.20802  0.02787  0.62162  1.0000
  H   H186      1.0  0.02897  0.08979  0.62871  1.0000
  C   C124      1.0  0.26187  0.16529  0.72180  1.0000
  H   H187      1.0  0.25753  0.19963  0.73871  1.0000
  N   N11       1.0  0.24143  0.17795  0.73213  1.0000
  H   H188      1.0  0.04780  0.06851  0.50216  1.0000
  H   H189      1.0  0.99456  0.11640  0.58833  1.0000
  H   H190      1.0  0.06591  0.00348  0.57996  1.0000
  H   H191      1.0  0.17414  0.03513  0.66118  1.0000
  H   H192      1.0  0.22289  0.15454  0.73340  1.0000
  H   H193      1.0  0.28994  0.19395  0.61200  1.0000
  C   C125      1.0  0.21584  0.24515  0.74396  1.0000
  C   C126      1.0  0.27673  0.10754  0.74352  1.0000
  H   H194      1.0  0.20063  0.00444  0.61805  1.0000
  H   H195      1.0  0.20085  0.00684  0.64454  1.0000
  H   H196      1.0  0.15726  0.03184  0.49883  1.0000
  C   C127      1.0  0.22640  0.16322  0.74414  1.0000
  C   C128      1.0  0.16487  0.15633  0.74512  1.0000
  N   N12       1.0  0.06975  0.03788  0.49966  1.0000
  C   C129      1.0  0.99611  0.07192  0.62973  1.0000
  C   C130      1.0  0.15535  0.13883  0.74657  1.0000
  S   S51       1.0  0.09313  0.31171  0.88743  1.0000
  H   H197      1.0  0.21768  0.19493  0.80534  1.0000
  C   C131      1.0  0.01675  0.28737  0.92558  1.0000
  C   C132      1.0  0.16035  0.16627  0.76276  1.0000
  H   H198      1.0  0.20826  0.12872  0.79098  1.0000
  C   C133      1.0  0.25863  0.20482  0.83306  1.0000
  Fe  Fe24      1.0  0.29610  0.13928  0.81171  1.0000
  H   H199      1.0  0.23017  0.13339  0.81459  1.0000
  H   H200      1.0  0.14530  0.27574  0.86002  1.0000
  C   C134      1.0  0.19361  0.13522  0.80221  1.0000
  S   S52       1.0  0.28973  0.17002  0.82361  1.0000
  S   S53       1.0  0.10086  0.27749  0.80423  1.0000
  Fe  Fe25      1.0  0.28089  0.10954  0.79337  1.0000
  S   S54       1.0  0.31255  0.08560  0.79080  1.0000
  H   H201      1.0  0.17240  0.15656  0.83390  1.0000
  S   S55       1.0  0.27890  0.11166  0.82722  1.0000
  H   H202      1.0  0.21093  0.15757  0.82012  1.0000
  C   C135      1.0  0.20273  0.10572  0.83167  1.0000
  H   H203      1.0  0.14262  0.29479  0.81225  1.0000
  H   H204      1.0  0.18022  0.12818  0.80111  1.0000
  H   H205      1.0  0.02722  0.27086  0.92556  1.0000
  H   H206      1.0  0.17875  0.13428  0.85578  1.0000
  H   H207      1.0  0.25323  0.17639  0.76017  1.0000
  Fe  Fe26      1.0  0.16642  0.23762  0.76199  1.0000
  C   C136      1.0  0.17698  0.13844  0.83875  1.0000
  H   H208      1.0  0.03310  0.32986  0.83663  1.0000
  C   C137      1.0  0.24938  0.18339  0.81313  1.0000
  H   H209      1.0  0.26998  0.20768  0.84085  1.0000
  H   H210      1.0  0.16743  0.17995  0.76155  1.0000
  C   C138      1.0  0.15946  0.27335  0.84664  1.0000
  N   N13       1.0  0.19705  0.12971  0.82448  1.0000
  C   C139      1.0  0.16577  0.30851  0.84601  1.0000
  C   C140      1.0  0.09672  0.28639  0.82818  1.0000
  H   H211      1.0  0.00148  0.26879  0.79403  1.0000
  C   C141      1.0  0.00750  0.28867  0.89208  1.0000
  C   C142      1.0  0.23836  0.21877  0.83326  1.0000
  S   S56       1.0  0.19810  0.23300  0.82470  1.0000
  H   H212      1.0  0.03844  0.31270  0.87524  1.0000
  C   C143      1.0  0.22350  0.21523  0.82337  1.0000
  N   N14       1.0  0.16365  0.29444  0.83268  1.0000
  H   H213      1.0  0.07672  0.33261  0.84822  1.0000
  C   C144      1.0  0.25620  0.10671  0.75659  1.0000
  S   S57       1.0  0.29505  0.13934  0.77806  1.0000
  C   C145      1.0  0.14546  0.30534  0.82165  1.0000
  C   C146      1.0  0.08601  0.30790  0.82935  1.0000
  C   C147      1.0  0.14675  0.15830  0.78200  1.0000
  H   H214      1.0  0.18771  0.30607  0.80577  1.0000
  H   H215      1.0  0.18972  0.09784  0.83115  1.0000
  H   H216      1.0  0.14841  0.32090  0.81034  1.0000
  H   H217      1.0  0.32672  0.16815  0.78784  1.0000
  H   H218      1.0  0.31003  0.20489  0.79538  1.0000
  H   H219      1.0  0.11244  0.25576  0.84527  1.0000
  H   H220      1.0  0.22297  0.10691  0.75749  1.0000
  H   H221      1.0  0.17925  0.30071  0.85469  1.0000
  C   C148      1.0  0.18386  0.29055  0.81651  1.0000
  H   H222      1.0  0.20505  0.24321  0.75949  1.0000
  S   S58       1.0  0.18244  0.20796  0.78304  1.0000
  H   H223      1.0  0.01773  0.27223  0.89104  1.0000
  H   H224      1.0  0.02316  0.29563  0.93463  1.0000
  C   C149      1.0  0.14182  0.13100  0.76582  1.0000
  Fe  Fe27      1.0  0.12985  0.25047  0.79836  1.0000
  S   S59       1.0  0.14260  0.22195  0.82285  1.0000
  H   H225      1.0  0.25363  0.16965  0.80546  1.0000
  S   S60       1.0  0.32031  0.06309  0.85153  1.0000
  H   H226      1.0  0.04930  0.28669  0.89047  1.0000
  H   H227      1.0  0.28806  0.21099  0.75946  1.0000
  H   H228      1.0  0.20551  0.10090  0.84840  1.0000
  C   C150      1.0  0.26411  0.18702  0.82324  1.0000
  Fe  Fe28      1.0  0.32675  0.11574  0.77841  1.0000
  C   C151      1.0  0.22907  0.19764  0.81307  1.0000
  H   H229      1.0  0.07972  0.31866  0.81573  1.0000
  S   S61       1.0  0.16195  0.25994  0.78400  1.0000
  Fe  Fe29      1.0  0.14869  0.20289  0.79727  1.0000
  C   C152      1.0  0.21480  0.13948  0.82528  1.0000
  Fe  Fe30      1.0  0.31205  0.09013  0.82351  1.0000
  C   C153      1.0  0.08424  0.31580  0.84774  1.0000
  H   H230      1.0  0.13443  0.11749  0.76703  1.0000
  H   H231      1.0  0.21797  0.13547  0.84183  1.0000
  H   H232      1.0  0.23417  0.23231  0.84122  1.0000
  Fe  Fe31      1.0  0.17517  0.22968  0.80633  1.0000
  C   C154      1.0  0.13774  0.14053  0.78354  1.0000
  H   H233      1.0  0.23099  0.19864  0.75501  1.0000
  H   H234      1.0  0.16306  0.13192  0.83805  1.0000
  C   C155      1.0  0.10459  0.27248  0.84588  1.0000
  H   H235      1.0  0.17354  0.26391  0.85397  1.0000
  S   S62       1.0  0.25144  0.10664  0.78399  1.0000
  N   N15       1.0  0.01617  0.30017  0.90345  1.0000
  H   H236      1.0  0.12730  0.13426  0.79838  1.0000
  H   H237      1.0  0.18931  0.15319  0.79625  1.0000
  H   H238      1.0  0.00028  0.28510  0.93476  1.0000
  H   H239      1.0  0.13017  0.30931  0.83337  1.0000
  H   H240      1.0  0.30004  0.18556  0.75120  1.0000
  H   H241      1.0  0.30829  0.22835  0.77360  1.0000
  S   S63       1.0  0.13311  0.23064  0.77407  1.0000
  S   S64       1.0  0.14157  0.16949  0.80473  1.0000
  H   H242      1.0  0.10845  0.26936  0.87810  1.0000
  C   C156      1.0  0.31823  0.21190  0.77881  1.0000
  C   C157      1.0  0.09278  0.30202  0.86514  1.0000
  C   C158      1.0  0.10227  0.28019  0.86445  1.0000
  H   H243      1.0  0.00673  0.29797  0.87536  1.0000
  H   H244      1.0  0.99963  0.29480  0.79975  1.0000
  H   H245      1.0  0.21782  0.09863  0.82120  1.0000
  H   H246      1.0  0.24382  0.24058  0.75732  1.0000
  H   H247      1.0  0.19787  0.28191  0.82427  1.0000
  C   C159      1.0  0.00204  0.32189  0.90431  1.0000
  N   N16       1.0  0.32065  0.19763  0.76388  1.0000
  H   H248      1.0  0.16893  0.32459  0.83604  1.0000
  H   H249      1.0  0.29026  0.10652  0.75055  1.0000
  C   C160      1.0  0.03829  0.30273  0.89185  1.0000
  H   H250      1.0  0.04561  0.31086  0.90020  1.0000
  H   H251      1.0  0.00821  0.33120  0.91248  1.0000
  H   H252      1.0  0.18269  0.28005  0.80619  1.0000
  H   H253      1.0  0.00087  0.33186  0.88790  1.0000
  H   H254      1.0  0.15621  0.26287  0.83743  1.0000
  H   H255      1.0  0.21069  0.17234  0.75184  1.0000
  C   C161      1.0  0.29906  0.19494  0.76338  1.0000
  H   H256      1.0  0.29117  0.18627  0.77926  1.0000
  H   H257      1.0  0.15068  0.31177  0.85835  1.0000
  H   H258      1.0  0.23330  0.15055  0.75705  1.0000
  C   C162      1.0  0.24600  0.18861  0.74718  1.0000
  C   C163      1.0  0.23883  0.10778  0.74743  1.0000
  H   H259      1.0  0.99511  0.29347  0.77444  1.0000
  Fe  Fe32      1.0  0.16174  0.62821  0.18994  1.0000
  H   H260      1.0  0.18768  0.60133  0.12998  1.0000
  S   S65       1.0  0.15113  0.60086  0.18300  1.0000
  Fe  Fe33      1.0  0.18092  0.63961  0.22206  1.0000
  H   H261      1.0  0.27441  0.66049  0.21898  1.0000
  H   H262      1.0  0.07468  0.49162  0.01974  1.0000
  S   S66       1.0  0.02530  0.41115  0.07422  1.0000
  S   S67       1.0  0.14710  0.63924  0.22097  1.0000
  S   S68       1.0  0.19578  0.62506  0.19308  1.0000
  S   S69       1.0  0.07864  0.42206  0.03504  1.0000
  Fe  Fe34      1.0  0.09535  0.54759  0.09736  1.0000
  S   S70       1.0  0.08204  0.55536  0.06764  1.0000
  S   S71       1.0  0.09465  0.51317  0.11576  1.0000
  Fe  Fe35      1.0  0.10454  0.59296  0.08904  1.0000
  S   S72       1.0  0.09192  0.60422  0.05835  1.0000
  S   S73       1.0  0.11707  0.61838  0.09734  1.0000
  Fe  Fe36      1.0  0.06503  0.58692  0.07712  1.0000
  S   S74       1.0  0.02935  0.59843  0.07775  1.0000
  Fe  Fe37      1.0  0.11025  0.57148  0.05193  1.0000
  H   H263      1.0  0.19249  0.64500  0.13664  1.0000
  S   S75       1.0  0.07606  0.57811  0.10841  1.0000
  S   S76       1.0  0.12504  0.56141  0.08104  1.0000
  C   C164      1.0  0.02131  0.58994  0.05845  1.0000
  H   H264      1.0  0.23232  0.62500  0.09111  1.0000
  H   H265      1.0  0.05289  0.55166  0.00639  1.0000
  H   H266      1.0  0.04505  0.54797  0.04629  1.0000
  C   C165      1.0  0.02486  0.58758  0.02152  1.0000
  C   C166      1.0  0.03191  0.59398  0.03684  1.0000
  C   C167      1.0  0.02129  0.36713  0.04267  1.0000
  H   H267      1.0  0.99922  0.58350  0.11878  1.0000
  C   C168      1.0  0.99903  0.36830  0.04639  1.0000
  H   H268      1.0  0.04533  0.60231  0.03191  1.0000
  C   C169      1.0  0.10713  0.47355  0.06460  1.0000
  C   C170      1.0  0.11896  0.48962  0.06161  1.0000
  C   C171      1.0  0.11518  0.50172  0.07739  1.0000
  C   C172      1.0  0.09994  0.49741  0.09647  1.0000
  C   C173      1.0  0.08841  0.48101  0.09969  1.0000
  C   C174      1.0  0.09184  0.46925  0.08365  1.0000
  H   H269      1.0  0.13071  0.49316  0.04685  1.0000
  H   H270      1.0  0.12405  0.51447  0.07476  1.0000
  H   H271      1.0  0.07637  0.47790  0.11430  1.0000
  H   H272      1.0  0.08228  0.45725  0.08587  1.0000
  C   C175      1.0  0.14260  0.60521  0.15873  1.0000
  C   C176      1.0  0.13300  0.58974  0.15543  1.0000
  C   C177      1.0  0.12545  0.59330  0.13641  1.0000
  C   C178      1.0  0.12759  0.61234  0.12064  1.0000
  C   C179      1.0  0.13761  0.62755  0.12377  1.0000
  C   C180      1.0  0.14502  0.62404  0.14278  1.0000
  H   H273      1.0  0.13119  0.57505  0.16768  1.0000
  H   H274      1.0  0.11779  0.58146  0.13404  1.0000
  H   H275      1.0  0.13932  0.64228  0.11154  1.0000
  H   H276      1.0  0.15253  0.63593  0.14505  1.0000
  C   C181      1.0  0.18745  0.34317  0.11324  1.0000
  S   S77       1.0  0.00015  0.56706  0.00896  1.0000
  H   H277      1.0  0.10356  0.62494  0.18878  1.0000
  H   H278      1.0  0.99739  0.58920  0.14449  1.0000
  S   S78       1.0  0.11114  0.45966  0.04398  1.0000
  Fe  Fe38      1.0  0.10226  0.39026  0.03493  1.0000
  H   H279      1.0  0.26724  0.61148  0.21753  1.0000
  H   H280      1.0  0.22763  0.61881  0.21972  1.0000
  H   H281      1.0  0.22519  0.62205  0.14961  1.0000
  C   C182      1.0  0.23372  0.61954  0.23317  1.0000
  H   H282      1.0  0.09530  0.51941  0.01604  1.0000
  H   H283      1.0  0.24283  0.60228  0.13502  1.0000
  H   H284      1.0  0.21125  0.58545  0.13996  1.0000
  H   H285      1.0  0.03234  0.35598  0.03321  1.0000
  C   C183      1.0  0.20098  0.60212  0.13722  1.0000
  H   H286      1.0  0.04659  0.49503  0.03304  1.0000
  C   C184      1.0  0.08261  0.52615  0.02883  1.0000
  S   S79       1.0  0.12412  0.39788  0.05174  1.0000
  C   C185      1.0  0.05435  0.53372  0.00906  1.0000
  Fe  Fe39      1.0  0.10363  0.38252  0.08204  1.0000
  C   C186      1.0  0.22264  0.61299  0.10196  1.0000
  Fe  Fe40      1.0  0.09900  0.42838  0.05426  1.0000
  N   N17       1.0  0.13415  0.42036  0.11629  1.0000
  C   C187      1.0  0.11149  0.42101  0.12806  1.0000
  C   C188      1.0  0.13629  0.41692  0.09452  1.0000
  C   C189      1.0  0.14850  0.40220  0.12803  1.0000
  C   C190      1.0  0.14029  0.44124  0.11455  1.0000
  H   H287      1.0  0.10636  0.40548  0.12948  1.0000
  H   H288      1.0  0.10020  0.43448  0.11968  1.0000
  H   H289      1.0  0.10923  0.42352  0.14461  1.0000
  H   H290      1.0  0.13084  0.40183  0.09530  1.0000
  H   H291      1.0  0.15332  0.41540  0.08539  1.0000
  H   H292      1.0  0.14368  0.38636  0.13039  1.0000
  H   H293      1.0  0.14790  0.40464  0.14426  1.0000
  H   H294      1.0  0.16564  0.40043  0.11915  1.0000
  H   H295      1.0  0.13840  0.44469  0.13066  1.0000
  H   H296      1.0  0.13006  0.45524  0.10544  1.0000
  H   H297      1.0  0.15739  0.44115  0.10600  1.0000
  N   N18       1.0  0.06119  0.52220  0.02954  1.0000
  H   H298      1.0  0.06532  0.63578  0.18548  1.0000
  H   H299      1.0  0.14347  0.43587  0.00519  1.0000
  C   C191      1.0  0.99598  0.59686  0.12755  1.0000
  H   H300      1.0  0.04252  0.44629  0.00734  1.0000
  H   H301      1.0  0.01676  0.41340  0.00705  1.0000
  N   N19       1.0  0.21364  0.61845  0.12333  1.0000
  H   H302      1.0  0.07124  0.38178  0.01798  1.0000
  C   C192      1.0  0.15026  0.34049  0.12999  1.0000
  H   H303      1.0  0.18578  0.64112  0.11336  1.0000
  S   S80       1.0  0.08385  0.37189  0.06502  1.0000
  H   H304      1.0  0.24089  0.63107  0.12365  1.0000
  C   C193      1.0  0.09524  0.58382  0.00318  1.0000
  C   C194      1.0  0.99722  0.57242  0.04948  1.0000
  H   H305      1.0  0.05326  0.66412  0.17744  1.0000
  H   H306      1.0  0.99811  0.45598  0.08430  1.0000
  H   H307      1.0  0.00921  0.60614  0.12017  1.0000
  C   C195      1.0  0.18066  0.35594  0.09446  1.0000
  H   H308      1.0  0.15370  0.37051  0.07878  1.0000
  C   C196      1.0  0.02934  0.38013  0.05138  1.0000
  H   H309      1.0  0.12626  0.43066  0.08494  1.0000
  C   C197      1.0  0.11415  0.56776  0.00235  1.0000
  C   C198      1.0  0.15872  0.36086  0.09339  1.0000
  C   C199      1.0  0.00390  0.57924  0.06472  1.0000
  H   H310      1.0  0.08777  0.51866  0.04438  1.0000
  N   N20       1.0  0.08738  0.65763  0.17646  1.0000
  H   H311      1.0  0.20852  0.65318  0.11070  1.0000
  H   H312      1.0  0.02875  0.52896  0.04800  1.0000
  H   H313      1.0  0.25453  0.65709  0.19337  1.0000
  C   C200      1.0  0.04542  0.53045  0.04760  1.0000
  C   C201      1.0  0.00768  0.57659  0.02787  1.0000
  S   S81       1.0  0.13053  0.56345  0.02074  1.0000
  H   H314      1.0  0.09121  0.59424  0.01460  1.0000
  H   H315      1.0  0.03280  0.59094  0.00477  1.0000
  H   H316      1.0  0.11990  0.42647  0.00562  1.0000
  H   H317      1.0  0.04314  0.38011  0.99959  1.0000
  H   H318      1.0  0.23338  0.59651  0.10322  1.0000
  H   H319      1.0  0.06728  0.48946  0.04822  1.0000
  C   C202      1.0  0.25611  0.61530  0.23198  1.0000
  C   C203      1.0  0.10320  0.64223  0.18864  1.0000
  H   H320      1.0  0.08231  0.54391  0.02574  1.0000
  H   H321      1.0  0.10944  0.65995  0.14583  1.0000
  H   H322      1.0  0.00678  0.43623  0.01981  1.0000
  C   C204      1.0  0.06244  0.49853  0.03274  1.0000
  H   H323      1.0  0.04646  0.37897  0.04864  1.0000
  C   C205      1.0  0.09352  0.65541  0.15381  1.0000
  Fe  Fe41      1.0  0.06177  0.40461  0.06659  1.0000
  S   S82       1.0  0.11683  0.38069  0.00322  1.0000
  H   H324      1.0  0.19342  0.60607  0.15330  1.0000
  C   C206      1.0  0.07549  0.38062  0.00135  1.0000
  H   H325      1.0  0.20956  0.61303  0.09399  1.0000
  H   H326      1.0  0.24939  0.66584  0.23777  1.0000
  H   H327      1.0  0.04969  0.52153  0.06338  1.0000
  S   S83       1.0  0.08007  0.41389  0.08612  1.0000
  S   S84       1.0  0.11563  0.36068  0.11129  1.0000
  C   C207      1.0  0.23146  0.61838  0.13329  1.0000
  S   S85       1.0  0.15885  0.66211  0.16958  1.0000
  C   C208      1.0  0.01523  0.39439  0.06380  1.0000
  C   C209      1.0  0.14343  0.35336  0.11126  1.0000
  H   H328      1.0  0.09485  0.63831  0.15254  1.0000
  H   H329      1.0  0.11984  0.64504  0.18143  1.0000
  H   H330      1.0  0.22916  0.66297  0.21170  1.0000
  C   C210      1.0  0.19944  0.64036  0.12083  1.0000
  H   H331      1.0  0.06067  0.65397  0.20326  1.0000
  C   C211      1.0  0.06567  0.65267  0.18609  1.0000
  H   H332      1.0  0.19244  0.36187  0.08065  1.0000
  C   C212      1.0  0.00932  0.43115  0.00433  1.0000
  H   H333      1.0  0.99587  0.57572  0.08144  1.0000
  Fe  Fe42      1.0  0.19179  0.65989  0.17501  1.0000
  H   H334      1.0  0.03830  0.53106  0.00886  1.0000
  H   H335      1.0  0.31831  0.66771  0.23301  1.0000
  H   H336      1.0  0.09958  0.64397  0.20563  1.0000
  H   H337      1.0  0.08152  0.66615  0.14427  1.0000
  S   S86       1.0  0.21948  0.66889  0.14876  1.0000
  S   S87       1.0  0.21506  0.33681  0.11395  1.0000
  H   H338      1.0  0.14607  0.41049  0.99756  1.0000
  H   H339      1.0  0.00961  0.47351  0.99870  1.0000
  C   C213      1.0  0.15009  0.65673  0.28873  1.0000
  C   C214      1.0  0.24973  0.62112  0.26803  1.0000
  H   H340      1.0  0.29828  0.57472  0.28901  1.0000
  Fe  Fe43      1.0  0.28214  0.64728  0.31041  1.0000
  S   S88       1.0  0.29496  0.61269  0.30637  1.0000
  S   S89       1.0  0.25216  0.66024  0.33286  1.0000
  C   C215      1.0  0.30783  0.55930  0.28415  1.0000
  H   H341      1.0  0.29908  0.54604  0.29353  1.0000
  Fe  Fe44      1.0  0.29888  0.62733  0.27106  1.0000
  H   H342      1.0  0.31749  0.57613  0.38612  1.0000
  C   C216      1.0  0.22736  0.62512  0.26933  1.0000
  H   H343      1.0  0.21631  0.62881  0.28387  1.0000
  H   H344      1.0  0.13814  0.65365  0.30408  1.0000
  H   H345      1.0  0.16601  0.64620  0.29132  1.0000
  H   H346      1.0  0.25590  0.62147  0.28159  1.0000
  H   H347      1.0  0.24081  0.65090  0.29797  1.0000
  S   S90       1.0  0.28302  0.66116  0.27527  1.0000
  S   S91       1.0  0.19125  0.63007  0.25372  1.0000
  H   H348      1.0  0.14532  0.65103  0.27646  1.0000
  H   H349      1.0  0.30760  0.56156  0.26684  1.0000
  C   C217      1.0  0.23240  0.66724  0.29945  1.0000
  S   S92       1.0  0.31447  0.65361  0.30986  1.0000
  H   H350      1.0  0.32088  0.56739  0.31633  1.0000
  H   H351      1.0  0.32162  0.53869  0.32100  1.0000
  H   H352      1.0  0.32047  0.59687  0.34821  1.0000
  C   C218      1.0  0.21932  0.62449  0.25186  1.0000
  Fe  Fe45      1.0  0.31596  0.66538  0.27442  1.0000
  C   C219      1.0  0.26410  0.61625  0.24937  1.0000
  Fe  Fe46      1.0  0.32758  0.62030  0.30225  1.0000
  S   S93       1.0  0.29202  0.61193  0.24754  1.0000
  H   H353      1.0  0.21595  0.65394  0.73593  1.0000
  H   H354      1.0  0.18203  0.65723  0.72388  1.0000
  H   H355      1.0  0.21915  0.63515  0.67762  1.0000
  C   C220      1.0  0.22581  0.63154  0.69241  1.0000
  S   S94       1.0  0.30284  0.63008  0.66296  1.0000
  S   S95       1.0  0.30849  0.61455  0.72267  1.0000
  N   N21       1.0  0.21420  0.64725  0.70625  1.0000
  C   C221      1.0  0.22409  0.64226  0.72523  1.0000
  H   H356      1.0  0.18324  0.64941  0.69942  1.0000
  Fe  Fe47      1.0  0.30529  0.63980  0.69223  1.0000
  H   H357      1.0  0.22478  0.61447  0.70102  1.0000
  C   C222      1.0  0.27409  0.63899  0.74621  1.0000
  H   H358      1.0  0.18936  0.62892  0.72275  1.0000
  C   C223      1.0  0.19121  0.64558  0.71336  1.0000
  Fe  Fe48      1.0  0.28003  0.66234  0.65725  1.0000
  H   H359      1.0  0.27141  0.64967  0.73117  1.0000
  H   H360      1.0  0.24327  0.63232  0.68690  1.0000
  H   H361      1.0  0.22295  0.62559  0.73508  1.0000
  H   H362      1.0  0.24149  0.64312  0.72038  1.0000
  C   C224      1.0  0.29121  0.62082  0.74650  1.0000
  S   S96       1.0  0.25004  0.66521  0.64567  1.0000
  H   H363      1.0  0.16160  0.60079  0.90596  1.0000
  Fe  Fe49      1.0  0.05687  0.37446  0.92203  1.0000
  S   S97       1.0  0.09137  0.36402  0.90609  1.0000
  S   S98       1.0  0.04497  0.37719  0.95662  1.0000
  Fe  Fe50      1.0  0.04131  0.38433  0.88011  1.0000
  S   S99       1.0  0.07471  0.37571  0.86056  1.0000
  S   S100      1.0  0.01090  0.39557  0.86726  1.0000
  C   C225      1.0  0.30198  0.65675  0.79645  1.0000
  C   C226      1.0  0.29471  0.60719  0.76620  1.0000
  Fe  Fe51      1.0  0.08405  0.39372  0.88048  1.0000
  S   S101      1.0  0.10457  0.41911  0.86955  1.0000
  H   H364      1.0  0.99621  0.36414  0.98261  1.0000
  S   S102      1.0  0.05013  0.40503  0.89728  1.0000
  Fe  Fe52      1.0  0.07636  0.55282  0.93618  1.0000
  S   S103      1.0  0.07395  0.56953  0.90232  1.0000
  S   S104      1.0  0.06759  0.57508  0.95918  1.0000
  Fe  Fe53      1.0  0.08455  0.50755  0.92707  1.0000
  S   S105      1.0  0.08330  0.52059  0.89221  1.0000
  S   S106      1.0  0.08618  0.47187  0.94227  1.0000
  Fe  Fe54      1.0  0.10295  0.54380  0.89348  1.0000
  S   S107      1.0  0.13284  0.55044  0.86862  1.0000
  Fe  Fe55      1.0  0.05476  0.54492  0.90436  1.0000
  S   S108      1.0  0.02374  0.55338  0.89278  1.0000
  S   S109      1.0  0.10677  0.52855  0.92757  1.0000
  S   S110      1.0  0.05451  0.53041  0.93922  1.0000
  H   H365      1.0  0.09118  0.37640  0.94176  1.0000
  H   H366      1.0  0.11908  0.37744  0.96007  1.0000
  H   H367      1.0  0.00859  0.58992  0.91142  1.0000
  C   C227      1.0  0.15586  0.60632  0.84423  1.0000
  C   C228      1.0  0.13722  0.62239  0.84799  1.0000
  H   H368      1.0  0.17144  0.61088  0.83780  1.0000
  H   H369      1.0  0.01003  0.55524  0.93933  1.0000
  C   C229      1.0  0.13429  0.57816  0.85903  1.0000
  C   C230      1.0  0.11565  0.59439  0.86154  1.0000
  C   C231      1.0  0.11712  0.61639  0.85630  1.0000
  C   C232      1.0  0.15438  0.58417  0.84981  1.0000
  H   H370      1.0  0.10005  0.59006  0.86747  1.0000
  H   H371      1.0  0.10263  0.62882  0.85884  1.0000
  H   H372      1.0  0.16887  0.57168  0.84759  1.0000
  C   C233      1.0  0.00692  0.37549  0.85624  1.0000
  H   H373      1.0  0.27362  0.65773  0.83448  1.0000
  C   C234      1.0  0.10518  0.55652  0.97401  1.0000
  C   C235      1.0  0.08616  0.57250  0.97500  1.0000
  Fe  Fe56      1.0  0.16753  0.66189  0.82270  1.0000
  H   H374      1.0  0.28418  0.60124  0.80068  1.0000
  C   C236      1.0  0.12414  0.46184  0.97364  1.0000
  H   H375      1.0  0.10889  0.54571  0.96307  1.0000
  H   H376      1.0  0.01778  0.47991  0.93389  1.0000
  H   H377      1.0  0.02458  0.46538  0.86380  1.0000
  C   C237      1.0  0.10227  0.43199  0.89061  1.0000
  C   C238      1.0  0.10994  0.45127  0.88625  1.0000
  C   C239      1.0  0.10544  0.46334  0.90223  1.0000
  C   C240      1.0  0.09348  0.45603  0.92269  1.0000
  C   C241      1.0  0.08692  0.43609  0.92745  1.0000
  C   C242      1.0  0.09115  0.42421  0.91138  1.0000
  H   H378      1.0  0.11889  0.45719  0.87034  1.0000
  H   H379      1.0  0.11136  0.47825  0.89868  1.0000
  H   H380      1.0  0.07813  0.43001  0.94339  1.0000
  H   H381      1.0  0.08542  0.40922  0.91498  1.0000
  H   H382      1.0  0.29044  0.64568  0.80048  1.0000
  C   C243      1.0  0.12683  0.42792  0.96359  1.0000
  S   S111      1.0  0.13847  0.64977  0.84472  1.0000
  C   C244      1.0  0.11935  0.55435  0.98751  1.0000
  C   C245      1.0  0.02406  0.35918  0.84932  1.0000
  H   H383      1.0  0.30049  0.65684  0.83733  1.0000
  C   C246      1.0  0.01236  0.46747  0.98373  1.0000
  H   H384      1.0  0.03701  0.51018  0.91706  1.0000
  H   H385      1.0  0.08052  0.48845  0.86260  1.0000
  H   H386      1.0  0.00356  0.36856  0.94326  1.0000
  C   C247      1.0  0.28127  0.61175  0.78549  1.0000
  H   H387      1.0  0.14405  0.61116  0.94142  1.0000
  C   C248      1.0  0.06521  0.37800  0.96939  1.0000
  C   C249      1.0  0.08664  0.37745  0.95832  1.0000
  C   C250      1.0  0.99878  0.34279  0.84072  1.0000
  H   H388      1.0  0.13395  0.54182  0.98702  1.0000
  C   C251      1.0  0.01004  0.53191  0.90448  1.0000
  H   H389      1.0  0.13847  0.63739  0.90715  1.0000
  H   H390      1.0  0.11545  0.61276  0.95119  1.0000
  H   H391      1.0  0.10548  0.60062  0.90336  1.0000
  H   H392      1.0  0.10975  0.64024  0.91722  1.0000
  H   H393      1.0  0.03042  0.58326  0.93817  1.0000
  H   H394      1.0  0.13315  0.58686  0.94955  1.0000
  H   H395      1.0  0.14957  0.57704  0.91420  1.0000
  H   H396      1.0  0.12189  0.63304  0.89166  1.0000
  H   H397      1.0  0.14526  0.59665  0.89006  1.0000
  H   H398      1.0  0.09333  0.60705  0.92922  1.0000
  H   H399      1.0  0.30787  0.59311  0.76657  1.0000
  H   H400      1.0  0.11031  0.58079  0.92728  1.0000
  S   S112      1.0  0.19062  0.64757  0.79574  1.0000
  H   H401      1.0  0.03703  0.44555  0.95310  1.0000
  C   C252      1.0  0.10250  0.37814  0.96875  1.0000
  H   H402      1.0  0.12434  0.47141  0.95685  1.0000
  N   N22       1.0  0.05043  0.47898  0.86594  1.0000
  C   C253      1.0  0.04999  0.46775  0.88867  1.0000
  C   C254      1.0  0.04154  0.46663  0.85560  1.0000
  C   C255      1.0  0.07296  0.48008  0.85466  1.0000
  C   C256      1.0  0.03726  0.50134  0.86486  1.0000
  H   H403      1.0  0.05694  0.47628  0.89701  1.0000
  H   H404      1.0  0.05949  0.45076  0.88997  1.0000
  H   H405      1.0  0.03322  0.46672  0.89767  1.0000
  H   H406      1.0  0.04167  0.47452  0.83838  1.0000
  H   H407      1.0  0.05121  0.44965  0.85624  1.0000
  H   H408      1.0  0.04034  0.35900  0.85025  1.0000
  H   H409      1.0  0.07386  0.48908  0.83764  1.0000
  H   H410      1.0  0.08319  0.46347  0.85449  1.0000
  H   H411      1.0  0.01795  0.58421  0.96555  1.0000
  H   H412      1.0  0.10972  0.42738  0.97179  1.0000
  H   H413      1.0  0.04391  0.51119  0.87211  1.0000
  H   H414      1.0  0.02026  0.50120  0.87369  1.0000
  N   N23       1.0  0.12737  0.60706  0.91908  1.0000
  C   C257      1.0  0.12421  0.63045  0.90838  1.0000
  C   C258      1.0  0.10830  0.59852  0.91977  1.0000
  C   C259      1.0  0.13014  0.60438  0.94125  1.0000
  C   C260      1.0  0.14683  0.59483  0.90685  1.0000
  H   H415      1.0  0.03684  0.51020  0.84796  1.0000
  C   C261      1.0  0.02602  0.43676  0.96653  1.0000
  S   S113      1.0  0.04425  0.35470  0.90674  1.0000
  C   C262      1.0  0.26397  0.62970  0.78519  1.0000
  H   H416      1.0  0.99939  0.39153  0.97859  1.0000
  S   S114      1.0  0.24824  0.63565  0.80969  1.0000
  C   C263      1.0  0.05966  0.37969  0.99094  1.0000
  C   C264      1.0  0.01999  0.34283  0.84142  1.0000
  C   C265      1.0  0.08145  0.58641  0.98926  1.0000
  H   H417      1.0  0.24704  0.65726  0.76520  1.0000
  N   N24       1.0  0.13669  0.43930  0.97403  1.0000
  H   H418      1.0  0.05499  0.45078  0.97914  1.0000
  H   H419      1.0  0.16712  0.44835  0.96981  1.0000
  C   C266      1.0  0.00960  0.49508  0.92528  1.0000
  C   C267      1.0  0.26030  0.64330  0.76552  1.0000
  H   H420      1.0  0.03331  0.41905  0.96841  1.0000
  C   C268      1.0  0.02043  0.51233  0.91589  1.0000
  H   H421      1.0  0.99852  0.55596  0.96709  1.0000
  Fe  Fe57      1.0  0.21576  0.65718  0.80689  1.0000
  H   H422      1.0  0.05277  0.42376  0.99421  1.0000
  N   N25       1.0  0.02299  0.44413  0.98667  1.0000
  C   C269      1.0  0.99642  0.56361  0.95029  1.0000
  H   H423      1.0  0.15978  0.44866  0.94525  1.0000
  C   C270      1.0  0.04426  0.44116  0.99208  1.0000
  Fe  Fe58      1.0  0.07833  0.34696  0.88836  1.0000
  H   H424      1.0  0.01037  0.43957  0.96150  1.0000
  H   H425      1.0  0.06620  0.52835  0.99502  1.0000
  H   H426      1.0  0.02230  0.47778  0.97066  1.0000
  H   H427      1.0  0.10690  0.46193  0.98170  1.0000
  H   H428      1.0  0.99622  0.47034  0.97960  1.0000
  H   H429      1.0  0.00551  0.39643  0.93890  1.0000
  C   C271      1.0  0.01587  0.59111  0.94867  1.0000
  H   H430      1.0  0.31704  0.64685  0.80173  1.0000
  C   C272      1.0  0.15919  0.43989  0.96235  1.0000
  H   H431      1.0  0.01605  0.60880  0.94517  1.0000
  H   H432      1.0  0.12687  0.43616  0.94646  1.0000
  H   H433      1.0  0.30588  0.66217  0.77861  1.0000
  H   H434      1.0  0.06698  0.59907  0.98979  1.0000
  N   N26       1.0  0.99578  0.58734  0.94530  1.0000
  H   H435      1.0  0.13560  0.41070  0.96401  1.0000
  C   C273      1.0  0.13661  0.42755  0.99657  1.0000
  H   H436      1.0  0.16904  0.42310  0.96236  1.0000
  C   C274      1.0  0.09694  0.37964  0.99032  1.0000
  H   H437      1.0  0.13068  0.47067  0.98204  1.0000
  C   C275      1.0  0.28650  0.66741  0.83049  1.0000
  S   S115      1.0  0.19313  0.66882  0.83547  1.0000
  H   H438      1.0  0.14704  0.71104  0.22048  1.0000
  S   S116      1.0  0.11530  0.69673  0.20607  1.0000
  C   C276      1.0  0.24136  0.67051  0.19863  1.0000
  C   C277      1.0  0.20261  0.73236  0.15276  1.0000
  C   C278      1.0  0.25116  0.82322  0.22138  1.0000
  H   H439      1.0  0.28966  0.87870  0.12064  1.0000
  S   S117      1.0  0.26932  0.75516  0.17195  1.0000
  H   H440      1.0  0.25407  0.69229  0.13141  1.0000
  S   S118      1.0  0.28042  0.80356  0.19103  1.0000
  C   C279      1.0  0.22215  0.73950  0.14410  1.0000
  S   S119      1.0  0.22321  0.76647  0.14316  1.0000
  Fe  Fe59      1.0  0.25669  0.77014  0.14177  1.0000
  N   N27       1.0  0.24976  0.68576  0.20585  1.0000
  C   C280      1.0  0.30089  0.85114  0.16943  1.0000
  H   H441      1.0  0.25578  0.73035  0.12969  1.0000
  S   S120      1.0  0.28677  0.75713  0.11957  1.0000
  Fe  Fe60      1.0  0.29720  0.78795  0.11822  1.0000
  S   S121      1.0  0.26558  0.80234  0.13757  1.0000
  H   H442      1.0  0.25763  0.70561  0.17413  1.0000
  C   C281      1.0  0.23069  0.82826  0.23440  1.0000
  C   C282      1.0  0.13173  0.72231  0.22290  1.0000
  C   C283      1.0  0.11391  0.71915  0.21691  1.0000
  H   H443      1.0  0.23716  0.71476  0.21867  1.0000
  H   H444      1.0  0.20389  0.79952  0.21775  1.0000
  H   H445      1.0  0.26744  0.68463  0.22959  1.0000
  H   H446      1.0  0.29912  0.83887  0.12299  1.0000
  H   H447      1.0  0.28100  0.83472  0.14874  1.0000
  H   H448      1.0  0.26433  0.82974  0.22255  1.0000
  S   S122      1.0  0.31596  0.70941  0.15992  1.0000
  C   C284      1.0  0.23156  0.70295  0.21302  1.0000
  C   C285      1.0  0.23746  0.80141  0.20544  1.0000
  C   C286      1.0  0.25453  0.80989  0.20683  1.0000
  C   C287      1.0  0.32420  0.72042  0.21444  1.0000
  C   C288      1.0  0.26068  0.67370  0.22385  1.0000
  C   C289      1.0  0.21368  0.81951  0.23335  1.0000
  H   H449      1.0  0.23989  0.79131  0.19402  1.0000
  N   N28       1.0  0.30320  0.85500  0.14588  1.0000
  S   S123      1.0  0.31343  0.77366  0.14633  1.0000
  C   C290      1.0  0.24069  0.72497  0.13648  1.0000
  S   S124      1.0  0.31179  0.80937  0.08759  1.0000
  H   H450      1.0  0.21938  0.69590  0.22656  1.0000
  C   C291      1.0  0.22020  0.69627  0.14622  1.0000
  C   C292      1.0  0.20167  0.71070  0.15402  1.0000
  C   C293      1.0  0.23967  0.70343  0.13734  1.0000
  C   C294      1.0  0.28832  0.87543  0.13836  1.0000
  H   H451      1.0  0.27249  0.70707  0.19281  1.0000
  C   C295      1.0  0.21709  0.80597  0.21894  1.0000
  Fe  Fe61      1.0  0.28116  0.78597  0.16580  1.0000
  H   H452      1.0  0.18823  0.74357  0.15865  1.0000
  H   H453      1.0  0.07706  0.76369  0.23027  1.0000
  Fe  Fe62      1.0  0.30006  0.74423  0.14963  1.0000
  C   C296      1.0  0.26537  0.69589  0.18783  1.0000
  H   H454      1.0  0.08225  0.68262  0.19415  1.0000
  H   H455      1.0  0.18652  0.70533  0.16077  1.0000
  C   C297      1.0  0.09230  0.75214  0.22834  1.0000
  C   C298      1.0  0.31957  0.68314  0.22196  1.0000
  H   H456      1.0  0.27117  0.87450  0.14612  1.0000
  H   H457      1.0  0.22306  0.71240  0.19971  1.0000
  C   C299      1.0  0.09423  0.73405  0.21975  1.0000
  C   C300      1.0  0.29780  0.83660  0.14060  1.0000
  H   H458      1.0  0.28399  0.84991  0.17802  1.0000
  S   S125      1.0  0.17968  0.67437  0.20425  1.0000
  H   H459      1.0  0.27906  0.68342  0.18153  1.0000
  C   C301      1.0  0.12974  0.74041  0.23173  1.0000
  H   H460      1.0  0.30873  0.82089  0.14598  1.0000
  H   H461      1.0  0.31615  0.67215  0.19516  1.0000
  H   H462      1.0  0.14354  0.74298  0.23614  1.0000
  C   C302      1.0  0.31830  0.68566  0.20053  1.0000
  C   C303      1.0  0.26499  0.74701  0.22820  1.0000
  C   C304      1.0  0.10999  0.75539  0.23436  1.0000
  H   H463      1.0  0.10350  0.68428  0.17074  1.0000
  S   S126      1.0  0.16972  0.77486  0.24207  1.0000
  Fe  Fe63      1.0  0.14687  0.67300  0.20089  1.0000
  H   H464      1.0  0.27996  0.73583  0.22199  1.0000
  H   H465      1.0  0.08044  0.73174  0.21511  1.0000
  H   H466      1.0  0.23338  0.67902  0.18483  1.0000
  H   H467      1.0  0.30518  0.86445  0.17411  1.0000
  C   C305      1.0  0.31945  0.70573  0.18617  1.0000
  H   H468      1.0  0.31144  0.83545  0.17568  1.0000
  H   H469      1.0  0.25147  0.74469  0.22231  1.0000
  H   H470      1.0  0.26742  0.76391  0.22066  1.0000
  H   H471      1.0  0.29184  0.88970  0.14213  1.0000
  C   C306      1.0  0.08716  0.68021  0.17731  1.0000
  H   H472      1.0  0.07580  0.69240  0.16790  1.0000
  S   S127      1.0  0.10676  0.77821  0.24529  1.0000
  C   C307      1.0  0.32218  0.72317  0.19319  1.0000
  H   H473      1.0  0.32669  0.73383  0.21970  1.0000
  C   C308      1.0  0.32274  0.70044  0.22888  1.0000
  H   H474      1.0  0.32315  0.73868  0.18216  1.0000
  H   H475      1.0  0.22808  0.83873  0.24552  1.0000
  C   C309      1.0  0.32572  0.85674  0.13513  1.0000
  H   H476      1.0  0.32708  0.84728  0.06131  1.0000
  H   H477      1.0  0.23883  0.77432  0.25281  1.0000
  C   C310      1.0  0.07381  0.96846  0.41285  1.0000
  Fe  Fe64      1.0  0.17590  0.74945  0.27154  1.0000
  H   H478      1.0  0.07258  0.96698  0.48156  1.0000
  S   S128      1.0  0.17959  0.77245  0.28974  1.0000
  Fe  Fe65      1.0  0.06271  0.85711  0.43074  1.0000
  S   S129      1.0  0.07979  0.88018  0.40413  1.0000
  S   S130      1.0  0.08073  0.82962  0.45220  1.0000
  Fe  Fe66      1.0  0.01943  0.87668  0.41861  1.0000
  S   S131      1.0  0.03239  0.90144  0.39081  1.0000
  C   C311      1.0  0.16718  0.68328  0.26095  1.0000
  Fe  Fe67      1.0  0.06028  0.87400  0.38392  1.0000
  S   S132      1.0  0.07699  0.87206  0.34993  1.0000
  Fe  Fe68      1.0  0.05071  0.90558  0.41321  1.0000
  S   S133      1.0  0.04923  0.93999  0.41475  1.0000
  S   S134      1.0  0.04555  0.84856  0.40978  1.0000
  S   S135      1.0  0.03529  0.88309  0.44186  1.0000
  H   H479      1.0  0.05856  0.97961  0.41626  1.0000
  S   S136      1.0  0.19838  0.71851  0.26454  1.0000
  C   C312      1.0  0.16157  0.96843  0.48035  1.0000
  H   H480      1.0  0.00955  0.99045  0.46705  1.0000
  H   H481      1.0  0.13210  0.82059  0.31221  1.0000
  C   C313      1.0  0.07407  0.94745  0.41112  1.0000
  C   C314      1.0  0.21031  0.70172  0.28566  1.0000
  H   H482      1.0  0.00904  0.97124  0.41477  1.0000
  N   N29       1.0  0.04395  0.96148  0.34864  1.0000
  H   H483      1.0  0.03297  0.82946  0.29959  1.0000
  H   H484      1.0  0.06960  0.97700  0.45414  1.0000
  H   H485      1.0  0.15784  0.95659  0.49583  1.0000
  H   H486      1.0  0.18383  0.97995  0.43988  1.0000
  C   C315      1.0  0.09106  0.83808  0.46997  1.0000
  H   H487      1.0  0.16779  0.70084  0.25442  1.0000
  H   H488      1.0  0.16050  0.70381  0.29293  1.0000
  H   H489      1.0  0.04524  0.95187  0.45811  1.0000
  C   C316      1.0  0.23916  0.75658  0.25951  1.0000
  C   C317      1.0  0.08353  0.85908  0.47415  1.0000
  C   C318      1.0  0.05324  0.97766  0.35344  1.0000
  C   C319      1.0  0.11183  0.80384  0.33954  1.0000
  C   C320      1.0  0.09446  0.80632  0.35697  1.0000
  C   C321      1.0  0.08372  0.82722  0.36033  1.0000
  C   C322      1.0  0.09018  0.84574  0.34611  1.0000
  H   H490      1.0  0.08923  0.79203  0.36784  1.0000
  H   H491      1.0  0.07018  0.82899  0.37366  1.0000
  H   H492      1.0  0.03898  0.81231  0.32449  1.0000
  C   C323      1.0  0.07869  0.79185  0.30789  1.0000
  C   C324      1.0  0.22093  0.68046  0.28389  1.0000
  H   H493      1.0  0.06947  0.97887  0.34306  1.0000
  C   C325      1.0  0.02288  0.95989  0.36349  1.0000
  H   H494      1.0  0.12441  0.68932  0.26602  1.0000
  Fe  Fe69      1.0  0.13497  0.77760  0.25878  1.0000
  C   C326      1.0  0.22224  0.69624  0.31895  1.0000
  H   H495      1.0  0.14719  0.68457  0.31373  1.0000
  H   H496      1.0  0.20209  0.72588  0.30496  1.0000
  H   H497      1.0  0.09427  0.91682  0.40521  1.0000
  H   H498      1.0  0.27616  0.70933  0.25608  1.0000
  S   S137      1.0  0.18840  0.82572  0.25022  1.0000
  S   S138      1.0  0.14094  0.75043  0.28688  1.0000
  H   H499      1.0  0.27802  0.76681  0.25217  1.0000
  N   N30       1.0  0.16296  0.95922  0.46169  1.0000
  H   H500      1.0  0.09277  0.99122  0.41192  1.0000
  H   H501      1.0  0.04267  0.99419  0.35082  1.0000
  N   N31       1.0  0.15151  0.68001  0.28161  1.0000
  H   H502      1.0  0.03304  0.99199  0.44590  1.0000
  H   H503      1.0  0.08580  0.88140  0.49210  1.0000
  S   S139      1.0  0.13503  0.80392  0.27482  1.0000
  H   H504      1.0  0.17690  0.97323  0.47970  1.0000
  H   H505      1.0  0.19618  0.94295  0.46067  1.0000
  H   H506      1.0  0.11292  0.80722  0.47697  1.0000
  H   H507      1.0  0.00614  0.86937  0.38618  1.0000
  H   H508      1.0  0.02475  0.95447  0.38050  1.0000
  H   H509      1.0  0.07587  0.78977  0.32565  1.0000
  C   C327      1.0  0.04074  0.96852  0.32624  1.0000
  C   C328      1.0  0.07268  0.83106  0.30252  1.0000
  H   H510      1.0  0.06188  0.93435  0.36810  1.0000
  H   H511      1.0  0.02245  0.95065  0.48054  1.0000
  C   C329      1.0  0.99756  0.85638  0.48647  1.0000
  C   C330      1.0  0.11301  0.96105  0.40525  1.0000
  C   C331      1.0  0.09319  0.97513  0.41018  1.0000
  N   N32       1.0  0.12925  0.81749  0.39929  1.0000
  C   C332      1.0  0.10881  0.80945  0.40623  1.0000
  C   C333      1.0  0.12997  0.83215  0.37777  1.0000
  C   C334      1.0  0.14770  0.79873  0.39828  1.0000
  C   C335      1.0  0.13048  0.82958  0.41488  1.0000
  H   H512      1.0  0.10724  0.79915  0.42283  1.0000
  H   H513      1.0  0.10775  0.79944  0.39540  1.0000
  H   H514      1.0  0.09452  0.82320  0.40633  1.0000
  H   H515      1.0  0.11588  0.84615  0.37770  1.0000
  H   H516      1.0  0.14491  0.83898  0.37220  1.0000
  H   H517      1.0  0.12968  0.82334  0.36555  1.0000
  H   H518      1.0  0.16342  0.80417  0.39309  1.0000
  H   H519      1.0  0.14723  0.78930  0.38660  1.0000
  H   H520      1.0  0.14758  0.78727  0.41424  1.0000
  H   H521      1.0  0.14571  0.83585  0.41027  1.0000
  H   H522      1.0  0.12967  0.81908  0.43137  1.0000
  H   H523      1.0  0.11674  0.84379  0.41605  1.0000
  C   C336      1.0  0.03915  0.95385  0.47505  1.0000
  Fe  Fe70      1.0  0.14366  0.77645  0.30197  1.0000
  H   H524      1.0  0.05246  0.92725  0.34803  1.0000
  H   H525      1.0  0.03746  0.80030  0.30345  1.0000
  H   H526      1.0  0.17682  0.92668  0.47665  1.0000
  C   C337      1.0  0.07069  0.81489  0.27434  1.0000
  S   S140      1.0  0.12507  0.77751  0.33580  1.0000
  C   C338      1.0  0.04288  0.81377  0.30674  1.0000
  H   H527      1.0  0.05510  0.97326  0.37051  1.0000
  C   C339      1.0  0.10745  0.84326  0.32859  1.0000
  C   C340      1.0  0.11839  0.82234  0.32542  1.0000
  H   H528      1.0  0.11260  0.85753  0.31758  1.0000
  N   N33       1.0  0.06623  0.81288  0.29787  1.0000
  H   H529      1.0  0.12858  0.96805  0.46403  1.0000
  C   C341      1.0  0.09387  0.93310  0.40652  1.0000
  S   S141      1.0  0.13710  0.97014  0.40126  1.0000
  C   C342      1.0  0.11337  0.93994  0.40350  1.0000
  H   H530      1.0  0.01822  0.81176  0.46438  1.0000
  H   H531      1.0  0.25649  0.71626  0.27908  1.0000
  C   C343      1.0  0.16804  0.97552  0.44162  1.0000
  H   H532      1.0  0.22068  0.67428  0.27029  1.0000
  H   H533      1.0  0.12869  0.92892  0.39976  1.0000
  C   C344      1.0  0.05892  0.93999  0.35140  1.0000
  N   N34       1.0  0.03969  0.97577  0.47723  1.0000
  C   C345      1.0  0.02652  0.99259  0.46312  1.0000
  H   H534      1.0  0.07114  0.87044  0.46642  1.0000
  H   H535      1.0  0.23511  0.75398  0.27737  1.0000
  H   H536      1.0  0.13802  0.94087  0.47775  1.0000
  C   C346      1.0  0.14206  0.95361  0.46308  1.0000
  H   H537      1.0  0.06364  0.84720  0.29522  1.0000
  C   C347      1.0  0.15876  0.68649  0.29799  1.0000
  C   C348      1.0  0.23377  0.67531  0.31654  1.0000
  H   H538      1.0  0.22593  0.75247  0.25456  1.0000
  H   H539      1.0  0.06959  0.83006  0.32013  1.0000
  H   H540      1.0  0.27484  0.74610  0.27655  1.0000
  H   H541      1.0  0.13061  0.71120  0.27353  1.0000
  H   H542      1.0  0.01521  0.94800  0.36022  1.0000
  C   C349      1.0  0.26017  0.71980  0.26117  1.0000
  H   H543      1.0  0.07445  0.77775  0.30449  1.0000
  H   H544      1.0  0.08814  0.81457  0.26709  1.0000
  C   C350      1.0  0.21039  0.70948  0.30348  1.0000
  H   H545      1.0  0.16868  0.96943  0.42715  1.0000
  H   H546      1.0  0.15564  0.99087  0.44140  1.0000
  H   H547      1.0  0.14217  0.94750  0.44877  1.0000
  H   H548      1.0  0.01137  0.97599  0.36200  1.0000
  H   H549      1.0  0.22326  0.70251  0.33221  1.0000
  H   H550      1.0  0.09637  0.79063  0.30167  1.0000
  H   H551      1.0  0.01302  0.85900  0.48847  1.0000
  H   H552      1.0  0.02936  0.98463  0.32370  1.0000
  H   H553      1.0  0.18382  0.67428  0.26272  1.0000
  H   H554      1.0  0.06138  0.83041  0.26620  1.0000
  C   C351      1.0  0.10712  0.82349  0.48008  1.0000
  H   H555      1.0  0.09023  0.83086  0.29605  1.0000
  C   C352      1.0  0.27747  0.74923  0.25872  1.0000
  H   H556      1.0  0.01008  0.94087  0.44614  1.0000
  H   H557      1.0  0.06651  0.80117  0.27015  1.0000
  N   N35       1.0  0.99938  0.83367  0.48491  1.0000
  Fe  Fe71      1.0  0.17070  0.79817  0.26129  1.0000
  H   H558      1.0  0.03384  0.95657  0.32207  1.0000
  H   H559      1.0  0.14856  0.98336  0.48089  1.0000
  C   C353      1.0  0.01616  0.82886  0.46593  1.0000
  C   C354      1.0  0.18017  0.93933  0.46170  1.0000
  C   C355      1.0  0.13008  0.69351  0.27867  1.0000
  H   H560      1.0  0.18158  0.93204  0.44778  1.0000
  S   S142      1.0  0.32394  0.69750  0.25574  1.0000
  H   H561      1.0  0.03216  0.83115  0.46688  1.0000
  C   C356      1.0  0.06223  0.97898  0.47090  1.0000
  H   H562      1.0  0.99923  0.93595  0.41479  1.0000
  H   H563      1.0  0.05626  0.97015  0.31456  1.0000
  H   H564      1.0  0.01182  0.83972  0.45084  1.0000
  C   C357      1.0  0.09185  0.86530  0.48871  1.0000
  H   H565      1.0  0.04916  0.94079  0.48521  1.0000
  H   H566      1.0  0.11768  0.69132  0.29381  1.0000
  H   H567      1.0  0.07494  0.94062  0.34034  1.0000
  N   N36       1.0  0.26042  0.74316  0.25192  1.0000
  H   H568      1.0  0.24777  0.71455  0.25606  1.0000
  H   H569      1.0  0.29375  0.73960  0.25292  1.0000
  H   H570      1.0  0.17486  0.67649  0.30062  1.0000
  H   H571      1.0  0.06303  0.99564  0.47162  1.0000
  C   C358      1.0  0.11580  0.82990  0.49417  1.0000
  H   H572      1.0  0.16282  0.67733  0.24866  1.0000
  Fe  Fe72      1.0  0.18371  0.80381  0.67892  1.0000
  S   S143      1.0  0.20009  0.83247  0.66660  1.0000
  S   S144      1.0  0.16723  0.79505  0.71357  1.0000
  Fe  Fe73      1.0  0.20203  0.78680  0.63801  1.0000
  S   S145      1.0  0.22067  0.81331  0.62248  1.0000
  S   S146      1.0  0.20206  0.76304  0.61886  1.0000
  Fe  Fe74      1.0  0.22879  0.80801  0.65466  1.0000
  S   S147      1.0  0.26220  0.80411  0.66007  1.0000
  Fe  Fe75      1.0  0.19032  0.83527  0.63570  1.0000
  S   S148      1.0  0.18112  0.86730  0.61334  1.0000
  S   S149      1.0  0.21312  0.77920  0.66898  1.0000
  S   S150      1.0  0.17087  0.80899  0.64906  1.0000
  H   H573      1.0  0.29453  0.79655  0.68553  1.0000
  H   H574      1.0  0.27414  0.70826  0.72215  1.0000
  Fe  Fe76      1.0  0.08380  0.90442  0.56972  1.0000
  S   S151      1.0  0.06637  0.93683  0.55396  1.0000
  S   S152      1.0  0.08377  0.89542  0.60506  1.0000
  Fe  Fe77      1.0  0.05532  0.91743  0.53689  1.0000
  S   S153      1.0  0.02116  0.92767  0.53174  1.0000
  Fe  Fe78      1.0  0.09590  0.93559  0.52760  1.0000
  S   S154      1.0  0.10866  0.96639  0.51211  1.0000
  S   S155      1.0  0.07001  0.88496  0.55523  1.0000
  S   S156      1.0  0.11435  0.90446  0.54452  1.0000
  H   H575      1.0  0.01446  0.97364  0.50569  1.0000
  H   H576      1.0  0.29465  0.78803  0.62238  1.0000
  C   C359      1.0  0.28539  0.78357  0.61276  1.0000
  C   C360      1.0  0.25612  0.80010  0.73146  1.0000
  C   C361      1.0  0.12138  0.97341  0.52903  1.0000
  C   C362      1.0  0.12634  0.95864  0.54771  1.0000
  C   C363      1.0  0.13513  0.96498  0.56186  1.0000
  C   C364      1.0  0.31295  0.73867  0.70264  1.0000
  H   H577      1.0  0.10481  0.98092  0.60112  1.0000
  C   C365      1.0  0.13817  0.98639  0.55772  1.0000
  H   H578      1.0  0.12327  0.94241  0.55138  1.0000
  H   H579      1.0  0.13880  0.95355  0.57638  1.0000
  C   C366      1.0  0.12600  0.99426  0.52414  1.0000
  H   H580      1.0  0.08953  0.97273  0.62772  1.0000
  C   C367      1.0  0.00784  0.90616  0.53568  1.0000
  C   C368      1.0  0.01914  0.88451  0.53753  1.0000
  H   H581      1.0  0.27848  0.75838  0.58990  1.0000
  H   H582      1.0  0.22602  0.70981  0.72534  1.0000
  C   C369      1.0  0.05239  0.97524  0.61584  1.0000
  S   S157      1.0  0.30549  0.68091  0.63748  1.0000
  H   H583      1.0  0.03641  0.88068  0.53642  1.0000
  C   C370      1.0  0.21576  0.66963  0.69389  1.0000
  H   H584      1.0  0.10031  0.94796  0.59172  1.0000
  C   C371      1.0  0.10810  0.85075  0.49864  1.0000
  C   C372      1.0  0.15355  0.87677  0.61328  1.0000
  C   C373      1.0  0.13787  0.86668  0.62866  1.0000
  C   C374      1.0  0.11612  0.87318  0.62677  1.0000
  C   C375      1.0  0.11017  0.88958  0.60940  1.0000
  C   C376      1.0  0.12571  0.90026  0.59467  1.0000
  C   C377      1.0  0.14733  0.89399  0.59668  1.0000
  H   H585      1.0  0.14255  0.85365  0.64177  1.0000
  H   H586      1.0  0.10407  0.86498  0.63831  1.0000
  H   H587      1.0  0.12112  0.91330  0.58165  1.0000
  H   H588      1.0  0.15939  0.90204  0.58496  1.0000
  C   C378      1.0  0.17001  0.76658  0.72137  1.0000
  C   C379      1.0  0.17408  0.75388  0.70606  1.0000
  S   S158      1.0  0.11917  0.85822  0.51657  1.0000
  H   H589      1.0  0.17398  0.76169  0.68938  1.0000
  N   N37       1.0  0.24509  0.73309  0.72308  1.0000
  C   C380      1.0  0.16938  0.75634  0.74298  1.0000
  C   C381      1.0  0.22891  0.73034  0.64180  1.0000
  H   H590      1.0  0.20127  0.72391  0.60759  1.0000
  H   H591      1.0  0.24627  0.71355  0.70097  1.0000
  N   N38       1.0  0.28372  0.76036  0.62015  1.0000
  H   H592      1.0  0.23120  0.74276  0.64853  1.0000
  H   H593      1.0  0.31750  0.75387  0.72599  1.0000
  H   H594      1.0  0.01682  0.85092  0.54246  1.0000
  H   H595      1.0  0.29357  0.78736  0.59555  1.0000
  C   C382      1.0  0.26016  0.80298  0.68738  1.0000
  C   C383      1.0  0.27868  0.79868  0.69594  1.0000
  S   S159      1.0  0.08345  0.91913  0.50885  1.0000
  H   H596      1.0  0.26420  0.75776  0.71326  1.0000
  H   H597      1.0  0.04482  0.99255  0.61661  1.0000
  C   C384      1.0  0.21197  0.71969  0.61877  1.0000
  C   C385      1.0  0.27285  0.75627  0.64304  1.0000
  H   H598      1.0  0.05266  0.96585  0.63262  1.0000
  H   H599      1.0  0.18092  0.72129  0.70050  1.0000
  C   C386      1.0  0.08374  0.95011  0.60181  1.0000
  H   H600      1.0  0.25102  0.70446  0.65817  1.0000
  C   C387      1.0  0.00805  0.86767  0.54076  1.0000
  C   C388      1.0  0.23684  0.69249  0.63869  1.0000
  H   H601      1.0  0.28202  0.76008  0.65317  1.0000
  H   H602      1.0  0.02097  0.82060  0.50699  1.0000
  C   C389      1.0  0.22257  0.69799  0.62470  1.0000
  H   H603      1.0  0.24380  0.76217  0.69806  1.0000
  H   H604      1.0  0.22545  0.80815  0.69479  1.0000
  H   H605      1.0  0.22191  0.80699  0.73288  1.0000
  H   H606      1.0  0.26915  0.79456  0.61465  1.0000
  H   H607      1.0  0.08960  0.98529  0.56956  1.0000
  C   C390      1.0  0.25569  0.74940  0.70631  1.0000
  H   H608      1.0  0.12830  0.81857  0.50183  1.0000
  C   C391      1.0  0.07324  0.98596  0.58012  1.0000
  C   C392      1.0  0.13387  0.00087  0.53871  1.0000
  C   C393      1.0  0.21508  0.73591  0.62729  1.0000
  H   H609      1.0  0.27133  0.73892  0.64926  1.0000
  H   H610      1.0  0.26966  0.73768  0.61237  1.0000
  N   N39       1.0  0.07438  0.97332  0.60222  1.0000
  H   H611      1.0  0.30383  0.75354  0.69445  1.0000
  H   H612      1.0  0.25418  0.76510  0.60929  1.0000
  N   N40       1.0  0.14410  0.83266  0.57536  1.0000
  C   C394      1.0  0.15315  0.82282  0.59496  1.0000
  C   C395      1.0  0.15470  0.85086  0.56236  1.0000
  C   C396      1.0  0.12058  0.84105  0.58145  1.0000
  C   C397      1.0  0.14796  0.81597  0.56259  1.0000
  H   H613      1.0  0.14535  0.80921  0.60538  1.0000
  H   H614      1.0  0.15082  0.83506  0.60479  1.0000
  H   H615      1.0  0.17085  0.81614  0.59099  1.0000
  H   H616      1.0  0.14842  0.85849  0.54732  1.0000
  H   H617      1.0  0.15184  0.86387  0.57145  1.0000
  H   H618      1.0  0.17252  0.84525  0.55774  1.0000
  H   H619      1.0  0.11705  0.85379  0.59100  1.0000
  H   H620      1.0  0.11198  0.82785  0.59138  1.0000
  H   H621      1.0  0.11330  0.84857  0.56699  1.0000
  H   H622      1.0  0.14130  0.82289  0.54768  1.0000
  H   H623      1.0  0.14016  0.80201  0.57193  1.0000
  H   H624      1.0  0.16555  0.80933  0.55764  1.0000
  C   C398      1.0  0.23978  0.80551  0.70096  1.0000
  C   C399      1.0  0.23441  0.72209  0.71308  1.0000
  C   C400      1.0  0.32077  0.73888  0.72045  1.0000
  H   H625      1.0  0.08489  0.93999  0.61819  1.0000
  C   C401      1.0  0.22877  0.74425  0.73897  1.0000
  H   H626      1.0  0.08142  0.99942  0.61180  1.0000
  C   C402      1.0  0.17789  0.73101  0.71237  1.0000
  H   H627      1.0  0.06337  0.97960  0.57271  1.0000
  Fe  Fe79      1.0  0.30754  0.68612  0.66907  1.0000
  H   H628      1.0  0.21999  0.68551  0.61811  1.0000
  C   C403      1.0  0.24009  0.70868  0.64724  1.0000
  H   H629      1.0  0.04159  0.96890  0.60951  1.0000
  H   H630      1.0  0.29095  0.79365  0.72465  1.0000
  C   C404      1.0  0.23777  0.80445  0.72278  1.0000
  Fe  Fe80      1.0  0.09904  0.88791  0.52845  1.0000
  C   C405      1.0  0.27098  0.75517  0.60733  1.0000
  H   H631      1.0  0.26783  0.74178  0.69380  1.0000
  H   H632      1.0  0.31547  0.74978  0.62742  1.0000
  S   S160      1.0  0.27981  0.67036  0.68824  1.0000
  C   C406      1.0  0.08813  0.98196  0.61113  1.0000
  H   H633      1.0  0.07377  0.94299  0.59525  1.0000
  H   H634      1.0  0.25643  0.76671  0.64553  1.0000
  C   C407      1.0  0.27667  0.79697  0.71808  1.0000
  S   S161      1.0  0.30690  0.71943  0.67316  1.0000
  H   H635      1.0  0.30491  0.72880  0.62333  1.0000
  H   H636      1.0  0.22203  0.73402  0.70470  1.0000
  C   C408      1.0  0.17799  0.72082  0.73395  1.0000
  C   C409      1.0  0.30561  0.74641  0.61766  1.0000
  S   S162      1.0  0.14548  0.99562  0.57707  1.0000
  H   H637      1.0  0.04114  0.96607  0.51078  1.0000
  C   C410      1.0  0.03083  0.97764  0.49985  1.0000
  C   C411      1.0  0.31707  0.71936  0.69532  1.0000
  C   C412      1.0  0.00548  0.81851  0.50453  1.0000
  H   H638      1.0  0.31442  0.74898  0.60060  1.0000
  H   H639      1.0  0.16260  0.00250  0.65705  1.0000
  H   H640      1.0  0.20672  0.68206  0.70343  1.0000
  H   H641      1.0  0.20904  0.67368  0.67911  1.0000
  H   H642      1.0  0.00743  0.80120  0.50374  1.0000
  H   H643      1.0  0.21626  0.75669  0.73117  1.0000
  H   H644      1.0  0.26997  0.72467  0.74140  1.0000
  H   H645      1.0  0.16231  0.99993  0.63059  1.0000
  C   C413      1.0  0.26152  0.71679  0.73384  1.0000
  S   S163      1.0  0.18426  0.69225  0.74169  1.0000
  H   H646      1.0  0.23281  0.67168  0.68878  1.0000
  H   H647      1.0  0.02921  0.99441  0.50194  1.0000
  H   H648      1.0  0.25407  0.70419  0.74663  1.0000
  H   H649      1.0  0.23631  0.75281  0.74675  1.0000
  Fe  Fe81      1.0  0.28225  0.78142  0.77260  1.0000
  Fe  Fe82      1.0  0.29242  0.74875  0.81255  1.0000
  H   H650      1.0  0.31895  0.86421  0.85175  1.0000
  H   H651      1.0  0.30931  0.84023  0.86808  1.0000
  N   N41       1.0  0.17932  0.80213  0.77735  1.0000
  C   C414      1.0  0.15716  0.80196  0.77603  1.0000
  H   H652      1.0  0.14512  0.81545  0.78249  1.0000
  S   S164      1.0  0.21323  0.69031  0.78527  1.0000
  S   S165      1.0  0.28497  0.78538  0.80452  1.0000
  Fe  Fe83      1.0  0.18810  0.70128  0.81259  1.0000
  H   H653      1.0  0.19673  0.80027  0.80151  1.0000
  S   S166      1.0  0.18805  0.73420  0.81719  1.0000
  C   C415      1.0  0.17385  0.73355  0.74918  1.0000
  H   H654      1.0  0.16570  0.76593  0.75497  1.0000
  C   C416      1.0  0.18523  0.82301  0.76460  1.0000
  H   H655      1.0  0.17407  0.72593  0.76580  1.0000
  S   S167      1.0  0.28736  0.74505  0.78154  1.0000
  C   C417      1.0  0.18034  0.79959  0.80005  1.0000
  C   C418      1.0  0.30917  0.68897  0.80245  1.0000
  H   H656      1.0  0.21682  0.76371  0.80582  1.0000
  S   S168      1.0  0.16048  0.69558  0.80230  1.0000
  H   H657      1.0  0.25090  0.76142  0.81607  1.0000
  H   H658      1.0  0.21151  0.78346  0.76953  1.0000
  S   S169      1.0  0.25263  0.79835  0.75909  1.0000
  S   S170      1.0  0.31711  0.78155  0.75735  1.0000
  S   S171      1.0  0.27661  0.72711  0.84169  1.0000
  C   C419      1.0  0.27347  0.68876  0.79867  1.0000
  Fe  Fe84      1.0  0.18598  0.68209  0.77657  1.0000
  H   H659      1.0  0.17669  0.78360  0.80997  1.0000
  C   C420      1.0  0.32271  0.84604  0.85525  1.0000
  H   H660      1.0  0.27755  0.69518  0.78103  1.0000
  C   C421      1.0  0.25059  0.72993  0.83751  1.0000
  C   C422      1.0  0.23909  0.71311  0.84664  1.0000
  C   C423      1.0  0.21971  0.71433  0.84054  1.0000
  C   C424      1.0  0.21157  0.73269  0.82588  1.0000
  C   C425      1.0  0.22275  0.74972  0.81738  1.0000
  C   C426      1.0  0.24225  0.74829  0.82308  1.0000
  C   C427      1.0  0.19463  0.78390  0.76867  1.0000
  H   H661      1.0  0.21097  0.70121  0.84732  1.0000
  H   H662      1.0  0.31406  0.69558  0.78489  1.0000
  H   H663      1.0  0.16855  0.81269  0.80736  1.0000
  H   H664      1.0  0.15231  0.78630  0.78537  1.0000
  H   H665      1.0  0.24535  0.69894  0.85799  1.0000
  H   H666      1.0  0.17423  0.83716  0.77085  1.0000
  H   H667      1.0  0.28011  0.68117  0.83898  1.0000
  H   H668      1.0  0.15584  0.80392  0.75906  1.0000
  H   H669      1.0  0.19065  0.76785  0.77787  1.0000
  H   H670      1.0  0.32257  0.84088  0.84046  1.0000
  H   H671      1.0  0.32401  0.67946  0.80839  1.0000
  Fe  Fe85      1.0  0.32053  0.78207  0.79024  1.0000
  H   H672      1.0  0.30291  0.70307  0.81046  1.0000
  H   H673      1.0  0.20208  0.82346  0.76494  1.0000
  H   H674      1.0  0.26614  0.70301  0.80638  1.0000
  N   N42       1.0  0.29279  0.67548  0.80701  1.0000
  Fe  Fe86      1.0  0.32242  0.74538  0.76966  1.0000
  H   H675      1.0  0.26077  0.67902  0.80194  1.0000
  H   H676      1.0  0.19427  0.78543  0.75154  1.0000
  H   H677      1.0  0.22023  0.73254  0.75187  1.0000
  H   H678      1.0  0.18435  0.82551  0.74742  1.0000
  S   S172      1.0  0.64979  0.14285  0.13041  1.0000
  H   H679      1.0  0.40650  0.06185  0.07420  1.0000
  H   H680      1.0  0.61130  0.06533  0.01788  1.0000
  H   H681      1.0  0.36500  0.02479  0.12325  1.0000
  H   H682      1.0  0.60686  0.21189  0.21787  1.0000
  S   S173      1.0  0.43459  0.04034  0.02893  1.0000
  H   H683      1.0  0.56819  0.03699  0.00464  1.0000
  Fe  Fe87      1.0  0.37644  0.11971  0.15410  1.0000
  H   H684      1.0  0.36141  0.22875  0.13100  1.0000
  H   H685      1.0  0.40314  0.12209  0.06863  1.0000
  Fe  Fe88      1.0  0.45092  0.05698  0.04394  1.0000
  S   S174      1.0  0.48391  0.04742  0.02409  1.0000
  S   S175      1.0  0.43586  0.09148  0.04710  1.0000
  H   H686      1.0  0.38089  0.06095  0.06985  1.0000
  C   C428      1.0  0.39436  0.05141  0.07802  1.0000
  H   H687      1.0  0.55059  0.02616  0.02871  1.0000
  H   H688      1.0  0.65576  0.10047  0.16502  1.0000
  H   H689      1.0  0.61058  0.00886  0.01577  1.0000
  S   S176      1.0  0.61226  0.03235  0.10475  1.0000
  S   S177      1.0  0.65735  0.01886  0.07004  1.0000
  Fe  Fe89      1.0  0.64044  0.04085  0.04430  1.0000
  S   S178      1.0  0.61055  0.02699  0.05693  1.0000
  H   H690      1.0  0.62829  0.08957  0.10416  1.0000
  Fe  Fe90      1.0  0.59902  0.05309  0.07599  1.0000
  S   S179      1.0  0.56435  0.07075  0.07707  1.0000
  C   C429      1.0  0.35549  0.22127  0.12084  1.0000
  S   S180      1.0  0.62781  0.06891  0.06101  1.0000
  C   C430      1.0  0.54569  0.01510  0.08063  1.0000
  Fe  Fe91      1.0  0.64228  0.04572  0.08815  1.0000
  H   H691      1.0  0.41368  0.01777  0.10510  1.0000
  Fe  Fe92      1.0  0.46805  0.02800  0.01153  1.0000
  C   C431      1.0  0.53173  0.05987  0.06571  1.0000
  C   C432      1.0  0.54984  0.05234  0.07524  1.0000
  C   C433      1.0  0.55660  0.02998  0.08295  1.0000
  C   C434      1.0  0.36257  0.17435  0.21564  1.0000
  H   H692      1.0  0.35698  0.03874  0.09816  1.0000
  H   H693      1.0  0.52660  0.07716  0.05952  1.0000
  C   C435      1.0  0.62453  0.23043  0.22714  1.0000
  H   H694      1.0  0.65387  0.17129  0.22668  1.0000
  H   H695      1.0  0.57551  0.03181  0.03028  1.0000
  C   C436      1.0  0.64419  0.23684  0.22342  1.0000
  C   C437      1.0  0.63839  0.11410  0.11375  1.0000
  C   C438      1.0  0.37599  0.06418  0.11057  1.0000
  C   C439      1.0  0.36028  0.21339  0.20467  1.0000
  H   H696      1.0  0.62296  0.12535  0.11389  1.0000
  C   C440      1.0  0.62209  0.21691  0.21495  1.0000
  Fe  Fe93      1.0  0.35521  0.16113  0.17031  1.0000
  C   C441      1.0  0.56783  0.02552  0.02058  1.0000
  S   S181      1.0  0.45530  0.02905  0.07216  1.0000
  H   H697      1.0  0.63044  0.09862  0.18328  1.0000
  C   C442      1.0  0.37115  0.03026  0.10569  1.0000
  S   S182      1.0  0.34481  0.11012  0.15811  1.0000
  H   H698      1.0  0.62245  0.06236  0.20294  1.0000
  C   C443      1.0  0.63537  0.05501  0.19066  1.0000
  C   C444      1.0  0.37470  0.31780  0.24179  1.0000
  C   C445      1.0  0.52071  0.04496  0.06348  1.0000
  H   H699      1.0  0.39187  0.31528  0.24306  1.0000
  H   H700      1.0  0.37885  0.01534  0.09901  1.0000
  S   S183      1.0  0.35790  0.19351  0.17418  1.0000
  C   C446      1.0  0.41604  0.09671  0.11732  1.0000
  C   C447      1.0  0.43343  0.08050  0.11077  1.0000
  C   C448      1.0  0.44002  0.07938  0.08907  1.0000
  C   C449      1.0  0.42896  0.09417  0.07390  1.0000
  C   C450      1.0  0.41170  0.11058  0.08037  1.0000
  C   C451      1.0  0.40520  0.11183  0.10212  1.0000
  H   H701      1.0  0.44177  0.06876  0.12254  1.0000
  H   H702      1.0  0.45381  0.06723  0.08405  1.0000
  H   H703      1.0  0.37021  0.05978  0.12832  1.0000
  C   C452      1.0  0.52797  0.02252  0.07059  1.0000
  C   C453      1.0  0.36426  0.17492  0.23623  1.0000
  H   H704      1.0  0.64334  0.14711  0.24039  1.0000
  H   H705      1.0  0.40006  0.02731  0.12934  1.0000
  H   H706      1.0  0.50037  0.10685  0.08057  1.0000
  H   H707      1.0  0.35951  0.20328  0.12691  1.0000
  H   H708      1.0  0.35928  0.22820  0.19234  1.0000
  C   C454      1.0  0.36069  0.19359  0.19983  1.0000
  N   N43       1.0  0.38666  0.04464  0.10149  1.0000
  Fe  Fe94      1.0  0.48709  0.01819  0.05120  1.0000
  N   N44       1.0  0.49251  0.09254  0.11436  1.0000
  C   C455      1.0  0.49238  0.07117  0.11052  1.0000
  C   C456      1.0  0.50129  0.08906  0.13379  1.0000
  C   C457      1.0  0.47020  0.10563  0.11748  1.0000
  C   C458      1.0  0.50624  0.10429  0.09563  1.0000
  H   H709      1.0  0.50893  0.06071  0.10859  1.0000
  H   H710      1.0  0.48642  0.07310  0.09563  1.0000
  H   H711      1.0  0.48182  0.06202  0.12412  1.0000
  H   H712      1.0  0.50168  0.10484  0.13717  1.0000
  H   H713      1.0  0.49135  0.08017  0.14823  1.0000
  H   H714      1.0  0.51817  0.07929  0.13186  1.0000
  H   H715      1.0  0.45928  0.09726  0.13144  1.0000
  H   H716      1.0  0.46312  0.10864  0.10305  1.0000
  H   H717      1.0  0.46965  0.12182  0.12054  1.0000
  H   H718      1.0  0.52326  0.09501  0.09302  1.0000
  H   H719      1.0  0.50662  0.12058  0.09784  1.0000
  H   H720      1.0  0.36184  0.07368  0.10337  1.0000
  H   H721      1.0  0.36299  0.15900  0.21201  1.0000
  H   H722      1.0  0.36090  0.22942  0.22904  1.0000
  H   H723      1.0  0.41730  0.04299  0.10870  1.0000
  S   S184      1.0  0.36904  0.12733  0.18683  1.0000
  H   H724      1.0  0.39173  0.12438  0.10712  1.0000
  S   S185      1.0  0.36538  0.15426  0.13719  1.0000
  H   H725      1.0  0.50702  0.05079  0.05574  1.0000
  Fe  Fe95      1.0  0.62625  0.00744  0.08432  1.0000
  C   C459      1.0  0.40524  0.03263  0.11161  1.0000
  C   C460      1.0  0.65942  0.21553  0.19607  1.0000
  S   S186      1.0  0.40831  0.09750  0.14458  1.0000
  C   C461      1.0  0.61473  0.06055  0.00263  1.0000
  H   H726      1.0  0.57034  0.02407  0.09069  1.0000
  H   H727      1.0  0.65041  0.07670  0.21170  1.0000
  S   S187      1.0  0.65578  0.04316  0.00930  1.0000
  H   H728      1.0  0.64595  0.24757  0.23254  1.0000
  H   H729      1.0  0.37445  0.31795  0.22494  1.0000
  N   N45       1.0  0.65262  0.06778  0.18188  1.0000
  H   H730      1.0  0.33567  0.26806  0.21805  1.0000
  H   H731      1.0  0.36487  0.22506  0.10408  1.0000
  Fe  Fe96      1.0  0.44213  0.01140  0.05535  1.0000
  H   H732      1.0  0.40209  0.03700  0.07063  1.0000
  H   H733      1.0  0.64187  0.03790  0.19838  1.0000
  C   C462      1.0  0.36131  0.21407  0.22541  1.0000
  H   H734      1.0  0.33556  0.25762  0.09655  1.0000
  C   C463      1.0  0.63964  0.20933  0.19942  1.0000
  C   C464      1.0  0.36353  0.19479  0.24113  1.0000
  H   H735      1.0  0.63787  0.19880  0.19005  1.0000
  H   H736      1.0  0.58230  0.07352  0.99745  1.0000
  C   C465      1.0  0.64327  0.09026  0.17166  1.0000
  C   C466      1.0  0.64139  0.09390  0.10823  1.0000
  H   H737      1.0  0.62767  0.05430  0.17770  1.0000
  C   C467      1.0  0.65499  0.11932  0.12004  1.0000
  H   H738      1.0  0.63603  0.09042  0.15808  1.0000
  H   H739      1.0  0.38729  0.07536  0.10748  1.0000
  C   C468      1.0  0.65645  0.15580  0.23886  1.0000
  H   H740      1.0  0.33235  0.25853  0.18511  1.0000
  H   H741      1.0  0.33478  0.13605  0.22456  1.0000
  Fe  Fe97      1.0  0.33647  0.12049  0.18951  1.0000
  Fe  Fe98      1.0  0.33289  0.14552  0.14445  1.0000
  H   H742      1.0  0.33303  0.26164  0.12311  1.0000
  N   N46       1.0  0.33199  0.22917  0.12195  1.0000
  H   H743      1.0  0.33305  0.22188  0.09167  1.0000
  S   S188      1.0  0.65867  0.15311  0.18174  1.0000
  H   H744      1.0  0.32802  0.20023  0.11462  1.0000
  N   N47       1.0  0.57895  0.00311  0.01830  1.0000
  C   C469      1.0  0.60160  0.00310  0.00684  1.0000
  S   S189      1.0  0.51649  0.00341  0.06534  1.0000
  C   C470      1.0  0.40905  0.31703  0.31495  1.0000
  S   S190      1.0  0.43350  0.32646  0.42133  1.0000
  C   C471      1.0  0.60853  0.30574  0.37213  1.0000
  C   C472      1.0  0.61003  0.27231  0.36146  1.0000
  H   H745      1.0  0.49790  0.32477  0.37494  1.0000
  S   S191      1.0  0.61967  0.32042  0.38357  1.0000
  C   C473      1.0  0.63623  0.17401  0.26761  1.0000
  S   S192      1.0  0.36505  0.19535  0.26704  1.0000
  S   S193      1.0  0.39764  0.27886  0.28144  1.0000
  C   C474      1.0  0.56789  0.28985  0.27943  1.0000
  H   H746      1.0  0.61734  0.25537  0.36126  1.0000
  S   S194      1.0  0.58449  0.26966  0.33576  1.0000
  C   C475      1.0  0.59304  0.28294  0.35084  1.0000
  N   N48       1.0  0.54831  0.28052  0.28903  1.0000
  H   H747      1.0  0.33249  0.13838  0.32186  1.0000
  S   S195      1.0  0.60880  0.22162  0.30692  1.0000
  H   H748      1.0  0.52127  0.27636  0.27886  1.0000
  H   H749      1.0  0.36605  0.15996  0.24837  1.0000
  C   C476      1.0  0.37765  0.32912  0.42906  1.0000
  H   H750      1.0  0.38869  0.31771  0.43938  1.0000
  H   H751      1.0  0.40125  0.32233  0.39067  1.0000
  H   H752      1.0  0.63093  0.27556  0.38038  1.0000
  H   H753      1.0  0.57897  0.28115  0.26698  1.0000
  H   H754      1.0  0.42653  0.30143  0.28862  1.0000
  C   C477      1.0  0.61765  0.28369  0.37229  1.0000
  Fe  Fe99      1.0  0.61277  0.25091  0.31604  1.0000
  H   H755      1.0  0.35775  0.29137  0.41707  1.0000
  C   C478      1.0  0.41161  0.30377  0.30041  1.0000
  H   H756      1.0  0.43750  0.31432  0.46539  1.0000
  Fe  Fe100     1.0  0.36845  0.26595  0.28281  1.0000
  H   H757      1.0  0.54084  0.33304  0.32964  1.0000
  H   H758      1.0  0.65824  0.28140  0.31193  1.0000
  S   S196      1.0  0.36113  0.23404  0.30337  1.0000
  H   H759      1.0  0.52989  0.30980  0.29956  1.0000
  N   N49       1.0  0.33206  0.16997  0.32665  1.0000
  Fe  Fe101     1.0  0.35499  0.22913  0.27328  1.0000
  H   H760      1.0  0.63354  0.19013  0.25630  1.0000
  H   H761      1.0  0.33049  0.17232  0.29394  1.0000
  C   C479      1.0  0.53465  0.29195  0.30605  1.0000
  H   H762      1.0  0.62524  0.33313  0.32692  1.0000
  H   H763      1.0  0.36275  0.28884  0.31695  1.0000
  H   H764      1.0  0.54330  0.28997  0.31916  1.0000
  H   H765      1.0  0.40438  0.29743  0.41038  1.0000
  C   C480      1.0  0.49645  0.32115  0.39272  1.0000
  C   C481      1.0  0.37562  0.29676  0.31624  1.0000
  H   H766      1.0  0.49959  0.30310  0.39842  1.0000
  C   C482      1.0  0.39485  0.29375  0.30096  1.0000
  C   C483      1.0  0.58349  0.30476  0.35128  1.0000
  C   C484      1.0  0.44287  0.32958  0.45820  1.0000
  H   H767      1.0  0.57702  0.28862  0.29192  1.0000
  C   C485      1.0  0.35828  0.33389  0.40103  1.0000
  C   C486      1.0  0.39287  0.30911  0.40076  1.0000
  C   C487      1.0  0.36173  0.30003  0.42756  1.0000
  H   H768      1.0  0.63590  0.17724  0.28346  1.0000
  S   S197      1.0  0.62304  0.26890  0.28220  1.0000
  H   H769      1.0  0.56532  0.24797  0.28603  1.0000
  N   N50       1.0  0.37262  0.31804  0.41462  1.0000
  H   H770      1.0  0.56378  0.25432  0.31130  1.0000
  H   H771      1.0  0.58434  0.33330  0.36154  1.0000
  H   H772      1.0  0.35788  0.31286  0.34210  1.0000
  H   H773      1.0  0.42197  0.32486  0.31440  1.0000
  H   H774      1.0  0.54583  0.32908  0.39268  1.0000
  C   C488      1.0  0.59131  0.31624  0.36180  1.0000
  H   H775      1.0  0.36097  0.18312  0.31564  1.0000
  C   C489      1.0  0.53612  0.28331  0.27218  1.0000
  H   H776      1.0  0.64736  0.32647  0.34031  1.0000
  C   C490      1.0  0.35587  0.16709  0.32155  1.0000
  C   C491      1.0  0.64917  0.29404  0.32128  1.0000
  H   H777      1.0  0.53823  0.30392  0.39440  1.0000
  H   H778      1.0  0.53643  0.32538  0.37097  1.0000
  C   C492      1.0  0.37292  0.31029  0.33051  1.0000
  N   N51       1.0  0.65689  0.15989  0.25972  1.0000
  H   H779      1.0  0.54033  0.24937  0.30570  1.0000
  H   H780      1.0  0.57060  0.31298  0.34281  1.0000
  S   S198      1.0  0.44227  0.32382  0.36240  1.0000
  C   C493      1.0  0.55468  0.25701  0.29841  1.0000
  H   H781      1.0  0.36860  0.30321  0.25223  1.0000
  S   S199      1.0  0.60414  0.23742  0.24872  1.0000
  H   H782      1.0  0.36330  0.15782  0.30853  1.0000
  Fe  Fe102     1.0  0.64365  0.20865  0.30859  1.0000
  C   C494      1.0  0.38959  0.32047  0.32985  1.0000
  H   H783      1.0  0.38979  0.30070  0.38951  1.0000
  Fe  Fe103     1.0  0.62134  0.23850  0.27349  1.0000
  S   S200      1.0  0.33437  0.28441  0.29048  1.0000
  H   H784      1.0  0.63166  0.29475  0.32300  1.0000
  S   S201      1.0  0.36506  0.25965  0.25207  1.0000
  N   N52       1.0  0.51150  0.33100  0.39859  1.0000
  H   H785      1.0  0.54613  0.27497  0.25905  1.0000
  H   H786      1.0  0.62222  0.16640  0.26965  1.0000
  H   H787      1.0  0.64691  0.12998  0.27776  1.0000
  H   H788      1.0  0.36297  0.15820  0.33584  1.0000
  H   H789      1.0  0.34637  0.30616  0.43826  1.0000
  Fe  Fe104     1.0  0.33024  0.27551  0.26152  1.0000
  H   H790      1.0  0.56375  0.30745  0.27170  1.0000
  H   H791      1.0  0.55128  0.33289  0.48880  1.0000
  H   H792      1.0  0.53097  0.30088  0.26483  1.0000
  H   H793      1.0  0.65299  0.28825  0.33762  1.0000
  C   C495      1.0  0.53397  0.32195  0.38877  1.0000
  H   H794      1.0  0.35593  0.32262  0.28210  1.0000
  S   S202      1.0  0.64661  0.23638  0.32130  1.0000
  H   H795      1.0  0.47933  0.32754  0.39993  1.0000
  H   H796      1.0  0.37221  0.28777  0.43792  1.0000
  H   H797      1.0  0.51272  0.30806  0.42880  1.0000
  N   N53       1.0  0.65484  0.31551  0.31066  1.0000
  H   H798      1.0  0.35455  0.32620  0.38956  1.0000
  H   H799      1.0  0.45124  0.33148  0.48706  1.0000
  H   H800      1.0  0.51949  0.28569  0.31353  1.0000
  H   H801      1.0  0.49199  0.33215  0.43020  1.0000
  C   C496      1.0  0.50889  0.32597  0.42224  1.0000
  H   H802      1.0  0.33179  0.32629  0.25755  1.0000
  C   C497      1.0  0.64306  0.33150  0.32416  1.0000
  H   H803      1.0  0.33208  0.13904  0.34911  1.0000
  H   H804      1.0  0.32788  0.19784  0.30079  1.0000
  H   H805      1.0  0.63106  0.32437  0.29100  1.0000
  H   H806      1.0  0.37927  0.33466  0.27287  1.0000
  Fe  Fe105     1.0  0.65655  0.25179  0.28639  1.0000
  S   S203      1.0  0.65607  0.22300  0.27413  1.0000
  H   H807      1.0  0.32889  0.17480  0.35845  1.0000
  H   H808      1.0  0.51966  0.33362  0.42721  1.0000
  C   C498      1.0  0.66000  0.13891  0.27549  1.0000
  S   S204      1.0  0.65669  0.17280  0.31828  1.0000
  C   C499      1.0  0.64873  0.32282  0.28941  1.0000
  H   H809      1.0  0.65732  0.31100  0.27890  1.0000
  H   H810      1.0  0.66004  0.14147  0.29153  1.0000
  H   H811      1.0  0.40774  0.19460  0.61527  1.0000
  H   H812      1.0  0.37403  0.23865  0.64311  1.0000
  H   H813      1.0  0.64041  0.31864  0.63589  1.0000
  C   C500      1.0  0.35409  0.16193  0.68589  1.0000
  Fe  Fe106     1.0  0.33276  0.21150  0.66183  1.0000
  S   S205      1.0  0.35473  0.17918  0.66036  1.0000
  H   H814      1.0  0.34797  0.27926  0.60637  1.0000
  C   C501      1.0  0.38680  0.29857  0.61700  1.0000
  H   H815      1.0  0.39620  0.24919  0.64437  1.0000
  H   H816      1.0  0.52251  0.33060  0.53350  1.0000
  H   H817      1.0  0.36982  0.28766  0.56937  1.0000
  H   H818      1.0  0.38603  0.14327  0.67652  1.0000
  H   H819      1.0  0.43851  0.20967  0.61644  1.0000
  C   C502      1.0  0.65860  0.30495  0.53542  1.0000
  H   H820      1.0  0.35391  0.33551  0.60447  1.0000
  C   C503      1.0  0.39768  0.20325  0.62810  1.0000
  H   H821      1.0  0.39188  0.22296  0.66067  1.0000
  H   H822      1.0  0.40808  0.25394  0.60482  1.0000
  H   H823      1.0  0.39839  0.19160  0.64388  1.0000
  C   C504      1.0  0.65256  0.32621  0.62377  1.0000
  H   H824      1.0  0.38663  0.11954  0.71270  1.0000
  H   H825      1.0  0.41340  0.23111  0.59241  1.0000
  S   S206      1.0  0.40783  0.30589  0.55260  1.0000
  H   H826      1.0  0.64986  0.31555  0.52266  1.0000
  C   C505      1.0  0.37210  0.14544  0.68946  1.0000
  C   C506      1.0  0.37242  0.13199  0.70991  1.0000
  C   C507      1.0  0.40309  0.23842  0.60607  1.0000
  C   C508      1.0  0.42769  0.21772  0.62942  1.0000
  C   C509      1.0  0.39297  0.29951  0.57890  1.0000
  S   S207      1.0  0.46297  0.32722  0.53276  1.0000
  H   H827      1.0  0.42961  0.20637  0.64510  1.0000
  C   C510      1.0  0.35448  0.13449  0.72675  1.0000
  H   H828      1.0  0.38614  0.24278  0.60368  1.0000
  H   H829      1.0  0.43361  0.23258  0.62867  1.0000
  C   C511      1.0  0.37464  0.29061  0.58268  1.0000
  H   H830      1.0  0.38061  0.20696  0.62616  1.0000
  H   H831      1.0  0.41357  0.30962  0.59341  1.0000
  C   C512      1.0  0.36232  0.28578  0.60359  1.0000
  N   N54       1.0  0.40494  0.22333  0.62704  1.0000
  C   C513      1.0  0.36844  0.28974  0.62075  1.0000
  C   C514      1.0  0.39910  0.30337  0.59611  1.0000
  C   C515      1.0  0.39124  0.23395  0.64458  1.0000
  S   S208      1.0  0.35353  0.28376  0.64702  1.0000
  H   H832      1.0  0.39163  0.30152  0.63030  1.0000
  H   H833      1.0  0.55948  0.33379  0.51254  1.0000
  H   H834      1.0  0.51396  0.33056  0.50963  1.0000
  S   S209      1.0  0.33391  0.23748  0.63176  1.0000
  C   C516      1.0  0.63624  0.32554  0.56159  1.0000
  H   H835      1.0  0.62776  0.31201  0.57073  1.0000
  N   N55       1.0  0.65874  0.31727  0.55124  1.0000
  H   H836      1.0  0.65042  0.29093  0.54322  1.0000
  C   C517      1.0  0.33607  0.15057  0.72305  1.0000
  C   C518      1.0  0.33602  0.16460  0.70268  1.0000
  Fe  Fe107     1.0  0.42728  0.33165  0.54658  1.0000
  Fe  Fe108     1.0  0.33179  0.26010  0.65293  1.0000
  H   H837      1.0  0.33331  0.19725  0.73039  1.0000
  H   H838      1.0  0.34743  0.21018  0.74178  1.0000
  S   S210      1.0  0.33424  0.23323  0.68228  1.0000
  C   C519      1.0  0.33117  0.20768  0.74203  1.0000
  H   H839      1.0  0.63566  0.33551  0.57313  1.0000
  C   C520      1.0  0.43645  0.02220  0.97768  1.0000
  S   S211      1.0  0.57476  0.02167  0.93049  1.0000
  H   H840      1.0  0.37008  0.04035  0.91666  1.0000
  S   S212      1.0  0.52929  0.04939  0.89865  1.0000
  C   C521      1.0  0.51709  0.08319  0.97422  1.0000
  H   H841      1.0  0.35530  0.06227  0.81379  1.0000
  H   H842      1.0  0.41576  0.04372  0.89572  1.0000
  Fe  Fe109     1.0  0.60818  0.05445  0.88067  1.0000
  S   S213      1.0  0.62238  0.03510  0.90925  1.0000
  S   S214      1.0  0.62372  0.07638  0.85135  1.0000
  Fe  Fe110     1.0  0.56422  0.04227  0.90049  1.0000
  H   H843      1.0  0.51643  0.04172  0.97477  1.0000
  S   S215      1.0  0.59325  0.02808  0.87794  1.0000
  Fe  Fe111     1.0  0.59051  0.04887  0.92884  1.0000
  S   S216      1.0  0.58157  0.06338  0.95806  1.0000
  H   H844      1.0  0.62812  0.13957  0.91183  1.0000
  C   C522      1.0  0.63555  0.04988  0.99444  1.0000
  S   S217      1.0  0.57789  0.07044  0.90035  1.0000
  H   H845      1.0  0.38642  0.02435  0.89770  1.0000
  H   H846      1.0  0.40164  0.07027  0.85435  1.0000
  C   C523      1.0  0.38006  0.03456  0.82336  1.0000
  H   H847      1.0  0.33602  0.16469  0.76066  1.0000
  H   H848      1.0  0.64836  0.08022  0.93146  1.0000
  C   C524      1.0  0.49431  0.01260  0.88695  1.0000
  H   H849      1.0  0.51806  0.10458  0.93318  1.0000
  H   H850      1.0  0.39139  0.03761  0.80820  1.0000
  H   H851      1.0  0.48238  0.06963  0.97259  1.0000
  C   C525      1.0  0.34506  0.04481  0.84617  1.0000
  H   H852      1.0  0.48314  0.09547  0.95404  1.0000
  H   H853      1.0  0.39787  0.06036  0.91323  1.0000
  C   C526      1.0  0.60981  0.10441  0.92476  1.0000
  C   C527      1.0  0.38608  0.01714  0.84000  1.0000
  H   H854      1.0  0.40465  0.04113  0.86263  1.0000
  C   C528      1.0  0.35075  0.02686  0.86244  1.0000
  C   C529      1.0  0.35963  0.04851  0.82649  1.0000
  C   C530      1.0  0.53697  0.00867  0.89024  1.0000
  H   H855      1.0  0.64143  0.11961  0.93157  1.0000
  H   H856      1.0  0.64076  0.07185  0.91113  1.0000
  H   H857      1.0  0.36038  0.04034  0.89361  1.0000
  S   S218      1.0  0.40668  0.00861  0.93760  1.0000
  C   C531      1.0  0.62867  0.11185  0.88775  1.0000
  C   C532      1.0  0.60266  0.05878  0.97147  1.0000
  C   C533      1.0  0.62351  0.04830  0.96315  1.0000
  C   C534      1.0  0.52505  0.08677  0.93581  1.0000
  H   H858      1.0  0.47949  0.01666  0.93613  1.0000
  H   H859      1.0  0.62691  0.04314  0.94818  1.0000
  H   H860      1.0  0.47792  0.01435  0.88551  1.0000
  C   C535      1.0  0.52424  0.05128  0.95932  1.0000
  H   H861      1.0  0.52328  0.08095  0.92208  1.0000
  C   C536      1.0  0.50045  0.02973  0.89152  1.0000
  S   S219      1.0  0.47789  0.02542  0.97684  1.0000
  H   H862      1.0  0.61748  0.12782  0.88395  1.0000
  H   H863      1.0  0.50963  0.10085  0.97275  1.0000
  H   H864      1.0  0.36227  0.08135  0.90463  1.0000
  H   H865      1.0  0.48867  0.04451  0.89377  1.0000
  H   H866      1.0  0.56780  0.00585  0.98959  1.0000
  H   H867      1.0  0.35494  0.07971  0.88075  1.0000
  H   H868      1.0  0.64721  0.10679  0.82120  1.0000
  S   S220      1.0  0.35639  0.11794  0.75229  1.0000
  H   H869      1.0  0.45194  0.00933  0.92085  1.0000
  C   C537      1.0  0.40334  0.05906  0.89605  1.0000
  C   C538      1.0  0.63935  0.12344  0.91462  1.0000
  C   C539      1.0  0.36886  0.07939  0.88775  1.0000
  C   C540      1.0  0.37504  0.04017  0.89921  1.0000
  H   H870      1.0  0.61097  0.09991  0.94202  1.0000
  H   H871      1.0  0.54266  0.08455  0.93504  1.0000
  C   C541      1.0  0.45769  0.02148  0.96595  1.0000
  H   H872      1.0  0.53453  0.08113  0.97427  1.0000
  H   H873      1.0  0.52248  0.04442  0.94620  1.0000
  C   C542      1.0  0.64958  0.08088  0.84934  1.0000
  H   H874      1.0  0.55345  0.00712  0.89145  1.0000
  H   H875      1.0  0.59777  0.11999  0.92226  1.0000
  C   C543      1.0  0.52182  0.02781  0.89307  1.0000
  H   H876      1.0  0.50944  0.07440  0.99016  1.0000
  S   S221      1.0  0.44100  0.00543  0.87893  1.0000
  H   H877      1.0  0.48857  0.07080  0.94427  1.0000
  H   H878      1.0  0.41146  0.07289  0.88708  1.0000
  H   H879      1.0  0.65611  0.03566  0.96830  1.0000
  C   C544      1.0  0.64641  0.08514  0.91443  1.0000
  H   H880      1.0  0.37966  0.05770  0.85640  1.0000
  C   C545      1.0  0.49108  0.07790  0.95687  1.0000
  N   N56       1.0  0.63106  0.10623  0.91038  1.0000
  H   H881      1.0  0.65683  0.05593  0.87693  1.0000
  N   N57       1.0  0.38513  0.05888  0.88677  1.0000
  N   N58       1.0  0.51434  0.07479  0.95657  1.0000
  C   C546      1.0  0.64002  0.04404  0.97454  1.0000
  H   H882      1.0  0.62199  0.09939  0.88416  1.0000
  C   C547      1.0  0.39317  0.05692  0.86409  1.0000
  H   H883      1.0  0.37588  0.09388  0.87852  1.0000
  H   H884      1.0  0.65534  0.12526  0.90390  1.0000
  H   H885      1.0  0.54178  0.04829  0.95919  1.0000
  C   C548      1.0  0.44753  0.01291  0.93669  1.0000
  C   C549      1.0  0.46313  0.01704  0.94535  1.0000
  H   H886      1.0  0.60314  0.09159  0.92182  1.0000
  H   H887      1.0  0.40433  0.01905  0.97803  1.0000
  H   H888      1.0  0.33418  0.21414  0.77984  1.0000
  C   C550      1.0  0.42627  0.01374  0.94840  1.0000
  C   C551      1.0  0.42071  0.01854  0.96884  1.0000
  H   H889      1.0  0.64447  0.11282  0.87634  1.0000
  C   C552      1.0  0.65703  0.09756  0.83284  1.0000
  C   C553      1.0  0.33406  0.17608  0.77130  1.0000
  C   C554      1.0  0.37129  0.01320  0.85947  1.0000
  Fe  Fe112     1.0  0.60521  0.00970  0.90805  1.0000
  H   H890      1.0  0.33931  0.02371  0.87750  1.0000
  C   C555      1.0  0.59837  0.06524  0.99102  1.0000
  H   H891      1.0  0.35055  0.17745  0.77163  1.0000
  H   H892      1.0  0.60250  0.01395  0.99056  1.0000
  H   H893      1.0  0.43207  0.02553  0.99355  1.0000
  S   S222      1.0  0.32914  0.11813  0.81093  1.0000
  H   H894      1.0  0.38728  0.35560  0.23523  1.0000
  H   H895      1.0  0.36982  0.35833  0.21725  1.0000
  H   H896      1.0  0.33763  0.34070  0.23025  1.0000
  H   H897      1.0  0.36067  0.37248  0.23901  1.0000
  C   C556      1.0  0.37019  0.35696  0.23435  1.0000
  C   C557      1.0  0.33886  0.34028  0.24689  1.0000
  Fe  Fe113     1.0  0.42112  0.49572  0.42059  1.0000
  S   S223      1.0  0.38721  0.49625  0.43942  1.0000
  S   S224      1.0  0.44345  0.46398  0.41566  1.0000
  Fe  Fe114     1.0  0.41941  0.54266  0.42101  1.0000
  S   S225      1.0  0.38573  0.54713  0.44080  1.0000
  S   S226      1.0  0.43984  0.56801  0.41062  1.0000
  Fe  Fe115     1.0  0.39645  0.51354  0.45968  1.0000
  Fe  Fe116     1.0  0.41472  0.34823  0.34996  1.0000
  Fe  Fe117     1.0  0.37945  0.52963  0.41857  1.0000
  H   H898      1.0  0.46596  0.54036  0.45148  1.0000
  S   S227      1.0  0.43083  0.51094  0.44232  1.0000
  S   S228      1.0  0.41265  0.52744  0.39732  1.0000
  H   H899      1.0  0.44679  0.45306  0.46421  1.0000
  S   S229      1.0  0.59289  0.58889  0.38393  1.0000
  H   H900      1.0  0.63718  0.46490  0.47445  1.0000
  Fe  Fe118     1.0  0.43038  0.38693  0.35382  1.0000
  S   S230      1.0  0.45871  0.36563  0.36734  1.0000
  S   S231      1.0  0.42164  0.42353  0.34870  1.0000
  Fe  Fe119     1.0  0.43576  0.34408  0.38684  1.0000
  H   H901      1.0  0.38601  0.34274  0.41976  1.0000
  H   H902      1.0  0.65282  0.33897  0.28087  1.0000
  H   H903      1.0  0.59105  0.46780  0.47004  1.0000
  S   S232      1.0  0.43577  0.37028  0.32648  1.0000
  S   S233      1.0  0.40697  0.36703  0.37588  1.0000
  C   C558      1.0  0.43022  0.45691  0.47405  1.0000
  Fe  Fe120     1.0  0.57200  0.52770  0.44464  1.0000
  S   S234      1.0  0.60390  0.53524  0.42565  1.0000
  S   S235      1.0  0.56090  0.52740  0.47988  1.0000
  Fe  Fe121     1.0  0.55886  0.52250  0.40597  1.0000
  S   S236      1.0  0.58962  0.52949  0.38336  1.0000
  S   S237      1.0  0.53412  0.51146  0.39571  1.0000
  Fe  Fe122     1.0  0.60554  0.50811  0.41002  1.0000
  H   H904      1.0  0.35792  0.56961  0.27694  1.0000
  Fe  Fe123     1.0  0.58532  0.55604  0.40083  1.0000
  H   H905      1.0  0.63720  0.55866  0.43680  1.0000
  S   S238      1.0  0.57524  0.49853  0.43129  1.0000
  S   S239      1.0  0.55292  0.55108  0.42123  1.0000
  Fe  Fe124     1.0  0.56763  0.39083  0.36219  1.0000
  S   S240      1.0  0.60215  0.37840  0.34737  1.0000
  S   S241      1.0  0.53962  0.40335  0.34549  1.0000
  Fe  Fe125     1.0  0.57790  0.38981  0.40482  1.0000
  S   S242      1.0  0.61331  0.37748  0.39378  1.0000
  S   S243      1.0  0.56220  0.39823  0.43701  1.0000
  Fe  Fe126     1.0  0.60972  0.40157  0.36293  1.0000
  S   S244      1.0  0.63527  0.42137  0.34703  1.0000
  H   H906      1.0  0.59145  0.60495  0.44694  1.0000
  C   C559      1.0  0.61919  0.58606  0.36814  1.0000
  S   S245      1.0  0.57517  0.41600  0.37511  1.0000
  S   S246      1.0  0.56716  0.36577  0.39313  1.0000
  C   C560      1.0  0.57905  0.38849  0.45574  1.0000
  C   C561      1.0  0.63373  0.59639  0.44803  1.0000
  C   C562      1.0  0.59760  0.37216  0.45271  1.0000
  H   H907      1.0  0.60192  0.36539  0.43855  1.0000
  H   H908      1.0  0.40803  0.54024  0.47972  1.0000
  C   C563      1.0  0.45728  0.36873  0.43964  1.0000
  C   C564      1.0  0.33204  0.57225  0.37429  1.0000
  H   H909      1.0  0.41988  0.59032  0.34510  1.0000
  H   H910      1.0  0.64866  0.41829  0.46806  1.0000
  C   C565      1.0  0.61651  0.46511  0.38540  1.0000
  C   C566      1.0  0.61610  0.45080  0.37297  1.0000
  C   C567      1.0  0.63545  0.43866  0.36330  1.0000
  H   H911      1.0  0.42339  0.57473  0.37139  1.0000
  H   H912      1.0  0.56302  0.35486  0.48880  1.0000
  H   H913      1.0  0.60153  0.47470  0.39255  1.0000
  H   H914      1.0  0.60084  0.44950  0.37048  1.0000
  C   C568      1.0  0.34100  0.57255  0.27478  1.0000
  H   H915      1.0  0.65624  0.48023  0.33423  1.0000
  C   C569      1.0  0.61037  0.36407  0.46836  1.0000
  H   H916      1.0  0.58948  0.43996  0.48285  1.0000
  Fe  Fe127     1.0  0.60254  0.35546  0.37958  1.0000
  H   H917      1.0  0.39636  0.63003  0.38083  1.0000
  C   C570      1.0  0.63692  0.57350  0.42355  1.0000
  C   C571      1.0  0.60191  0.53041  0.47980  1.0000
  C   C572      1.0  0.57980  0.53651  0.48813  1.0000
  H   H918      1.0  0.63381  0.43541  0.43478  1.0000
  H   H919      1.0  0.51841  0.36291  0.39363  1.0000
  H   H920      1.0  0.60751  0.51912  0.46917  1.0000
  H   H921      1.0  0.62993  0.50657  0.35414  1.0000
  H   H922      1.0  0.34272  0.34089  0.41085  1.0000
  C   C573      1.0  0.51092  0.35591  0.32696  1.0000
  C   C574      1.0  0.49971  0.37732  0.32726  1.0000
  C   C575      1.0  0.50917  0.39196  0.33206  1.0000
  C   C576      1.0  0.52983  0.38522  0.33679  1.0000
  C   C577      1.0  0.54157  0.36408  0.33550  1.0000
  C   C578      1.0  0.62423  0.61242  0.41331  1.0000
  H   H923      1.0  0.48348  0.38253  0.32423  1.0000
  H   H924      1.0  0.50010  0.40833  0.33284  1.0000
  H   H925      1.0  0.55766  0.35894  0.33885  1.0000
  C   C579      1.0  0.61805  0.44057  0.44548  1.0000
  C   C580      1.0  0.41235  0.53204  0.49506  1.0000
  C   C581      1.0  0.37968  0.61261  0.35755  1.0000
  H   H926      1.0  0.44773  0.36744  0.41123  1.0000
  C   C582      1.0  0.46646  0.55385  0.40367  1.0000
  C   C583      1.0  0.47005  0.53264  0.40062  1.0000
  C   C584      1.0  0.49099  0.52010  0.39749  1.0000
  C   C585      1.0  0.50854  0.52870  0.39724  1.0000
  C   C586      1.0  0.50515  0.55028  0.39940  1.0000
  C   C587      1.0  0.48405  0.56291  0.40258  1.0000
  H   H927      1.0  0.45669  0.52568  0.40090  1.0000
  H   H928      1.0  0.49344  0.50349  0.39593  1.0000
  C   C588      1.0  0.43700  0.45281  0.39730  1.0000
  C   C589      1.0  0.42371  0.46568  0.38316  1.0000
  C   C590      1.0  0.41917  0.45658  0.36819  1.0000
  C   C591      1.0  0.42757  0.43453  0.36759  1.0000
  C   C592      1.0  0.44069  0.42167  0.38193  1.0000
  C   C593      1.0  0.44554  0.43084  0.39664  1.0000
  H   H929      1.0  0.41705  0.48266  0.38363  1.0000
  H   H930      1.0  0.40899  0.46657  0.35715  1.0000
  H   H931      1.0  0.44719  0.40472  0.38163  1.0000
  H   H932      1.0  0.45572  0.42082  0.40765  1.0000
  H   H933      1.0  0.45041  0.41565  0.48730  1.0000
  C   C594      1.0  0.36812  0.55095  0.36528  1.0000
  H   H934      1.0  0.49567  0.50924  0.44395  1.0000
  H   H935      1.0  0.38131  0.53804  0.36993  1.0000
  H   H936      1.0  0.40966  0.44118  0.45315  1.0000
  H   H937      1.0  0.62415  0.61070  0.45492  1.0000
  H   H938      1.0  0.51612  0.51890  0.48759  1.0000
  C   C595      1.0  0.36974  0.56250  0.34387  1.0000
  N   N59       1.0  0.65576  0.51461  0.32752  1.0000
  H   H939      1.0  0.51467  0.54431  0.46831  1.0000
  H   H940      1.0  0.36986  0.60144  0.35652  1.0000
  H   H941      1.0  0.42045  0.46979  0.46359  1.0000
  H   H942      1.0  0.34129  0.57524  0.25732  1.0000
  C   C596      1.0  0.60162  0.59039  0.44085  1.0000
  C   C597      1.0  0.59987  0.45224  0.47864  1.0000
  C   C598      1.0  0.65518  0.44063  0.36635  1.0000
  H   H943      1.0  0.62577  0.47753  0.45097  1.0000
  N   N60       1.0  0.50922  0.45778  0.37123  1.0000
  C   C599      1.0  0.50249  0.43656  0.38038  1.0000
  C   C600      1.0  0.51998  0.46231  0.38621  1.0000
  C   C601      1.0  0.48997  0.47521  0.36797  1.0000
  C   C602      1.0  0.52444  0.45704  0.35036  1.0000
  H   H944      1.0  0.48135  0.57943  0.40469  1.0000
  H   H945      1.0  0.49074  0.43675  0.39600  1.0000
  H   H946      1.0  0.52574  0.47795  0.37960  1.0000
  H   H947      1.0  0.50886  0.46344  0.40202  1.0000
  H   H948      1.0  0.53433  0.44924  0.38936  1.0000
  H   H949      1.0  0.48112  0.47189  0.35726  1.0000
  H   H950      1.0  0.49445  0.49142  0.36073  1.0000
  H   H951      1.0  0.47838  0.47659  0.38346  1.0000
  H   H952      1.0  0.52920  0.47304  0.34263  1.0000
  H   H953      1.0  0.51730  0.45250  0.33897  1.0000
  H   H954      1.0  0.53955  0.44471  0.35234  1.0000
  H   H955      1.0  0.51674  0.49996  0.45916  1.0000
  C   C603      1.0  0.47633  0.54508  0.45976  1.0000
  H   H956      1.0  0.37193  0.60400  0.40050  1.0000
  S   S247      1.0  0.34780  0.54302  0.40777  1.0000
  C   C604      1.0  0.45819  0.35866  0.46106  1.0000
  C   C605      1.0  0.64161  0.51771  0.34842  1.0000
  C   C606      1.0  0.41109  0.58365  0.36147  1.0000
  H   H957      1.0  0.65284  0.61576  0.32973  1.0000
  C   C607      1.0  0.50530  0.51461  0.45249  1.0000
  H   H958      1.0  0.60170  0.45525  0.49388  1.0000
  H   H959      1.0  0.51941  0.35996  0.47725  1.0000
  H   H960      1.0  0.53141  0.38176  0.47750  1.0000
  H   H961      1.0  0.63326  0.53700  0.30921  1.0000
  H   H962      1.0  0.34298  0.53526  0.26353  1.0000
  H   H963      1.0  0.40275  0.57143  0.35993  1.0000
  C   C608      1.0  0.39833  0.44357  0.49504  1.0000
  H   H964      1.0  0.34631  0.54872  0.31382  1.0000
  H   H965      1.0  0.60864  0.42750  0.44908  1.0000
  H   H966      1.0  0.38788  0.45646  0.48509  1.0000
  C   C609      1.0  0.63253  0.42438  0.47762  1.0000
  C   C610      1.0  0.63626  0.46685  0.38860  1.0000
  H   H967      1.0  0.35918  0.52996  0.28330  1.0000
  Fe  Fe128     1.0  0.46272  0.34752  0.34159  1.0000
  C   C611      1.0  0.38420  0.59142  0.39282  1.0000
  H   H968      1.0  0.39569  0.58318  0.40372  1.0000
  C   C612      1.0  0.65556  0.45447  0.37925  1.0000
  C   C613      1.0  0.44892  0.35932  0.42756  1.0000
  S   S248      1.0  0.63716  0.48479  0.40384  1.0000
  H   H969      1.0  0.36815  0.62636  0.36407  1.0000
  C   C614      1.0  0.50471  0.53300  0.48003  1.0000
  S   S249      1.0  0.35617  0.59475  0.31141  1.0000
  C   C615      1.0  0.32969  0.55215  0.31069  1.0000
  H   H970      1.0  0.63439  0.58190  0.46164  1.0000
  H   H971      1.0  0.46729  0.50591  0.47846  1.0000
  H   H972      1.0  0.61497  0.62765  0.41870  1.0000
  S   S250      1.0  0.39124  0.50071  0.49519  1.0000
  C   C616      1.0  0.63325  0.56569  0.37031  1.0000
  H   H973      1.0  0.50730  0.35926  0.37300  1.0000
  N   N61       1.0  0.49122  0.52584  0.46946  1.0000
  H   H974      1.0  0.41619  0.62445  0.35724  1.0000
  H   H975      1.0  0.62318  0.41115  0.48215  1.0000
  C   C617      1.0  0.61691  0.53864  0.48551  1.0000
  C   C618      1.0  0.41937  0.42878  0.46417  1.0000
  H   H976      1.0  0.63032  0.50906  0.31585  1.0000
  N   N62       1.0  0.62115  0.44473  0.46536  1.0000
  C   C619      1.0  0.44212  0.33951  0.43671  1.0000
  C   C620      1.0  0.50666  0.35493  0.39061  1.0000
  H   H977      1.0  0.65395  0.57508  0.41612  1.0000
  H   H978      1.0  0.48924  0.49557  0.49259  1.0000
  H   H979      1.0  0.37558  0.57901  0.39206  1.0000
  H   H980      1.0  0.61557  0.62002  0.35210  1.0000
  H   H981      1.0  0.41974  0.60850  0.38338  1.0000
  H   H982      1.0  0.51870  0.55721  0.39868  1.0000
  H   H983      1.0  0.41207  0.41403  0.46983  1.0000
  H   H984      1.0  0.36602  0.34774  0.39108  1.0000
  C   C621      1.0  0.57309  0.39640  0.47463  1.0000
  N   N63       1.0  0.62412  0.59319  0.43144  1.0000
  H   H985      1.0  0.38767  0.61931  0.34082  1.0000
  H   H986      1.0  0.46538  0.55387  0.47215  1.0000
  S   S251      1.0  0.33221  0.63290  0.26657  1.0000
  H   H987      1.0  0.35272  0.35172  0.27670  1.0000
  H   H988      1.0  0.49019  0.36244  0.39840  1.0000
  H   H989      1.0  0.42775  0.55722  0.49612  1.0000
  H   H990      1.0  0.63400  0.53403  0.47893  1.0000
  H   H991      1.0  0.51524  0.52552  0.44018  1.0000
  H   H992      1.0  0.38437  0.55871  0.33211  1.0000
  H   H993      1.0  0.62794  0.55167  0.38153  1.0000
  H   H994      1.0  0.59393  0.58781  0.42875  1.0000
  C   C622      1.0  0.45069  0.33926  0.47045  1.0000
  H   H995      1.0  0.43109  0.46404  0.48733  1.0000
  C   C623      1.0  0.35269  0.57923  0.33775  1.0000
  C   C624      1.0  0.47856  0.51072  0.48559  1.0000
  C   C625      1.0  0.64747  0.60183  0.34118  1.0000
  H   H996      1.0  0.49461  0.43239  0.36934  1.0000
  H   H997      1.0  0.63001  0.57062  0.41110  1.0000
  C   C626      1.0  0.40748  0.61676  0.37324  1.0000
  H   H998      1.0  0.55857  0.40878  0.47719  1.0000
  S   S252      1.0  0.46882  0.37025  0.47606  1.0000
  N   N64       1.0  0.39560  0.60112  0.37126  1.0000
  H   H999      1.0  0.64677  0.34800  0.31667  1.0000
  C   C627      1.0  0.43365  0.42069  0.49630  1.0000
  H   H1000     1.0  0.60092  0.57605  0.45459  1.0000
  N   N65       1.0  0.42037  0.43747  0.48238  1.0000
  H   H1001     1.0  0.43580  0.42405  0.45432  1.0000
  C   C628      1.0  0.34941  0.55603  0.38059  1.0000
  H   H1002     1.0  0.63210  0.53473  0.34733  1.0000
  C   C629      1.0  0.62638  0.60420  0.35377  1.0000
  H   H1003     1.0  0.51662  0.42305  0.38319  1.0000
  C   C630      1.0  0.33369  0.58394  0.35287  1.0000
  H   H1004     1.0  0.64098  0.61474  0.40546  1.0000
  H   H1005     1.0  0.46276  0.38392  0.43247  1.0000
  H   H1006     1.0  0.65006  0.45706  0.44916  1.0000
  C   C631      1.0  0.63413  0.46178  0.45978  1.0000
  H   H1007     1.0  0.60925  0.45549  0.43597  1.0000
  H   H1008     1.0  0.48535  0.55689  0.44757  1.0000
  H   H1009     1.0  0.49462  0.54166  0.49289  1.0000
  H   H1010     1.0  0.63512  0.42692  0.49275  1.0000
  H   H1011     1.0  0.61677  0.61063  0.40067  1.0000
  H   H1012     1.0  0.65057  0.59898  0.44141  1.0000
  C   C632      1.0  0.60437  0.37198  0.48728  1.0000
  H   H1013     1.0  0.33453  0.51997  0.29028  1.0000
  H   H1014     1.0  0.33243  0.58807  0.27978  1.0000
  C   C633      1.0  0.34224  0.53399  0.28088  1.0000
  C   C634      1.0  0.65440  0.56344  0.35813  1.0000
  C   C635      1.0  0.64237  0.51976  0.31120  1.0000
  H   H1015     1.0  0.62479  0.35156  0.46584  1.0000
  C   C636      1.0  0.52104  0.37010  0.48771  1.0000
  H   H1016     1.0  0.65113  0.51428  0.36114  1.0000
  C   C637      1.0  0.53215  0.34952  0.33024  1.0000
  N   N66       1.0  0.33017  0.55448  0.28764  1.0000
  C   C638      1.0  0.58549  0.38786  0.49050  1.0000
  H   H1017     1.0  0.50462  0.37981  0.49286  1.0000
  H   H1018     1.0  0.65248  0.51750  0.29522  1.0000
  N   N67       1.0  0.36151  0.33797  0.24850  1.0000
  H   H1019     1.0  0.36279  0.33611  0.43979  1.0000
  S   S253      1.0  0.49723  0.33657  0.32554  1.0000
  S   S254      1.0  0.38540  0.33779  0.34750  1.0000
  C   C639      1.0  0.36236  0.33677  0.27099  1.0000
  H   H1020     1.0  0.32841  0.35543  0.25163  1.0000
  Fe  Fe129     1.0  0.42298  0.52339  0.61695  1.0000
  S   S255      1.0  0.44834  0.54093  0.59440  1.0000
  S   S256      1.0  0.39421  0.53678  0.64047  1.0000
  Fe  Fe130     1.0  0.44222  0.48146  0.60079  1.0000
  S   S257      1.0  0.46894  0.49538  0.57659  1.0000
  S   S258      1.0  0.44317  0.44562  0.60750  1.0000
  Fe  Fe131     1.0  0.47173  0.50941  0.60306  1.0000
  S   S259      1.0  0.50467  0.50232  0.61086  1.0000
  Fe  Fe132     1.0  0.44334  0.52520  0.57008  1.0000
  S   S260      1.0  0.44181  0.54373  0.53628  1.0000
  S   S261      1.0  0.44678  0.49331  0.62782  1.0000
  S   S262      1.0  0.41604  0.51006  0.59201  1.0000
  Fe  Fe133     1.0  0.42238  0.37931  0.54603  1.0000
  S   S263      1.0  0.45741  0.37924  0.53245  1.0000
  S   S264      1.0  0.40021  0.41078  0.55155  1.0000
  H   H1021     1.0  0.52435  0.40165  0.63760  1.0000
  Fe  Fe134     1.0  0.46299  0.34730  0.55574  1.0000
  H   H1022     1.0  0.52306  0.45109  0.62551  1.0000
  S   S265      1.0  0.41860  0.36235  0.52233  1.0000
  C   C640      1.0  0.63553  0.49461  0.55772  1.0000
  Fe  Fe135     1.0  0.62266  0.53390  0.58421  1.0000
  Fe  Fe136     1.0  0.58426  0.57129  0.57991  1.0000
  S   S266      1.0  0.60411  0.59347  0.55539  1.0000
  S   S267      1.0  0.54870  0.58330  0.59047  1.0000
  Fe  Fe137     1.0  0.62033  0.56418  0.54126  1.0000
  Fe  Fe138     1.0  0.62771  0.58044  0.57741  1.0000
  S   S268      1.0  0.59800  0.54321  0.56364  1.0000
  S   S269      1.0  0.60666  0.55998  0.60296  1.0000
  S   S270      1.0  0.59076  0.41528  0.52860  1.0000
  Fe  Fe139     1.0  0.61331  0.42061  0.54589  1.0000
  H   H1023     1.0  0.40885  0.58219  0.54919  1.0000
  C   C641      1.0  0.50070  0.36034  0.57419  1.0000
  S   S271      1.0  0.35779  0.63832  0.62091  1.0000
  C   C642      1.0  0.49042  0.38204  0.56766  1.0000
  H   H1024     1.0  0.51560  0.38030  0.52594  1.0000
  H   H1025     1.0  0.51222  0.44895  0.59307  1.0000
  H   H1026     1.0  0.36377  0.55482  0.68678  1.0000
  H   H1027     1.0  0.51231  0.43576  0.65148  1.0000
  S   S272      1.0  0.64616  0.55312  0.56077  1.0000
  C   C643      1.0  0.34479  0.35272  0.60197  1.0000
  C   C644      1.0  0.58270  0.62168  0.60189  1.0000
  H   H1028     1.0  0.39770  0.56914  0.71616  1.0000
  C   C645      1.0  0.50071  0.39916  0.56577  1.0000
  H   H1029     1.0  0.64958  0.63249  0.60836  1.0000
  H   H1030     1.0  0.49282  0.41589  0.56034  1.0000
  H   H1031     1.0  0.57471  0.64884  0.62854  1.0000
  H   H1032     1.0  0.58921  0.60217  0.65358  1.0000
  C   C646      1.0  0.64850  0.59928  0.60962  1.0000
  C   C647      1.0  0.36531  0.59437  0.55520  1.0000
  H   H1033     1.0  0.40074  0.58778  0.69043  1.0000
  Fe  Fe140     1.0  0.60947  0.38090  0.53290  1.0000
  N   N68       1.0  0.37809  0.57362  0.56530  1.0000
  H   H1034     1.0  0.37008  0.60198  0.67169  1.0000
  C   C648      1.0  0.51584  0.52526  0.60695  1.0000
  C   C649      1.0  0.50475  0.54629  0.59926  1.0000
  C   C650      1.0  0.51464  0.56423  0.59482  1.0000
  C   C651      1.0  0.53583  0.56108  0.59751  1.0000
  C   C652      1.0  0.54688  0.54007  0.60534  1.0000
  C   C653      1.0  0.53673  0.52225  0.61044  1.0000
  H   H1035     1.0  0.48867  0.54877  0.59652  1.0000
  H   H1036     1.0  0.50609  0.58046  0.58871  1.0000
  H   H1037     1.0  0.56320  0.53756  0.60765  1.0000
  H   H1038     1.0  0.54523  0.50609  0.61676  1.0000
  C   C654      1.0  0.43111  0.43680  0.59144  1.0000
  C   C655      1.0  0.43674  0.41476  0.59047  1.0000
  C   C656      1.0  0.42730  0.40695  0.57808  1.0000
  C   C657      1.0  0.41180  0.42103  0.56696  1.0000
  C   C658      1.0  0.40592  0.44311  0.56803  1.0000
  C   C659      1.0  0.41579  0.45108  0.58009  1.0000
  H   H1039     1.0  0.44861  0.40368  0.59918  1.0000
  H   H1040     1.0  0.43199  0.38994  0.57736  1.0000
  H   H1041     1.0  0.39390  0.45404  0.55944  1.0000
  H   H1042     1.0  0.41132  0.46813  0.58088  1.0000
  H   H1043     1.0  0.47453  0.38572  0.56413  1.0000
  C   C660      1.0  0.42344  0.51095  0.53480  1.0000
  H   H1044     1.0  0.35764  0.36282  0.55916  1.0000
  H   H1045     1.0  0.63803  0.51119  0.55276  1.0000
  H   H1046     1.0  0.42818  0.50239  0.54984  1.0000
  H   H1047     1.0  0.34908  0.59239  0.55463  1.0000
  C   C661      1.0  0.38411  0.56488  0.63361  1.0000
  C   C662      1.0  0.39747  0.57917  0.62081  1.0000
  C   C663      1.0  0.38917  0.60175  0.61657  1.0000
  C   C664      1.0  0.36756  0.61003  0.62520  1.0000
  C   C665      1.0  0.35412  0.59564  0.63747  1.0000
  C   C666      1.0  0.36239  0.57312  0.64176  1.0000
  H   H1048     1.0  0.41432  0.57293  0.61469  1.0000
  H   H1049     1.0  0.39963  0.61286  0.60705  1.0000
  H   H1050     1.0  0.64855  0.56498  0.61562  1.0000
  H   H1051     1.0  0.35191  0.56206  0.65136  1.0000
  N   N69       1.0  0.56333  0.49513  0.55400  1.0000
  C   C667      1.0  0.55344  0.51861  0.55183  1.0000
  C   C668      1.0  0.57746  0.49137  0.53330  1.0000
  C   C669      1.0  0.54614  0.48235  0.56002  1.0000
  C   C670      1.0  0.57633  0.48822  0.57083  1.0000
  H   H1052     1.0  0.54237  0.52206  0.56699  1.0000
  H   H1053     1.0  0.54386  0.52446  0.53897  1.0000
  H   H1054     1.0  0.38032  0.37378  0.55859  1.0000
  H   H1055     1.0  0.58479  0.47377  0.53422  1.0000
  H   H1056     1.0  0.40936  0.56185  0.57357  1.0000
  H   H1057     1.0  0.59096  0.50036  0.52854  1.0000
  H   H1058     1.0  0.55305  0.46452  0.56178  1.0000
  H   H1059     1.0  0.53600  0.48719  0.54768  1.0000
  H   H1060     1.0  0.53520  0.48490  0.57558  1.0000
  H   H1061     1.0  0.58433  0.47067  0.57265  1.0000
  H   H1062     1.0  0.56621  0.49065  0.58672  1.0000
  H   H1063     1.0  0.58929  0.49772  0.56695  1.0000
  C   C671      1.0  0.63117  0.46248  0.54855  1.0000
  H   H1064     1.0  0.35072  0.56260  0.58785  1.0000
  C   C672      1.0  0.53176  0.37070  0.51989  1.0000
  N   N70       1.0  0.37014  0.57783  0.70136  1.0000
  C   C673      1.0  0.49785  0.44289  0.60384  1.0000
  C   C674      1.0  0.35915  0.59700  0.68738  1.0000
  C   C675      1.0  0.38899  0.58323  0.70565  1.0000
  C   C676      1.0  0.35489  0.57197  0.72187  1.0000
  H   H1065     1.0  0.38710  0.37765  0.59272  1.0000
  C   C677      1.0  0.36972  0.36230  0.56852  1.0000
  H   H1066     1.0  0.52845  0.33920  0.58576  1.0000
  H   H1067     1.0  0.48448  0.45723  0.60566  1.0000
  H   H1068     1.0  0.58000  0.39312  0.50547  1.0000
  H   H1069     1.0  0.37995  0.34557  0.57039  1.0000
  H   H1070     1.0  0.42662  0.40584  0.50279  1.0000
  C   C678      1.0  0.50858  0.44462  0.63551  1.0000
  C   C679      1.0  0.63458  0.48386  0.54229  1.0000
  H   H1071     1.0  0.38578  0.54438  0.70063  1.0000
  H   H1072     1.0  0.55432  0.59703  0.64915  1.0000
  H   H1073     1.0  0.39091  0.54112  0.55982  1.0000
  S   S273      1.0  0.33320  0.65621  0.67534  1.0000
  S   S274      1.0  0.58816  0.36940  0.56419  1.0000
  C   C680      1.0  0.36655  0.56617  0.58753  1.0000
  H   H1074     1.0  0.49970  0.35021  0.52569  1.0000
  H   H1075     1.0  0.47742  0.41236  0.63062  1.0000
  C   C681      1.0  0.52130  0.39460  0.57046  1.0000
  H   H1076     1.0  0.36237  0.55726  0.73270  1.0000
  N   N71       1.0  0.35920  0.36798  0.58960  1.0000
  C   C682      1.0  0.42890  0.53114  0.52429  1.0000
  H   H1077     1.0  0.56842  0.58571  0.62611  1.0000
  C   C683      1.0  0.53087  0.37300  0.57836  1.0000
  C   C684      1.0  0.55194  0.34392  0.49883  1.0000
  C   C685      1.0  0.52068  0.35591  0.58010  1.0000
  C   C686      1.0  0.39942  0.57708  0.56573  1.0000
  Fe  Fe141     1.0  0.61044  0.37894  0.57912  1.0000
  H   H1078     1.0  0.54958  0.64494  0.62538  1.0000
  C   C687      1.0  0.41174  0.50170  0.52586  1.0000
  H   H1079     1.0  0.33387  0.39252  0.57692  1.0000
  C   C688      1.0  0.57278  0.55017  0.50284  1.0000
  C   C689      1.0  0.52029  0.41142  0.62201  1.0000
  C   C690      1.0  0.38112  0.55692  0.55275  1.0000
  H   H1080     1.0  0.36276  0.60734  0.56431  1.0000
  H   H1081     1.0  0.40722  0.48624  0.53420  1.0000
  H   H1082     1.0  0.56893  0.62880  0.59348  1.0000
  H   H1083     1.0  0.39861  0.45020  0.50889  1.0000
  S   S275      1.0  0.59168  0.41338  0.57846  1.0000
  C   C691      1.0  0.65192  0.61582  0.61752  1.0000
  C   C692      1.0  0.59412  0.60649  0.63575  1.0000
  S   S276      1.0  0.63373  0.38696  0.54786  1.0000
  H   H1084     1.0  0.33733  0.60181  0.64362  1.0000
  H   H1085     1.0  0.39040  0.42926  0.50176  1.0000
  N   N72       1.0  0.50242  0.43036  0.62499  1.0000
  H   H1086     1.0  0.60565  0.61764  0.63161  1.0000
  S   S277      1.0  0.63153  0.49839  0.59898  1.0000
  C   C693      1.0  0.63306  0.48401  0.57944  1.0000
  H   H1087     1.0  0.33825  0.39544  0.60175  1.0000
  H   H1088     1.0  0.35337  0.61129  0.69516  1.0000
  H   H1089     1.0  0.36542  0.55371  0.55214  1.0000
  C   C694      1.0  0.37752  0.55922  0.69053  1.0000
  H   H1090     1.0  0.60329  0.59125  0.63029  1.0000
  H   H1091     1.0  0.48563  0.41285  0.65450  1.0000
  S   S278      1.0  0.42800  0.34896  0.57153  1.0000
  S   S279      1.0  0.62866  0.56355  0.50621  1.0000
  C   C695      1.0  0.63046  0.46233  0.58559  1.0000
  S   S280      1.0  0.62043  0.36191  0.50679  1.0000
  S   S281      1.0  0.64048  0.60603  0.58490  1.0000
  H   H1092     1.0  0.59398  0.63322  0.59670  1.0000
  Fe  Fe142     1.0  0.57108  0.40440  0.56119  1.0000
  H   H1093     1.0  0.49536  0.45906  0.63799  1.0000
  C   C696      1.0  0.62949  0.45156  0.57014  1.0000
  S   S282      1.0  0.62745  0.45015  0.52956  1.0000
  C   C697      1.0  0.65757  0.57293  0.64143  1.0000
  H   H1094     1.0  0.54611  0.60819  0.62370  1.0000
  C   C698      1.0  0.48282  0.42265  0.63848  1.0000
  H   H1095     1.0  0.34011  0.56855  0.71910  1.0000
  H   H1096     1.0  0.54599  0.36940  0.58345  1.0000
  H   H1097     1.0  0.51601  0.40037  0.61415  1.0000
  S   S283      1.0  0.53498  0.41591  0.56621  1.0000
  H   H1098     1.0  0.38398  0.59729  0.71375  1.0000
  C   C699      1.0  0.37589  0.36636  0.60166  1.0000
  Fe  Fe143     1.0  0.45431  0.35961  0.51082  1.0000
  H   H1099     1.0  0.62867  0.45406  0.60235  1.0000
  H   H1100     1.0  0.55809  0.63371  0.65064  1.0000
  C   C700      1.0  0.56036  0.60126  0.63146  1.0000
  H   H1101     1.0  0.37361  0.60046  0.53841  1.0000
  H   H1102     1.0  0.62728  0.43489  0.57500  1.0000
  N   N73       1.0  0.57526  0.61657  0.62551  1.0000
  H   H1103     1.0  0.38920  0.56303  0.67507  1.0000
  H   H1104     1.0  0.39779  0.58986  0.57474  1.0000
  C   C701      1.0  0.42356  0.54159  0.50430  1.0000
  H   H1105     1.0  0.34930  0.58555  0.73064  1.0000
  C   C702      1.0  0.56388  0.63693  0.63286  1.0000
  H   H1106     1.0  0.46904  0.43660  0.64109  1.0000
  H   H1107     1.0  0.38578  0.34950  0.60460  1.0000
  H   H1108     1.0  0.34469  0.59365  0.68393  1.0000
  H   H1109     1.0  0.49286  0.43279  0.59545  1.0000
  H   H1110     1.0  0.53521  0.41665  0.61152  1.0000
  H   H1111     1.0  0.63604  0.49233  0.52559  1.0000
  H   H1112     1.0  0.55569  0.55513  0.50915  1.0000
  H   H1113     1.0  0.59165  0.60676  0.59590  1.0000
  C   C703      1.0  0.64625  0.34524  0.60884  1.0000
  H   H1114     1.0  0.56834  0.49685  0.52010  1.0000
  H   H1115     1.0  0.37617  0.55104  0.59601  1.0000
  H   H1116     1.0  0.36329  0.57881  0.59713  1.0000
  H   H1117     1.0  0.38977  0.56204  0.53588  1.0000
  H   H1118     1.0  0.56595  0.52867  0.54778  1.0000
  H   H1119     1.0  0.43459  0.42666  0.51032  1.0000
  S   S284      1.0  0.61865  0.35598  0.60938  1.0000
  H   H1120     1.0  0.33185  0.35363  0.59346  1.0000
  H   H1121     1.0  0.65725  0.37001  0.58211  1.0000
  C   C704      1.0  0.34647  0.39058  0.58619  1.0000
  H   H1122     1.0  0.35701  0.40247  0.57702  1.0000
  H   H1123     1.0  0.33686  0.35619  0.61815  1.0000
  H   H1124     1.0  0.36855  0.37066  0.61761  1.0000
  C   C705      1.0  0.40607  0.51229  0.50607  1.0000
  H   H1125     1.0  0.54220  0.38255  0.51079  1.0000
  N   N74       1.0  0.53022  0.35650  0.50641  1.0000
  H   H1126     1.0  0.58234  0.56889  0.52005  1.0000
  H   H1127     1.0  0.65993  0.55625  0.65059  1.0000
  C   C706      1.0  0.65116  0.57784  0.62165  1.0000
  Fe  Fe144     1.0  0.32865  0.64919  0.64552  1.0000
  S   S285      1.0  0.48964  0.33843  0.57406  1.0000
  C   C707      1.0  0.58783  0.55803  0.50894  1.0000
  H   H1128     1.0  0.53861  0.36101  0.53416  1.0000
  C   C708      1.0  0.65806  0.61094  0.63740  1.0000
  C   C709      1.0  0.51603  0.34124  0.51931  1.0000
  H   H1129     1.0  0.46865  0.51836  0.49918  1.0000
  H   H1130     1.0  0.66011  0.62386  0.64362  1.0000
  C   C710      1.0  0.60988  0.55251  0.50003  1.0000
  H   H1131     1.0  0.66083  0.34718  0.52759  1.0000
  H   H1132     1.0  0.62672  0.33603  0.54948  1.0000
  H   H1133     1.0  0.64219  0.63069  0.81334  1.0000
  C   C711      1.0  0.65424  0.63955  0.80149  1.0000
  H   H1134     1.0  0.64663  0.65728  0.79835  1.0000
  H   H1135     1.0  0.65741  0.63400  0.78614  1.0000
  H   H1136     1.0  0.65809  0.63379  0.84244  1.0000
  N   N75       1.0  0.64800  0.90542  0.12889  1.0000
  C   C712      1.0  0.65175  0.88203  0.13958  1.0000
  C   C713      1.0  0.34448  0.81275  0.10499  1.0000
  H   H1137     1.0  0.58610  0.97140  0.03866  1.0000
  Fe  Fe145     1.0  0.60529  0.90925  0.02773  1.0000
  Fe  Fe146     1.0  0.44580  0.85544  0.02262  1.0000
  H   H1138     1.0  0.62972  0.83360  0.06779  1.0000
  S   S286      1.0  0.48076  0.83933  0.01526  1.0000
  Fe  Fe147     1.0  0.40421  0.86375  0.05535  1.0000
  S   S287      1.0  0.38716  0.88913  0.03136  1.0000
  S   S288      1.0  0.38742  0.85228  0.08934  1.0000
  H   H1139     1.0  0.35465  0.82225  0.01207  1.0000
  H   H1140     1.0  0.61738  0.78223  0.06451  1.0000
  Fe  Fe148     1.0  0.41852  0.90065  0.01970  1.0000
  C   C714      1.0  0.64543  0.82696  0.12927  1.0000
  S   S289      1.0  0.41736  0.83899  0.03468  1.0000
  S   S290      1.0  0.43424  0.87770  0.04585  1.0000
  H   H1141     1.0  0.64278  0.98452  0.05144  1.0000
  H   H1142     1.0  0.62340  0.77897  0.10107  1.0000
  H   H1143     1.0  0.65257  0.92511  0.09680  1.0000
  S   S291      1.0  0.62401  0.87692  0.04134  1.0000
  C   C715      1.0  0.62035  0.84982  0.10668  1.0000
  C   C716      1.0  0.56783  0.99521  0.00593  1.0000
  S   S292      1.0  0.62209  0.93753  0.01683  1.0000
  Fe  Fe149     1.0  0.56602  0.89136  0.03121  1.0000
  S   S293      1.0  0.53294  0.90506  0.02332  1.0000
  H   H1144     1.0  0.43240  0.99700  0.02750  1.0000
  C   C717      1.0  0.62530  0.96135  0.07456  1.0000
  C   C718      1.0  0.63520  0.97084  0.05386  1.0000
  C   C719      1.0  0.63531  0.96267  0.03619  1.0000
  C   C720      1.0  0.62532  0.94516  0.03918  1.0000
  C   C721      1.0  0.61616  0.93515  0.05997  1.0000
  C   C722      1.0  0.61601  0.94334  0.07762  1.0000
  H   H1145     1.0  0.60866  0.92147  0.06246  1.0000
  H   H1146     1.0  0.60816  0.93608  0.09355  1.0000
  C   C723      1.0  0.49624  0.85751  0.01580  1.0000
  C   C724      1.0  0.48723  0.87984  0.01314  1.0000
  C   C725      1.0  0.49895  0.89433  0.01479  1.0000
  C   C726      1.0  0.51967  0.88659  0.01935  1.0000
  C   C727      1.0  0.52901  0.86436  0.02137  1.0000
  C   C728      1.0  0.51732  0.84983  0.01945  1.0000
  H   H1147     1.0  0.38970  0.79849  0.00189  1.0000
  H   H1148     1.0  0.34153  0.79815  0.11674  1.0000
  H   H1149     1.0  0.54509  0.85829  0.02464  1.0000
  H   H1150     1.0  0.33733  0.84152  0.14043  1.0000
  C   C729      1.0  0.42101  0.94988  0.02488  1.0000
  C   C730      1.0  0.42783  0.96973  0.01805  1.0000
  C   C731      1.0  0.42689  0.98180  0.03301  1.0000
  C   C732      1.0  0.41879  0.97429  0.05484  1.0000
  C   C733      1.0  0.41142  0.95463  0.06172  1.0000
  C   C734      1.0  0.41268  0.94229  0.04670  1.0000
  H   H1151     1.0  0.43397  0.97578  0.00115  1.0000
  H   H1152     1.0  0.40245  0.77874  0.02210  1.0000
  H   H1153     1.0  0.40510  0.94877  0.07861  1.0000
  H   H1154     1.0  0.40723  0.92697  0.05199  1.0000
  H   H1155     1.0  0.52440  0.83258  0.02137  1.0000
  C   C735      1.0  0.64416  0.82043  0.06493  1.0000
  C   C736      1.0  0.65390  0.90765  0.10530  1.0000
  H   H1156     1.0  0.33044  0.87046  0.13867  1.0000
  S   S294      1.0  0.42358  0.93478  0.00575  1.0000
  S   S295      1.0  0.62421  0.97211  0.09657  1.0000
  C   C737      1.0  0.62458  0.83336  0.12469  1.0000
  H   H1157     1.0  0.32802  0.85950  0.11733  1.0000
  H   H1158     1.0  0.56169  0.98846  0.04904  1.0000
  C   C738      1.0  0.35388  0.84939  0.07337  1.0000
  C   C739      1.0  0.36622  0.84049  0.08922  1.0000
  C   C740      1.0  0.36144  0.82222  0.10510  1.0000
  H   H1159     1.0  0.64855  0.81432  0.14321  1.0000
  H   H1160     1.0  0.61345  0.80787  0.09862  1.0000
  H   H1161     1.0  0.35729  0.86363  0.06121  1.0000
  H   H1162     1.0  0.37114  0.81512  0.11724  1.0000
  H   H1163     1.0  0.62937  0.80109  0.04202  1.0000
  H   H1164     1.0  0.47113  0.88599  0.00992  1.0000
  H   H1165     1.0  0.55127  0.99778  0.08634  1.0000
  C   C741      1.0  0.65764  0.85399  0.09829  1.0000
  H   H1166     1.0  0.36948  0.76256  0.03561  1.0000
  H   H1167     1.0  0.61985  0.91380  0.15298  1.0000
  H   H1168     1.0  0.38473  0.92881  0.99843  1.0000
  H   H1169     1.0  0.38494  0.77522  0.06024  1.0000
  C   C742      1.0  0.37373  0.79114  0.05628  1.0000
  Fe  Fe150     1.0  0.61076  0.86369  0.02072  1.0000
  H   H1170     1.0  0.64278  0.97024  0.02020  1.0000
  S   S296      1.0  0.41940  0.98898  0.07336  1.0000
  H   H1171     1.0  0.64313  0.90072  0.09955  1.0000
  N   N76       1.0  0.37044  0.79582  0.03402  1.0000
  H   H1172     1.0  0.55071  0.99486  0.01429  1.0000
  C   C743      1.0  0.62822  0.79510  0.09514  1.0000
  C   C744      1.0  0.33208  0.82170  0.08917  1.0000
  H   H1173     1.0  0.39999  0.80737  0.02007  1.0000
  S   S297      1.0  0.58120  0.85704  0.04570  1.0000
  H   H1174     1.0  0.35822  0.79031  0.06817  1.0000
  S   S298      1.0  0.47443  0.99776  0.03686  1.0000
  H   H1175     1.0  0.57593  0.97831  0.00391  1.0000
  H   H1176     1.0  0.63355  0.87375  0.08049  1.0000
  H   H1177     1.0  0.61433  0.90761  0.13019  1.0000
  N   N77       1.0  0.47629  0.92243  0.07145  1.0000
  C   C745      1.0  0.48131  0.93871  0.05135  1.0000
  C   C746      1.0  0.49664  0.90974  0.07812  1.0000
  C   C747      1.0  0.46460  0.90750  0.06785  1.0000
  C   C748      1.0  0.46266  0.93387  0.08846  1.0000
  H   H1178     1.0  0.49022  0.95016  0.05352  1.0000
  H   H1179     1.0  0.46633  0.94856  0.04578  1.0000
  H   H1180     1.0  0.49172  0.93076  0.03821  1.0000
  H   H1181     1.0  0.49349  0.89757  0.09347  1.0000
  H   H1182     1.0  0.50709  0.90055  0.06581  1.0000
  H   H1183     1.0  0.50625  0.92053  0.08036  1.0000
  H   H1184     1.0  0.46008  0.89529  0.08281  1.0000
  H   H1185     1.0  0.47465  0.89822  0.05547  1.0000
  H   H1186     1.0  0.44949  0.91655  0.06218  1.0000
  H   H1187     1.0  0.47096  0.94541  0.09142  1.0000
  H   H1188     1.0  0.45852  0.92217  0.10392  1.0000
  H   H1189     1.0  0.44720  0.94361  0.08389  1.0000
  H   H1190     1.0  0.49168  0.91148  0.01293  1.0000
  H   H1191     1.0  0.65377  0.76517  0.07312  1.0000
  S   S299      1.0  0.59473  0.85620  0.10002  1.0000
  H   H1192     1.0  0.61180  0.82532  0.13495  1.0000
  C   C749      1.0  0.35674  0.81778  0.02904  1.0000
  C   C750      1.0  0.62244  0.79824  0.05964  1.0000
  S   S300      1.0  0.59475  0.89664  0.00451  1.0000
  H   H1193     1.0  0.58725  0.99357  0.04952  1.0000
  C   C751      1.0  0.35964  0.77935  0.03189  1.0000
  C   C752      1.0  0.63684  0.86041  0.09379  1.0000
  S   S301      1.0  0.63596  0.83806  0.00623  1.0000
  S   S302      1.0  0.57539  0.90651  0.05347  1.0000
  H   H1194     1.0  0.65149  0.82400  0.04743  1.0000
  Fe  Fe151     1.0  0.59348  0.87271  0.06542  1.0000
  C   C753      1.0  0.62492  0.91540  0.13526  1.0000
  H   H1195     1.0  0.64819  0.87969  0.15740  1.0000
  C   C754      1.0  0.39158  0.79502  0.01887  1.0000
  H   H1196     1.0  0.38059  0.80401  0.05893  1.0000
  C   C755      1.0  0.57851  0.98855  0.03982  1.0000
  H   H1197     1.0  0.62155  0.93312  0.12774  1.0000
  H   H1198     1.0  0.60759  0.81114  0.06211  1.0000
  H   H1199     1.0  0.61038  0.98647  0.00466  1.0000
  N   N78       1.0  0.63813  0.79884  0.07194  1.0000
  C   C756      1.0  0.33671  0.84016  0.07349  1.0000
  H   H1200     1.0  0.34358  0.77963  0.04313  1.0000
  H   H1201     1.0  0.64126  0.87331  0.13556  1.0000
  H   H1202     1.0  0.34036  0.81871  0.03968  1.0000
  H   H1203     1.0  0.63960  0.79560  0.10488  1.0000
  H   H1204     1.0  0.65749  0.91534  0.15310  1.0000
  C   C757      1.0  0.65769  0.78172  0.06801  1.0000
  H   H1205     1.0  0.65596  0.82158  0.07387  1.0000
  H   H1206     1.0  0.36403  0.83058  0.03118  1.0000
  Fe  Fe152     1.0  0.40239  0.86530  0.00999  1.0000
  H   H1207     1.0  0.35689  0.78241  0.01527  1.0000
  H   H1208     1.0  0.65885  0.93438  0.12759  1.0000
  H   H1209     1.0  0.65992  0.70068  0.20078  1.0000
  H   H1210     1.0  0.62990  0.72629  0.28360  1.0000
  C   C758      1.0  0.64493  0.72825  0.27228  1.0000
  C   C759      1.0  0.64645  0.74826  0.25782  1.0000
  H   H1211     1.0  0.63261  0.76169  0.25809  1.0000
  S   S303      1.0  0.65954  0.68567  0.28975  1.0000
  C   C760      1.0  0.64425  0.71781  0.73643  1.0000
  C   C761      1.0  0.64424  0.71372  0.71651  1.0000
  H   H1212     1.0  0.39829  0.73598  0.73731  1.0000
  H   H1213     1.0  0.38056  0.78478  0.72524  1.0000
  H   H1214     1.0  0.34733  0.68596  0.73090  1.0000
  C   C762      1.0  0.37359  0.77527  0.74113  1.0000
  H   H1215     1.0  0.40945  0.78760  0.74236  1.0000
  H   H1216     1.0  0.36451  0.76437  0.73817  1.0000
  H   H1217     1.0  0.63806  0.72683  0.70420  1.0000
  H   H1218     1.0  0.63784  0.73401  0.73957  1.0000
  C   C763      1.0  0.40630  0.74756  0.74070  1.0000
  H   H1219     1.0  0.41420  0.75658  0.72496  1.0000
  C   C764      1.0  0.65270  0.69272  0.71242  1.0000
  H   H1220     1.0  0.33235  0.68532  0.70034  1.0000
  S   S304      1.0  0.65531  0.68764  0.68697  1.0000
  C   C765      1.0  0.33760  0.70065  0.72314  1.0000
  C   C766      1.0  0.33344  0.71995  0.73045  1.0000
  C   C767      1.0  0.32911  0.70027  0.70582  1.0000
  C   C768      1.0  0.66070  0.67589  0.72832  1.0000
  Fe  Fe153     1.0  0.43305  0.80302  0.89885  1.0000
  S   S305      1.0  0.43999  0.83553  0.88037  1.0000
  S   S306      1.0  0.43916  0.79221  0.93242  1.0000
  Fe  Fe154     1.0  0.42039  0.79445  0.86132  1.0000
  S   S307      1.0  0.42645  0.82638  0.83952  1.0000
  S   S308      1.0  0.40768  0.76941  0.85298  1.0000
  Fe  Fe155     1.0  0.45623  0.81891  0.85315  1.0000
  S   S309      1.0  0.48780  0.82839  0.83520  1.0000
  Fe  Fe156     1.0  0.40965  0.84007  0.86874  1.0000
  S   S310      1.0  0.38706  0.87272  0.86673  1.0000
  S   S311      1.0  0.45187  0.78564  0.87245  1.0000
  S   S312      1.0  0.40109  0.80886  0.88961  1.0000
  Fe  Fe157     1.0  0.55953  0.84908  0.89787  1.0000
  S   S313      1.0  0.55277  0.88417  0.88069  1.0000
  S   S314      1.0  0.53613  0.82679  0.90689  1.0000
  Fe  Fe158     1.0  0.60369  0.85058  0.90287  1.0000
  S   S315      1.0  0.60112  0.88563  0.88618  1.0000
  Fe  Fe159     1.0  0.42523  0.98571  0.86670  1.0000
  Fe  Fe160     1.0  0.56723  0.88982  0.90561  1.0000
  S   S316      1.0  0.55185  0.91834  0.92128  1.0000
  Fe  Fe161     1.0  0.58720  0.87684  0.86299  1.0000
  S   S317      1.0  0.60038  0.88746  0.82782  1.0000
  S   S318      1.0  0.57092  0.85533  0.92447  1.0000
  S   S319      1.0  0.59267  0.84107  0.87797  1.0000
  H   H1221     1.0  0.39715  0.82035  0.93163  1.0000
  N   N79       1.0  0.64933  0.91399  0.96085  1.0000
  C   C769      1.0  0.49924  0.83827  0.95203  1.0000
  C   C770      1.0  0.56460  0.95549  0.92013  1.0000
  H   H1222     1.0  0.61942  0.93102  0.97713  1.0000
  C   C771      1.0  0.37398  0.94026  0.98796  1.0000
  H   H1223     1.0  0.47122  0.86806  0.86210  1.0000
  H   H1224     1.0  0.52033  0.76936  0.82652  1.0000
  H   H1225     1.0  0.57216  0.78693  0.84198  1.0000
  H   H1226     1.0  0.54772  0.96320  0.92203  1.0000
  H   H1227     1.0  0.49543  0.83219  0.96981  1.0000
  C   C772      1.0  0.49187  0.93106  0.95710  1.0000
  H   H1228     1.0  0.47996  0.87013  0.97332  1.0000
  H   H1229     1.0  0.65622  0.93350  0.97895  1.0000
  H   H1230     1.0  0.38979  0.78952  0.76686  1.0000
  C   C773      1.0  0.35969  0.79455  0.80827  1.0000
  H   H1231     1.0  0.51481  0.78487  0.84672  1.0000
  H   H1232     1.0  0.55735  0.76790  0.86127  1.0000
  C   C774      1.0  0.57113  0.93327  0.92002  1.0000
  C   C775      1.0  0.59308  0.92348  0.91777  1.0000
  H   H1233     1.0  0.59816  0.90612  0.91876  1.0000
  C   C776      1.0  0.60101  0.86490  0.81780  1.0000
  C   C777      1.0  0.58420  0.85358  0.82658  1.0000
  C   C778      1.0  0.58560  0.83366  0.82150  1.0000
  C   C779      1.0  0.62679  0.92617  0.96148  1.0000
  H   H1234     1.0  0.57024  0.86009  0.83767  1.0000
  H   H1235     1.0  0.57258  0.82495  0.82875  1.0000
  H   H1236     1.0  0.34032  0.86249  0.87861  1.0000
  C   C780      1.0  0.61912  0.84961  0.94861  1.0000
  C   C781      1.0  0.63500  0.83441  0.93842  1.0000
  H   H1237     1.0  0.41027  0.94325  0.94062  1.0000
  H   H1238     1.0  0.60662  0.86019  0.94051  1.0000
  C   C782      1.0  0.50157  0.82816  0.85481  1.0000
  C   C783      1.0  0.51778  0.84026  0.84988  1.0000
  C   C784      1.0  0.52841  0.84010  0.86590  1.0000
  C   C785      1.0  0.52313  0.82751  0.88661  1.0000
  C   C786      1.0  0.50707  0.81535  0.89142  1.0000
  C   C787      1.0  0.49623  0.81578  0.87560  1.0000
  H   H1239     1.0  0.52209  0.84981  0.83381  1.0000
  H   H1240     1.0  0.54072  0.84959  0.86228  1.0000
  H   H1241     1.0  0.50289  0.80563  0.90747  1.0000
  H   H1242     1.0  0.48390  0.80623  0.87956  1.0000
  C   C788      1.0  0.39452  0.88516  0.88346  1.0000
  C   C789      1.0  0.39603  0.90717  0.87715  1.0000
  C   C790      1.0  0.40652  0.91561  0.88822  1.0000
  C   C791      1.0  0.41536  0.90200  0.90556  1.0000
  C   C792      1.0  0.41251  0.88047  0.91269  1.0000
  C   C793      1.0  0.40204  0.87213  0.90166  1.0000
  H   H1243     1.0  0.39020  0.91734  0.86305  1.0000
  H   H1244     1.0  0.40856  0.93234  0.88272  1.0000
  H   H1245     1.0  0.40050  0.85526  0.90678  1.0000
  C   C794      1.0  0.38955  0.77920  0.83548  1.0000
  C   C795      1.0  0.38971  0.79920  0.82078  1.0000
  H   H1246     1.0  0.41906  0.86993  0.92625  1.0000
  C   C796      1.0  0.35947  0.77460  0.82304  1.0000
  C   C797      1.0  0.37456  0.76682  0.83644  1.0000
  H   H1247     1.0  0.48568  0.97170  0.93090  1.0000
  H   H1248     1.0  0.37435  0.75137  0.84787  1.0000
  C   C798      1.0  0.40322  0.82262  0.94444  1.0000
  C   C799      1.0  0.42329  0.81046  0.94854  1.0000
  H   H1249     1.0  0.46104  0.92764  0.83810  1.0000
  H   H1250     1.0  0.34760  0.76522  0.82432  1.0000
  H   H1251     1.0  0.40144  0.80867  0.81974  1.0000
  H   H1252     1.0  0.54973  0.95364  0.85595  1.0000
  H   H1253     1.0  0.47200  0.89065  0.95080  1.0000
  H   H1254     1.0  0.47765  0.88087  0.91567  1.0000
  S   S320      1.0  0.43162  0.91101  0.91722  1.0000
  C   C800      1.0  0.60194  0.95846  0.91446  1.0000
  C   C801      1.0  0.40413  0.94324  0.95793  1.0000
  H   H1255     1.0  0.36131  0.84103  0.82896  1.0000
  S   S321      1.0  0.65114  0.74857  0.80737  1.0000
  S   S322      1.0  0.60627  0.79843  0.80416  1.0000
  S   S323      1.0  0.38319  0.85945  0.98927  1.0000
  H   H1256     1.0  0.50578  0.86923  0.91612  1.0000
  H   H1257     1.0  0.48905  0.91959  0.97298  1.0000
  N   N80       1.0  0.48351  0.85819  0.94499  1.0000
  H   H1258     1.0  0.59869  0.96374  0.81386  1.0000
  H   H1259     1.0  0.35899  0.83804  0.88669  1.0000
  H   H1260     1.0  0.40438  0.95952  0.96033  1.0000
  S   S324      1.0  0.45242  0.95629  0.86852  1.0000
  H   H1261     1.0  0.50596  0.98063  0.93813  1.0000
  C   C802      1.0  0.40150  0.77780  0.75757  1.0000
  H   H1262     1.0  0.63817  0.77570  0.85119  1.0000
  C   C803      1.0  0.63768  0.79341  0.84429  1.0000
  H   H1263     1.0  0.36741  0.97109  0.95205  1.0000
  C   C804      1.0  0.61908  0.85660  0.80327  1.0000
  H   H1264     1.0  0.37327  0.95698  0.98987  1.0000
  H   H1265     1.0  0.38913  0.91376  0.94667  1.0000
  C   C805      1.0  0.48917  0.86576  0.92139  1.0000
  H   H1266     1.0  0.37205  0.73821  0.77141  1.0000
  H   H1267     1.0  0.44633  0.80358  0.96878  1.0000
  S   S325      1.0  0.65313  0.70493  0.77721  1.0000
  H   H1268     1.0  0.39260  0.74041  0.78384  1.0000
  H   H1269     1.0  0.51440  0.93475  0.98438  1.0000
  H   H1270     1.0  0.37722  0.83833  0.84833  1.0000
  C   C806      1.0  0.46339  0.88568  0.86001  1.0000
  H   H1271     1.0  0.47397  0.89426  0.86408  1.0000
  H   H1272     1.0  0.37308  0.95222  0.93477  1.0000
  H   H1273     1.0  0.56628  0.74555  0.83345  1.0000
  C   C807      1.0  0.51655  0.94571  0.96815  1.0000
  C   C808      1.0  0.44999  0.91854  0.83559  1.0000
  S   S326      1.0  0.63454  0.83158  0.91283  1.0000
  N   N81       1.0  0.45964  0.89499  0.83791  1.0000
  H   H1274     1.0  0.49227  0.89982  0.82543  1.0000
  S   S327      1.0  0.50234  0.97197  0.87789  1.0000
  N   N82       1.0  0.34379  0.83718  0.86178  1.0000
  H   H1275     1.0  0.44637  0.92599  0.81929  1.0000
  C   C809      1.0  0.53074  0.99153  0.88579  1.0000
  C   C810      1.0  0.36771  0.95391  0.95182  1.0000
  H   H1276     1.0  0.56424  0.93978  0.87692  1.0000
  H   H1277     1.0  0.43454  0.92146  0.84745  1.0000
  C   C811      1.0  0.36100  0.84533  0.84427  1.0000
  H   H1278     1.0  0.56638  0.92693  0.85532  1.0000
  C   C812      1.0  0.58479  0.95625  0.82372  1.0000
  H   H1279     1.0  0.64834  0.89675  0.93759  1.0000
  C   C813      1.0  0.62067  0.83637  0.79838  1.0000
  H   H1280     1.0  0.58653  0.94051  0.81900  1.0000
  H   H1281     1.0  0.63215  0.86536  0.79649  1.0000
  S   S328      1.0  0.62113  0.97415  0.91133  1.0000
  Fe  Fe162     1.0  0.63895  0.78177  0.78867  1.0000
  C   C814      1.0  0.60403  0.82475  0.80781  1.0000
  C   C815      1.0  0.50058  0.96589  0.93762  1.0000
  H   H1282     1.0  0.54477  0.79619  0.85495  1.0000
  C   C816      1.0  0.56390  0.76099  0.82113  1.0000
  H   H1283     1.0  0.51599  0.84131  0.94764  1.0000
  C   C817      1.0  0.54573  0.79875  0.81354  1.0000
  H   H1284     1.0  0.56690  0.98549  0.84893  1.0000
  H   H1285     1.0  0.52099  0.96059  0.96964  1.0000
  C   C818      1.0  0.38321  0.91580  0.96358  1.0000
  Fe  Fe163     1.0  0.42337  0.99061  0.91133  1.0000
  C   C819      1.0  0.41878  0.82850  0.97774  1.0000
  H   H1286     1.0  0.53416  0.81246  0.82000  1.0000
  N   N83       1.0  0.54813  0.77859  0.83048  1.0000
  H   H1287     1.0  0.48788  0.87441  0.82327  1.0000
  H   H1288     1.0  0.45155  0.86590  0.83526  1.0000
  H   H1289     1.0  0.54224  0.97654  0.88412  1.0000
  Fe  Fe164     1.0  0.46647  0.97491  0.88373  1.0000
  H   H1290     1.0  0.44794  0.88696  0.87213  1.0000
  C   C820      1.0  0.37489  0.80678  0.80709  1.0000
  H   H1291     1.0  0.37554  0.99950  0.87215  1.0000
  C   C821      1.0  0.47853  0.96234  0.97354  1.0000
  H   H1292     1.0  0.41404  0.76890  0.76719  1.0000
  H   H1293     1.0  0.64106  0.79572  0.82649  1.0000
  H   H1294     1.0  0.53963  0.79642  0.80024  1.0000
  H   H1295     1.0  0.47713  0.93468  0.95032  1.0000
  H   H1296     1.0  0.36710  0.91118  0.96947  1.0000
  H   H1297     1.0  0.51310  0.95742  0.92583  1.0000
  H   H1298     1.0  0.35755  0.93649  0.99425  1.0000
  C   C822      1.0  0.56530  0.94284  0.85930  1.0000
  C   C823      1.0  0.39087  0.83761  0.95706  1.0000
  C   C824      1.0  0.43086  0.81310  0.96548  1.0000
  H   H1299     1.0  0.64988  0.77994  0.88259  1.0000
  H   H1300     1.0  0.56139  0.80410  0.80639  1.0000
  H   H1301     1.0  0.55855  0.75755  0.80789  1.0000
  H   H1302     1.0  0.52817  0.75678  0.85196  1.0000
  H   H1303     1.0  0.49938  0.82483  0.94443  1.0000
  H   H1304     1.0  0.42893  0.88554  0.84519  1.0000
  C   C825      1.0  0.60850  0.93612  0.91467  1.0000
  H   H1305     1.0  0.57476  0.98523  0.91691  1.0000
  H   H1306     1.0  0.62546  0.92859  0.91242  1.0000
  S   S329      1.0  0.34417  0.72027  0.75205  1.0000
  H   H1307     1.0  0.37537  0.84701  0.95379  1.0000
  H   H1308     1.0  0.44148  0.89028  0.81717  1.0000
  H   H1309     1.0  0.35087  0.95114  0.95743  1.0000
  C   C826      1.0  0.48044  0.89202  0.82233  1.0000
  H   H1310     1.0  0.36438  0.80573  0.87016  1.0000
  S   S330      1.0  0.43202  0.87934  0.99584  1.0000
  H   H1311     1.0  0.63988  0.88343  0.97728  1.0000
  H   H1312     1.0  0.60670  0.86235  0.97747  1.0000
  H   H1313     1.0  0.63480  0.82973  0.78751  1.0000
  S   S331      1.0  0.34153  0.80444  0.79078  1.0000
  H   H1314     1.0  0.58002  0.76551  0.81424  1.0000
  C   C827      1.0  0.55595  0.78257  0.84793  1.0000
  C   C828      1.0  0.64987  0.89437  0.97853  1.0000
  H   H1315     1.0  0.36828  0.76085  0.78369  1.0000
  C   C829      1.0  0.52697  0.77206  0.83929  1.0000
  S   S332      1.0  0.45010  0.96183  0.91728  1.0000
  H   H1316     1.0  0.50026  0.87958  0.95111  1.0000
  H   H1317     1.0  0.50547  0.92236  0.94628  1.0000
  H   H1318     1.0  0.37522  0.82215  0.79554  1.0000
  H   H1319     1.0  0.62084  0.80237  0.84929  1.0000
  H   H1320     1.0  0.60652  0.92199  0.84770  1.0000
  C   C830      1.0  0.34329  0.84435  0.88141  1.0000
  Fe  Fe165     1.0  0.43387  0.94573  0.90182  1.0000
  C   C831      1.0  0.57998  0.96806  0.91720  1.0000
  S   S333      1.0  0.40530  0.97339  0.89888  1.0000
  C   C832      1.0  0.34816  0.81306  0.86611  1.0000
  H   H1321     1.0  0.47827  0.89921  0.80552  1.0000
  C   C833      1.0  0.44475  0.88370  0.83367  1.0000
  H   H1322     1.0  0.46065  0.84072  0.94287  1.0000
  C   C834      1.0  0.48393  0.87548  0.95549  1.0000
  H   H1323     1.0  0.47487  0.95156  0.98972  1.0000
  H   H1324     1.0  0.61862  0.94503  0.84353  1.0000
  C   C835      1.0  0.61926  0.85097  0.96948  1.0000
  H   H1325     1.0  0.46351  0.96726  0.96697  1.0000
  C   C836      1.0  0.38045  0.74992  0.77396  1.0000
  C   C837      1.0  0.50950  0.99354  0.88390  1.0000
  C   C838      1.0  0.58194  0.97385  0.85263  1.0000
  N   N84       1.0  0.49687  0.95126  0.95911  1.0000
  N   N85       1.0  0.38224  0.93829  0.96533  1.0000
  C   C839      1.0  0.39875  0.84073  0.97356  1.0000
  N   N86       1.0  0.58404  0.95274  0.84698  1.0000
  H   H1326     1.0  0.41590  0.93086  0.96670  1.0000
  H   H1327     1.0  0.58140  0.97169  0.87010  1.0000
  H   H1328     1.0  0.42491  0.83073  0.99054  1.0000
  H   H1329     1.0  0.56973  0.96722  0.81926  1.0000
  H   H1330     1.0  0.34783  0.80717  0.85185  1.0000
  H   H1331     1.0  0.59582  0.98178  0.84365  1.0000
  H   H1332     1.0  0.63529  0.83443  0.84681  1.0000
  H   H1333     1.0  0.35876  0.86342  0.84122  1.0000
  H   H1334     1.0  0.60390  0.93453  0.86976  1.0000
  H   H1335     1.0  0.62593  0.94148  0.94890  1.0000
  C   C840      1.0  0.46164  0.85324  0.95109  1.0000
  H   H1336     1.0  0.53065  0.93710  0.95780  1.0000
  C   C841      1.0  0.65134  0.82105  0.94885  1.0000
  C   C842      1.0  0.60417  0.93792  0.85223  1.0000
  H   H1337     1.0  0.39441  0.90362  0.97318  1.0000
  H   H1338     1.0  0.48201  0.97739  0.97579  1.0000
  H   H1339     1.0  0.44916  0.86802  0.94669  1.0000
  N   N87       1.0  0.39050  0.76264  0.75332  1.0000
  C   C843      1.0  0.63539  0.83721  0.98005  1.0000
  H   H1340     1.0  0.48878  0.85313  0.91302  1.0000
  H   H1341     1.0  0.45720  0.84676  0.96872  1.0000
  S   S334      1.0  0.64314  0.77052  0.75824  1.0000
  C   C844      1.0  0.65151  0.82243  0.96964  1.0000
  H   H1342     1.0  0.61642  0.91632  0.95891  1.0000
  H   H1343     1.0  0.33048  0.83859  0.89501  1.0000
  H   H1344     1.0  0.33595  0.80626  0.87975  1.0000
  N   N88       1.0  0.65344  0.80134  0.85122  1.0000
  H   H1345     1.0  0.63206  0.80620  0.88123  1.0000
  C   C845      1.0  0.64866  0.79759  0.87495  1.0000
  H   H1346     1.0  0.41923  0.73767  0.74950  1.0000
  H   H1347     1.0  0.64356  0.89886  0.99451  1.0000
  C   C846      1.0  0.65189  0.82495  0.84188  1.0000
  H   H1348     1.0  0.36166  0.78716  0.75006  1.0000
  C   C847      1.0  0.65809  0.90733  0.94001  1.0000
  H   H1349     1.0  0.65801  0.92182  0.92635  1.0000
  H   H1350     1.0  0.65575  0.82834  0.82398  1.0000
  Fe  Fe166     1.0  0.65814  0.73808  0.77620  1.0000
  C   C848      1.0  0.65236  0.70078  0.75226  1.0000
  S   S335      1.0  0.32818  0.74562  0.80150  1.0000
  H   H1351     1.0  0.65998  0.80374  0.88078  1.0000
  S   S336      1.0  0.41237  0.00103  0.83649  1.0000
  C   C849      1.0  0.66030  0.67986  0.74818  1.0000
  H   H1352     1.0  0.87510  0.24333  0.17072  1.0000
  H   H1353     1.0  0.77016  0.13679  0.18031  1.0000
  S   S337      1.0  0.70874  0.14673  0.18724  1.0000
  S   S338      1.0  0.69639  0.16627  0.13914  1.0000
  N   N89       1.0  0.87590  0.30102  0.03990  1.0000
  C   C850      1.0  0.86788  0.28175  0.05427  1.0000
  C   C851      1.0  0.86426  0.32796  0.10405  1.0000
  H   H1354     1.0  0.67685  0.23436  0.20514  1.0000
  H   H1355     1.0  0.75902  0.17674  0.23741  1.0000
  H   H1356     1.0  0.78220  0.11182  0.22332  1.0000
  H   H1357     1.0  0.87950  0.31718  0.00653  1.0000
  Fe  Fe167     1.0  0.75295  0.26478  0.16466  1.0000
  S   S339      1.0  0.77632  0.27837  0.17409  1.0000
  S   S340      1.0  0.71686  0.27383  0.17468  1.0000
  Fe  Fe168     1.0  0.78819  0.23603  0.13874  1.0000
  S   S341      1.0  0.81489  0.24692  0.14597  1.0000
  S   S342      1.0  0.79696  0.21345  0.11599  1.0000
  Fe  Fe169     1.0  0.79486  0.24385  0.17933  1.0000
  S   S343      1.0  0.80898  0.22874  0.20863  1.0000
  Fe  Fe170     1.0  0.79418  0.28042  0.13984  1.0000
  S   S344      1.0  0.80587  0.31129  0.12196  1.0000
  S   S345      1.0  0.76994  0.22983  0.17288  1.0000
  S   S346      1.0  0.76905  0.26989  0.12975  1.0000
  Fe  Fe171     1.0  0.67312  0.14352  0.14990  1.0000
  C   C852      1.0  0.81426  0.16465  0.23651  1.0000
  C   C853      1.0  0.89876  0.29897  0.04057  1.0000
  C   C854      1.0  0.86283  0.32100  0.04712  1.0000
  C   C855      1.0  0.81705  0.15497  0.21914  1.0000
  H   H1358     1.0  0.71744  0.22812  0.23003  1.0000
  Fe  Fe172     1.0  0.71902  0.13815  0.15500  1.0000
  C   C856      1.0  0.82939  0.28241  0.17755  1.0000
  S   S347      1.0  0.75422  0.13092  0.13999  1.0000
  C   C857      1.0  0.86646  0.28665  0.16888  1.0000
  C   C858      1.0  0.85271  0.26374  0.20262  1.0000
  H   H1359     1.0  0.86228  0.30094  0.17655  1.0000
  S   S348      1.0  0.69700  0.11445  0.16290  1.0000
  H   H1360     1.0  0.84751  0.27759  0.21098  1.0000
  H   H1361     1.0  0.68801  0.10899  0.12394  1.0000
  H   H1362     1.0  0.87721  0.26640  0.04912  1.0000
  C   C859      1.0  0.66104  0.07899  0.10893  1.0000
  H   H1363     1.0  0.82779  0.28771  0.16042  1.0000
  H   H1364     1.0  0.73489  0.23805  0.15024  1.0000
  S   S349      1.0  0.81934  0.12667  0.22327  1.0000
  H   H1365     1.0  0.75134  0.23641  0.23349  1.0000
  H   H1366     1.0  0.67578  0.07765  0.19324  1.0000
  N   N90       1.0  0.85175  0.27127  0.17959  1.0000
  C   C860      1.0  0.78523  0.19033  0.12371  1.0000
  C   C861      1.0  0.76733  0.18848  0.14069  1.0000
  C   C862      1.0  0.75723  0.17062  0.14537  1.0000
  C   C863      1.0  0.76575  0.15404  0.13373  1.0000
  C   C864      1.0  0.78412  0.15555  0.11731  1.0000
  C   C865      1.0  0.79359  0.17384  0.11205  1.0000
  H   H1367     1.0  0.76113  0.20096  0.14996  1.0000
  H   H1368     1.0  0.74313  0.16949  0.15820  1.0000
  H   H1369     1.0  0.79079  0.14278  0.10831  1.0000
  H   H1370     1.0  0.80747  0.17517  0.09893  1.0000
  C   C866      1.0  0.70790  0.27377  0.20224  1.0000
  C   C867      1.0  0.72222  0.27380  0.21470  1.0000
  C   C868      1.0  0.71499  0.27292  0.23686  1.0000
  H   H1371     1.0  0.85785  0.25724  0.15199  1.0000
  C   C869      1.0  0.67921  0.27155  0.23425  1.0000
  C   C870      1.0  0.68627  0.27310  0.21199  1.0000
  H   H1372     1.0  0.73883  0.27460  0.20729  1.0000
  S   S350      1.0  0.90653  0.30642  0.09751  1.0000
  H   H1373     1.0  0.86938  0.25534  0.20480  1.0000
  H   H1374     1.0  0.67503  0.27345  0.20236  1.0000
  H   H1375     1.0  0.84189  0.25193  0.21106  1.0000
  C   C871      1.0  0.81255  0.18723  0.23314  1.0000
  C   C872      1.0  0.81290  0.20031  0.21246  1.0000
  H   H1376     1.0  0.90536  0.31309  0.02963  1.0000
  C   C873      1.0  0.81529  0.19074  0.19510  1.0000
  C   C874      1.0  0.78612  0.12545  0.18054  1.0000
  C   C875      1.0  0.85835  0.25223  0.16937  1.0000
  H   H1377     1.0  0.86552  0.29320  0.15166  1.0000
  H   H1378     1.0  0.77030  0.08897  0.22620  1.0000
  C   C876      1.0  0.87862  0.30783  0.10432  1.0000
  C   C877      1.0  0.84191  0.32887  0.10925  1.0000
  C   C878      1.0  0.69548  0.09341  0.24042  1.0000
  C   C879      1.0  0.83388  0.30967  0.11480  1.0000
  C   C880      1.0  0.84826  0.28956  0.11485  1.0000
  C   C881      1.0  0.87063  0.28861  0.10983  1.0000
  H   H1379     1.0  0.88361  0.27865  0.16940  1.0000
  H   H1380     1.0  0.66935  0.05180  0.20784  1.0000
  H   H1381     1.0  0.84217  0.27478  0.11849  1.0000
  H   H1382     1.0  0.88176  0.27303  0.10991  1.0000
  N   N91       1.0  0.71596  0.24197  0.12687  1.0000
  C   C882      1.0  0.71139  0.26608  0.12260  1.0000
  C   C883      1.0  0.69697  0.23453  0.12542  1.0000
  C   C884      1.0  0.72046  0.23312  0.14868  1.0000
  C   C885      1.0  0.73498  0.23409  0.11096  1.0000
  H   H1383     1.0  0.70778  0.27347  0.10633  1.0000
  H   H1384     1.0  0.72533  0.27222  0.12376  1.0000
  H   H1385     1.0  0.69733  0.27238  0.13466  1.0000
  H   H1386     1.0  0.69309  0.24076  0.10915  1.0000
  H   H1387     1.0  0.69975  0.21637  0.12896  1.0000
  H   H1388     1.0  0.68238  0.24011  0.13735  1.0000
  H   H1389     1.0  0.72324  0.21499  0.15284  1.0000
  C   C886      1.0  0.70946  0.10671  0.23999  1.0000
  C   C887      1.0  0.67795  0.08471  0.11416  1.0000
  H   H1390     1.0  0.73855  0.21594  0.11361  1.0000
  H   H1391     1.0  0.66257  0.27078  0.24174  1.0000
  H   H1392     1.0  0.73242  0.24079  0.09423  1.0000
  C   C888      1.0  0.66939  0.05742  0.16572  1.0000
  S   S351      1.0  0.66420  0.05220  0.10603  1.0000
  H   H1393     1.0  0.90066  0.29831  0.05706  1.0000
  H   H1394     1.0  0.67302  0.18678  0.24502  1.0000
  H   H1395     1.0  0.75650  0.11624  0.21627  1.0000
  H   H1396     1.0  0.81784  0.27145  0.18604  1.0000
  H   H1397     1.0  0.76841  0.07777  0.19375  1.0000
  H   H1398     1.0  0.74980  0.23882  0.11206  1.0000
  H   H1399     1.0  0.71215  0.20116  0.24080  1.0000
  C   C889      1.0  0.80523  0.08908  0.19359  1.0000
  H   H1400     1.0  0.79410  0.12491  0.16351  1.0000
  H   H1401     1.0  0.73359  0.20607  0.21772  1.0000
  H   H1402     1.0  0.70801  0.12299  0.23018  1.0000
  C   C890      1.0  0.77266  0.10518  0.21583  1.0000
  H   H1403     1.0  0.81986  0.16069  0.18488  1.0000
  H   H1404     1.0  0.81557  0.20075  0.17906  1.0000
  C   C891      1.0  0.81769  0.16805  0.19840  1.0000
  S   S352      1.0  0.68195  0.20599  0.17755  1.0000
  Fe  Fe173     1.0  0.68441  0.12592  0.19386  1.0000
  S   S353      1.0  0.67548  0.10252  0.22493  1.0000
  H   H1405     1.0  0.80399  0.07246  0.20349  1.0000
  H   H1406     1.0  0.86932  0.28007  0.07110  1.0000
  C   C892      1.0  0.67495  0.10482  0.11971  1.0000
  H   H1407     1.0  0.81549  0.09566  0.20038  1.0000
  H   H1408     1.0  0.81394  0.08746  0.17700  1.0000
  H   H1409     1.0  0.86398  0.32060  0.06376  1.0000
  N   N92       1.0  0.78366  0.10350  0.19356  1.0000
  H   H1410     1.0  0.67191  0.14555  0.23226  1.0000
  C   C893      1.0  0.75791  0.21856  0.23729  1.0000
  H   H1411     1.0  0.84747  0.24038  0.17702  1.0000
  C   C894      1.0  0.77057  0.09435  0.18435  1.0000
  H   H1412     1.0  0.75416  0.10486  0.18418  1.0000
  C   C895      1.0  0.87417  0.30243  0.01763  1.0000
  Fe  Fe174     1.0  0.68417  0.17305  0.17215  1.0000
  H   H1413     1.0  0.69328  0.07331  0.11439  1.0000
  H   H1414     1.0  0.77819  0.09315  0.16739  1.0000
  H   H1415     1.0  0.85722  0.30346  0.01660  1.0000
  H   H1416     1.0  0.79604  0.13279  0.18700  1.0000
  C   C896      1.0  0.72529  0.21051  0.23346  1.0000
  H   H1417     1.0  0.70668  0.23921  0.16108  1.0000
  H   H1418     1.0  0.85053  0.28295  0.05455  1.0000
  H   H1419     1.0  0.76704  0.21378  0.22192  1.0000
  H   H1420     1.0  0.82402  0.29722  0.18453  1.0000
  H   H1421     1.0  0.90915  0.28396  0.03547  1.0000
  H   H1422     1.0  0.84542  0.32302  0.04709  1.0000
  H   H1423     1.0  0.68235  0.06701  0.15825  1.0000
  H   H1424     1.0  0.88447  0.28801  0.01132  1.0000
  S   S354      1.0  0.93812  0.32857  0.04241  1.0000
  H   H1425     1.0  0.67720  0.04062  0.17292  1.0000
  C   C897      1.0  0.66243  0.06845  0.19944  1.0000
  H   H1426     1.0  0.72612  0.27295  0.24643  1.0000
  C   C898      1.0  0.69360  0.27130  0.24671  1.0000
  H   H1427     1.0  0.81063  0.19456  0.24663  1.0000
  H   H1428     1.0  0.94295  0.32623  0.99740  1.0000
  H   H1429     1.0  0.66244  0.05613  0.15247  1.0000
  C   C899      1.0  0.66158  0.22949  0.20784  1.0000
  Fe  Fe175     1.0  0.91555  0.33579  0.07283  1.0000
  H   H1430     1.0  0.86841  0.33587  0.03653  1.0000
  H   H1431     1.0  0.86555  0.10813  0.39262  1.0000
  Fe  Fe176     1.0  0.76894  0.08833  0.28180  1.0000
  H   H1432     1.0  0.84713  0.03158  0.29378  1.0000
  C   C900      1.0  0.85543  0.11281  0.38023  1.0000
  Fe  Fe177     1.0  0.77448  0.12661  0.29659  1.0000
  S   S355      1.0  0.81069  0.11860  0.28723  1.0000
  H   H1433     1.0  0.85771  0.12925  0.37054  1.0000
  H   H1434     1.0  0.69075  0.16061  0.25098  1.0000
  C   C901      1.0  0.85831  0.07503  0.38015  1.0000
  Fe  Fe178     1.0  0.80724  0.08386  0.30146  1.0000
  S   S356      1.0  0.82572  0.05844  0.32449  1.0000
  C   C902      1.0  0.89047  0.09601  0.46667  1.0000
  S   S357      1.0  0.77141  0.09242  0.31368  1.0000
  S   S358      1.0  0.75769  0.15715  0.30858  1.0000
  N   N93       1.0  0.86145  0.09659  0.36657  1.0000
  Fe  Fe179     1.0  0.92410  0.05195  0.39433  1.0000
  C   C903      1.0  0.71637  0.18020  0.31745  1.0000
  Fe  Fe180     1.0  0.93299  0.04280  0.34993  1.0000
  H   H1435     1.0  0.92759  0.04907  0.44013  1.0000
  S   S359      1.0  0.92408  0.05657  0.31747  1.0000
  H   H1436     1.0  0.73984  0.20875  0.27985  1.0000
  C   C904      1.0  0.91818  0.06298  0.46830  1.0000
  C   C905      1.0  0.69397  0.18396  0.31918  1.0000
  C   C906      1.0  0.84678  0.01637  0.28924  1.0000
  S   S360      1.0  0.90828  0.03438  0.37979  1.0000
  S   S361      1.0  0.94742  0.06234  0.36378  1.0000
  S   S362      1.0  0.90124  0.07806  0.41025  1.0000
  C   C907      1.0  0.88439  0.09517  0.35551  1.0000
  C   C908      1.0  0.90294  0.07831  0.43629  1.0000
  Fe  Fe181     1.0  0.96924  0.03061  0.37498  1.0000
  H   H1437     1.0  0.86826  0.06959  0.39272  1.0000
  H   H1438     1.0  0.88015  0.10917  0.47399  1.0000
  S   S363      1.0  0.94721  0.02177  0.40684  1.0000
  S   S364      1.0  0.80459  0.07737  0.27060  1.0000
  C   C909      1.0  0.88950  0.09514  0.44597  1.0000
  S   S365      1.0  0.76846  0.12344  0.26582  1.0000
  H   H1439     1.0  0.89527  0.09023  0.36718  1.0000
  C   C910      1.0  0.85341  0.05728  0.32104  1.0000
  C   C911      1.0  0.86467  0.04212  0.33592  1.0000
  C   C912      1.0  0.88668  0.04106  0.33407  1.0000
  C   C913      1.0  0.89743  0.05561  0.31776  1.0000
  C   C914      1.0  0.88633  0.07047  0.30252  1.0000
  C   C915      1.0  0.86430  0.07125  0.30410  1.0000
  H   H1440     1.0  0.85635  0.03119  0.34901  1.0000
  H   H1441     1.0  0.89535  0.02888  0.34523  1.0000
  H   H1442     1.0  0.89464  0.08171  0.28980  1.0000
  H   H1443     1.0  0.85569  0.08294  0.29250  1.0000
  H   H1444     1.0  0.85191  0.09142  0.33984  1.0000
  H   H1445     1.0  0.83025  0.10434  0.35811  1.0000
  H   H1446     1.0  0.87848  0.01182  0.31003  1.0000
  C   C916      1.0  0.84768  0.10331  0.35040  1.0000
  H   H1447     1.0  0.88958  0.08287  0.34531  1.0000
  C   C917      1.0  0.72720  0.07785  0.26552  1.0000
  H   H1448     1.0  0.92910  0.05040  0.47697  1.0000
  S   S366      1.0  0.68523  0.26792  0.27471  1.0000
  H   H1449     1.0  0.83824  0.11427  0.38887  1.0000
  S   S367      1.0  0.95721  0.01211  0.35789  1.0000
  C   C918      1.0  0.72958  0.16080  0.31239  1.0000
  C   C919      1.0  0.68464  0.16796  0.31664  1.0000
  C   C920      1.0  0.69779  0.14830  0.31210  1.0000
  C   C921      1.0  0.72029  0.14484  0.30968  1.0000
  H   H1450     1.0  0.69065  0.13578  0.31033  1.0000
  H   H1451     1.0  0.73039  0.12971  0.30600  1.0000
  H   H1452     1.0  0.98781  0.04224  0.40845  1.0000
  H   H1453     1.0  0.68327  0.32944  0.29990  1.0000
  S   S368      1.0  0.74762  0.06691  0.28040  1.0000
  H   H1454     1.0  0.87839  0.10763  0.43739  1.0000
  H   H1455     1.0  0.84113  0.07540  0.38851  1.0000
  H   H1456     1.0  0.76976  0.21569  0.24768  1.0000
  Fe  Fe182     1.0  0.93374  0.00522  0.38895  1.0000
  C   C922      1.0  0.75032  0.18254  0.25242  1.0000
  H   H1457     1.0  0.88738  0.11104  0.34490  1.0000
  H   H1458     1.0  0.86303  0.06233  0.37041  1.0000
  H   H1459     1.0  0.72350  0.19246  0.31980  1.0000
  C   C923      1.0  0.90487  0.08003  0.47784  1.0000
  S   S369      1.0  0.96600  0.04602  0.49659  1.0000
  H   H1460     1.0  0.68389  0.19907  0.32289  1.0000
  C   C924      1.0  0.91727  0.06216  0.44747  1.0000
  C   C925      1.0  0.72899  0.21284  0.26821  1.0000
  H   H1461     1.0  0.84960  0.11951  0.33981  1.0000
  Fe  Fe183     1.0  0.80444  0.11303  0.25740  1.0000
  H   H1462     1.0  0.81381  0.15474  0.25253  1.0000
  H   H1463     1.0  0.68625  0.06230  0.25429  1.0000
  H   H1464     1.0  0.84137  0.01114  0.33201  1.0000
  C   C926      1.0  0.71314  0.06470  0.26599  1.0000
  H   H1465     1.0  0.68352  0.30782  0.32357  1.0000
  H   H1466     1.0  0.72233  0.23072  0.26558  1.0000
  H   H1467     1.0  0.67570  0.17420  0.27232  1.0000
  H   H1468     1.0  0.67562  0.12796  0.27026  1.0000
  H   H1469     1.0  0.71465  0.04835  0.27591  1.0000
  N   N94       1.0  0.74061  0.20611  0.24784  1.0000
  H   H1470     1.0  0.71514  0.20456  0.27604  1.0000
  C   C927      1.0  0.67492  0.17088  0.25685  1.0000
  C   C928      1.0  0.67838  0.31353  0.30782  1.0000
  H   H1471     1.0  0.73789  0.17258  0.26111  1.0000
  H   H1472     1.0  0.68769  0.30155  0.29766  1.0000
  H   H1473     1.0  0.82965  0.01706  0.28903  1.0000
  C   C929      1.0  0.69712  0.07257  0.25372  1.0000
  H   H1474     1.0  0.76235  0.17884  0.26282  1.0000
  H   H1475     1.0  0.85641  0.01687  0.27257  1.0000
  C   C930      1.0  0.72506  0.09906  0.25288  1.0000
  H   H1476     1.0  0.73546  0.10945  0.25300  1.0000
  H   H1477     1.0  0.96409  0.06739  0.59812  1.0000
  H   H1478     1.0  0.75824  0.16569  0.69979  1.0000
  S   S370      1.0  0.85415  0.26202  0.69434  1.0000
  Fe  Fe184     1.0  0.70917  0.25275  0.67188  1.0000
  S   S371      1.0  0.71988  0.25205  0.63695  1.0000
  Fe  Fe185     1.0  0.97711  0.04678  0.52578  1.0000
  Fe  Fe186     1.0  0.74449  0.27535  0.67124  1.0000
  S   S372      1.0  0.75922  0.27548  0.63646  1.0000
  C   C931      1.0  0.76903  0.09598  0.70319  1.0000
  Fe  Fe187     1.0  0.72473  0.28603  0.63248  1.0000
  C   C932      1.0  0.76723  0.10848  0.71807  1.0000
  Fe  Fe188     1.0  0.75302  0.24155  0.64430  1.0000
  S   S373      1.0  0.77233  0.21092  0.63395  1.0000
  S   S374      1.0  0.71029  0.28789  0.66690  1.0000
  S   S375      1.0  0.74207  0.24026  0.67961  1.0000
  S   S376      1.0  0.87752  0.12420  0.63621  1.0000
  C   C933      1.0  0.78817  0.09240  0.68785  1.0000
  Fe  Fe189     1.0  0.87765  0.14942  0.65360  1.0000
  S   S377      1.0  0.87029  0.18546  0.64096  1.0000
  S   S378      1.0  0.90804  0.13192  0.66535  1.0000
  C   C934      1.0  0.88515  0.07209  0.58171  1.0000
  H   H1479     1.0  0.77617  0.21470  0.70987  1.0000
  C   C935      1.0  0.93019  0.03330  0.60459  1.0000
  H   H1480     1.0  0.68327  0.19407  0.72422  1.0000
  S   S379      1.0  0.88651  0.08785  0.68044  1.0000
  C   C936      1.0  0.88883  0.10319  0.55216  1.0000
  H   H1481     1.0  0.68777  0.29671  0.56076  1.0000
  Fe  Fe190     1.0  0.94226  0.02474  0.55681  1.0000
  H   H1482     1.0  0.81678  0.12190  0.70097  1.0000
  H   H1483     1.0  0.88201  0.06599  0.59947  1.0000
  H   H1484     1.0  0.99201  0.10587  0.64742  1.0000
  H   H1485     1.0  0.90334  0.11743  0.57922  1.0000
  Fe  Fe191     1.0  0.90606  0.10522  0.65061  1.0000
  C   C937      1.0  0.93416  0.06704  0.62159  1.0000
  C   C938      1.0  0.91637  0.05691  0.63030  1.0000
  C   C939      1.0  0.73826  0.16491  0.65741  1.0000
  H   H1486     1.0  0.90391  0.06242  0.64324  1.0000
  C   C940      1.0  0.72607  0.19136  0.67986  1.0000
  C   C941      1.0  0.67054  0.30285  0.56783  1.0000
  H   H1487     1.0  0.73462  0.20302  0.66696  1.0000
  H   H1488     1.0  0.71740  0.32646  0.67733  1.0000
  H   H1489     1.0  0.78952  0.08243  0.67659  1.0000
  S   S380      1.0  0.75486  0.29111  0.69222  1.0000
  H   H1490     1.0  0.98859  0.12684  0.62367  1.0000
  H   H1491     1.0  0.72271  0.15593  0.71194  1.0000
  H   H1492     1.0  0.74805  0.17574  0.64471  1.0000
  C   C942      1.0  0.74124  0.33557  0.63729  1.0000
  H   H1493     1.0  0.81792  0.28384  0.72202  1.0000
  C   C943      1.0  0.79927  0.20432  0.63666  1.0000
  C   C944      1.0  0.81072  0.18292  0.63667  1.0000
  C   C945      1.0  0.83241  0.17714  0.63839  1.0000
  C   C946      1.0  0.84290  0.19287  0.63954  1.0000
  C   C947      1.0  0.83144  0.21431  0.63971  1.0000
  C   C948      1.0  0.80947  0.21998  0.63855  1.0000
  H   H1494     1.0  0.80285  0.17077  0.63526  1.0000
  H   H1495     1.0  0.84108  0.16058  0.63834  1.0000
  H   H1496     1.0  0.83948  0.22648  0.64074  1.0000
  H   H1497     1.0  0.80062  0.23655  0.63855  1.0000
  C   C949      1.0  0.82658  0.27023  0.69381  1.0000
  C   C950      1.0  0.81902  0.26636  0.67744  1.0000
  C   C951      1.0  0.79695  0.27266  0.67689  1.0000
  C   C952      1.0  0.78252  0.28329  0.69243  1.0000
  C   C953      1.0  0.79012  0.28736  0.70866  1.0000
  H   H1498     1.0  0.89981  0.09501  0.60167  1.0000
  H   H1499     1.0  0.83019  0.25834  0.66526  1.0000
  H   H1500     1.0  0.79117  0.26941  0.66435  1.0000
  H   H1501     1.0  0.75693  0.33423  0.64166  1.0000
  Fe  Fe192     1.0  0.85785  0.10945  0.66758  1.0000
  C   C954      1.0  0.91604  0.13911  0.72019  1.0000
  C   C955      1.0  0.67454  0.31671  0.62287  1.0000
  H   H1502     1.0  0.87256  0.06830  0.57554  1.0000
  H   H1503     1.0  0.67532  0.29840  0.52732  1.0000
  H   H1504     1.0  0.77002  0.24210  0.71380  1.0000
  H   H1505     1.0  0.84341  0.10654  0.72558  1.0000
  H   H1506     1.0  0.73780  0.31890  0.64182  1.0000
  S   S381      1.0  0.90609  0.08174  0.50359  1.0000
  Fe  Fe193     1.0  0.93271  0.05595  0.51573  1.0000
  H   H1507     1.0  0.88850  0.12103  0.54707  1.0000
  N   N95       1.0  0.89739  0.20941  0.67553  1.0000
  C   C956      1.0  0.87806  0.20174  0.68979  1.0000
  C   C957      1.0  0.91311  0.19077  0.66795  1.0000
  C   C958      1.0  0.90736  0.21894  0.68756  1.0000
  H   H1508     1.0  0.86574  0.21546  0.69557  1.0000
  H   H1509     1.0  0.88227  0.18927  0.70419  1.0000
  H   H1510     1.0  0.68647  0.33026  0.53200  1.0000
  H   H1511     1.0  0.90614  0.18332  0.65865  1.0000
  S   S382      1.0  0.94413  0.05983  0.54329  1.0000
  H   H1512     1.0  0.91796  0.17772  0.68168  1.0000
  H   H1513     1.0  0.92193  0.22502  0.67736  1.0000
  H   H1514     1.0  0.92799  0.19588  0.65734  1.0000
  S   S383      1.0  0.74288  0.11260  0.73689  1.0000
  S   S384      1.0  0.82947  0.09596  0.66786  1.0000
  C   C959      1.0  0.80365  0.11445  0.70169  1.0000
  S   S385      1.0  0.93616  0.08969  0.63014  1.0000
  H   H1515     1.0  0.90527  0.23229  0.64575  1.0000
  C   C960      1.0  0.81211  0.28060  0.70951  1.0000
  H   H1516     1.0  0.74611  0.14775  0.65625  1.0000
  H   H1517     1.0  0.91238  0.20676  0.70171  1.0000
  C   C961      1.0  0.92351  0.15577  0.72416  1.0000
  C   C962      1.0  0.79344  0.23403  0.74419  1.0000
  C   C963      1.0  0.89612  0.13416  0.73189  1.0000
  H   H1518     1.0  0.87643  0.09978  0.54540  1.0000
  H   H1519     1.0  0.72558  0.19503  0.69554  1.0000
  H   H1520     1.0  0.86347  0.12566  0.58179  1.0000
  H   H1521     1.0  0.70909  0.19503  0.67769  1.0000
  C   C964      1.0  0.89107  0.22621  0.65686  1.0000
  H   H1522     1.0  0.89585  0.23295  0.69361  1.0000
  S   S386      1.0  0.91981  0.18928  0.74350  1.0000
  H   H1523     1.0  0.66308  0.28847  0.57640  1.0000
  H   H1524     1.0  0.86062  0.10242  0.60357  1.0000
  C   C965      1.0  0.95025  0.05976  0.60493  1.0000
  H   H1525     1.0  0.81700  0.19907  0.72818  1.0000
  Fe  Fe194     1.0  0.86152  0.25237  0.72735  1.0000
  H   H1526     1.0  0.97412  0.10050  0.60062  1.0000
  H   H1527     1.0  0.70725  0.15666  0.69286  1.0000
  H   H1528     1.0  0.87924  0.24051  0.66199  1.0000
  H   H1529     1.0  0.88330  0.21976  0.64746  1.0000
  H   H1530     1.0  0.76851  0.17573  0.67172  1.0000
  H   H1531     1.0  0.72199  0.16842  0.65352  1.0000
  S   S387      1.0  0.71774  0.31459  0.60540  1.0000
  N   N96       1.0  0.73678  0.16852  0.67900  1.0000
  S   S388      1.0  0.97639  0.01168  0.54147  1.0000
  Fe  Fe195     1.0  0.88592  0.11625  0.69396  1.0000
  S   S389      1.0  0.85559  0.13637  0.68367  1.0000
  S   S390      1.0  0.68393  0.23470  0.69311  1.0000
  C   C966      1.0  0.86400  0.10778  0.58569  1.0000
  S   S391      1.0  0.92767  0.02199  0.53080  1.0000
  H   H1532     1.0  0.76766  0.14737  0.68163  1.0000
  C   C967      1.0  0.94816  0.04308  0.59637  1.0000
  C   C968      1.0  0.91452  0.03983  0.62195  1.0000
  H   H1533     1.0  0.96039  0.03790  0.58318  1.0000
  H   H1534     1.0  0.90100  0.06242  0.57496  1.0000
  C   C969      1.0  0.98674  0.10986  0.63184  1.0000
  C   C970      1.0  0.72400  0.15370  0.69543  1.0000
  C   C971      1.0  0.75876  0.16415  0.68325  1.0000
  H   H1535     1.0  0.90058  0.03228  0.62839  1.0000
  H   H1536     1.0  0.70041  0.25559  0.71690  1.0000
  H   H1537     1.0  0.92598  0.12962  0.70863  1.0000
  H   H1538     1.0  0.85051  0.10516  0.57993  1.0000
  H   H1539     1.0  0.77897  0.29561  0.72068  1.0000
  S   S392      1.0  0.89491  0.25009  0.73166  1.0000
  S   S393      1.0  0.88726  0.11240  0.72829  1.0000
  C   C972      1.0  0.90248  0.09984  0.58382  1.0000
  N   N97       1.0  0.88512  0.09573  0.57583  1.0000
  H   H1540     1.0  0.90481  0.09476  0.54422  1.0000
  S   S394      1.0  0.92645  0.01476  0.59145  1.0000
  H   H1541     1.0  0.67929  0.30184  0.63427  1.0000
  H   H1542     1.0  0.75567  0.08878  0.70368  1.0000
  H   H1543     1.0  0.93915  0.15927  0.71551  1.0000
  C   C973      1.0  0.80561  0.10147  0.68711  1.0000
  H   H1544     1.0  0.79536  0.18448  0.73489  1.0000
  H   H1545     1.0  0.91861  0.09042  0.57733  1.0000
  H   H1546     1.0  0.87024  0.19424  0.68130  1.0000
  H   H1547     1.0  0.96914  0.10968  0.63562  1.0000
  C   C974      1.0  0.78448  0.11790  0.71723  1.0000
  Fe  Fe196     1.0  0.96193  0.01209  0.51391  1.0000
  C   C975      1.0  0.69023  0.32629  0.60705  1.0000
  C   C976      1.0  0.80118  0.19711  0.73917  1.0000
  C   C977      1.0  0.68972  0.20453  0.73015  1.0000
  N   N98       1.0  0.78531  0.21803  0.73773  1.0000
  H   H1548     1.0  0.73154  0.13628  0.69524  1.0000
  H   H1549     1.0  0.80929  0.23684  0.73376  1.0000
  C   C978      1.0  0.70635  0.23158  0.74557  1.0000
  C   C979      1.0  0.78213  0.22642  0.71537  1.0000
  H   H1550     1.0  0.79747  0.22951  0.70401  1.0000
  H   H1551     1.0  0.97873  0.07100  0.63417  1.0000
  C   C980      1.0  0.91073  0.16795  0.73926  1.0000
  S   S395      1.0  0.85974  0.21797  0.74443  1.0000
  H   H1552     1.0  0.83615  0.08261  0.72303  1.0000
  C   C981      1.0  0.84448  0.08873  0.73226  1.0000
  C   C982      1.0  0.69941  0.23920  0.72600  1.0000
  H   H1553     1.0  0.78293  0.12807  0.72831  1.0000
  C   C983      1.0  0.69096  0.22573  0.71836  1.0000
  H   H1554     1.0  0.78197  0.25010  0.74305  1.0000
  H   H1555     1.0  0.67045  0.31162  0.58023  1.0000
  C   C984      1.0  0.99173  0.10005  0.59777  1.0000
  H   H1556     1.0  0.86193  0.08086  0.72897  1.0000
  C   C985      1.0  0.66948  0.33586  0.54009  1.0000
  H   H1557     1.0  0.69882  0.33517  0.64676  1.0000
  Fe  Fe197     1.0  0.92233  0.29477  0.87170  1.0000
  S   S396      1.0  0.95552  0.28431  0.87928  1.0000
  S   S397      1.0  0.91011  0.26909  0.86364  1.0000
  Fe  Fe198     1.0  0.94130  0.30240  0.90590  1.0000
  S   S398      1.0  0.95334  0.29170  0.93684  1.0000
  Fe  Fe199     1.0  0.89202  0.21653  0.75097  1.0000
  Fe  Fe200     1.0  0.84648  0.23160  0.77406  1.0000
  S   S399      1.0  0.87865  0.22690  0.78252  1.0000
  S   S400      1.0  0.81708  0.22293  0.79810  1.0000
  H   H1558     1.0  0.97366  0.28500  0.83306  1.0000
  H   H1559     1.0  0.82896  0.05337  0.75556  1.0000
  H   H1560     1.0  0.83927  0.09069  0.78444  1.0000
  C   C986      1.0  0.84628  0.09328  0.76689  1.0000
  Fe  Fe201     1.0  0.87863  0.26089  0.76256  1.0000
  S   S401      1.0  0.88781  0.28778  0.77190  1.0000
  S   S402      1.0  0.71438  0.09772  0.84535  1.0000
  C   C987      1.0  0.91815  0.32102  0.95207  1.0000
  S   S403      1.0  0.90737  0.31016  0.90038  1.0000
  H   H1561     1.0  0.76614  0.20783  0.76916  1.0000
  H   H1562     1.0  0.85342  0.27006  0.80366  1.0000
  H   H1563     1.0  0.79149  0.11904  0.86501  1.0000
  C   C988      1.0  0.95770  0.31031  0.79861  1.0000
  H   H1564     1.0  0.84462  0.22555  0.82716  1.0000
  N   N99       1.0  0.83529  0.25736  0.83474  1.0000
  C   C989      1.0  0.94746  0.31047  0.97116  1.0000
  H   H1565     1.0  0.94006  0.31182  0.80549  1.0000
  C   C990      1.0  0.96630  0.27700  0.82462  1.0000
  Fe  Fe202     1.0  0.77028  0.13312  0.79191  1.0000
  S   S404      1.0  0.80440  0.13085  0.79431  1.0000
  Fe  Fe203     1.0  0.74301  0.12529  0.76527  1.0000
  S   S405      1.0  0.71592  0.20035  0.78070  1.0000
  H   H1566     1.0  0.82668  0.28574  0.81038  1.0000
  S   S406      1.0  0.75840  0.15318  0.76242  1.0000
  H   H1567     1.0  0.95958  0.31859  0.78131  1.0000
  H   H1568     1.0  0.84879  0.22619  0.85286  1.0000
  H   H1569     1.0  0.80153  0.27132  0.84379  1.0000
  N   N100      1.0  0.96905  0.28719  0.80144  1.0000
  Fe  Fe204     1.0  0.96069  0.31662  0.85839  1.0000
  H   H1570     1.0  0.68237  0.11568  0.81878  1.0000
  H   H1571     1.0  0.74300  0.12540  0.88560  1.0000
  H   H1572     1.0  0.89938  0.30941  0.83285  1.0000
  H   H1573     1.0  0.75745  0.20314  0.74746  1.0000
  Fe  Fe205     1.0  0.72843  0.16431  0.78566  1.0000
  C   C991      1.0  0.81384  0.19707  0.79771  1.0000
  C   C992      1.0  0.83178  0.18079  0.79246  1.0000
  C   C993      1.0  0.82886  0.16025  0.79197  1.0000
  C   C994      1.0  0.80800  0.15624  0.79595  1.0000
  C   C995      1.0  0.79011  0.17267  0.80093  1.0000
  C   C996      1.0  0.79302  0.19289  0.80222  1.0000
  H   H1574     1.0  0.84792  0.18389  0.78915  1.0000
  H   H1575     1.0  0.84277  0.14756  0.78833  1.0000
  H   H1576     1.0  0.77396  0.16995  0.80379  1.0000
  H   H1577     1.0  0.77909  0.20547  0.80620  1.0000
  H   H1578     1.0  0.80432  0.09213  0.77651  1.0000
  H   H1579     1.0  0.83022  0.05665  0.78141  1.0000
  C   C997      1.0  0.68969  0.09097  0.84648  1.0000
  H   H1580     1.0  0.75934  0.09784  0.83945  1.0000
  S   S407      1.0  0.75773  0.10386  0.79278  1.0000
  S   S408      1.0  0.84520  0.26644  0.75637  1.0000
  H   H1581     1.0  0.69220  0.06495  0.87454  1.0000
  H   H1582     1.0  0.69677  0.18014  0.75820  1.0000
  C   C998      1.0  0.93863  0.30877  0.95460  1.0000
  H   H1583     1.0  0.80428  0.19058  0.75573  1.0000
  C   C999      1.0  0.90464  0.27446  0.83784  1.0000
  C   C1000     1.0  0.90477  0.25699  0.82908  1.0000
  C   C1001     1.0  0.90006  0.26089  0.80863  1.0000
  C   C1002     1.0  0.89492  0.28229  0.79700  1.0000
  C   C1003     1.0  0.89510  0.29973  0.80564  1.0000
  C   C1004     1.0  0.89992  0.29584  0.82604  1.0000
  H   H1584     1.0  0.90862  0.24040  0.83810  1.0000
  H   H1585     1.0  0.90057  0.24734  0.80183  1.0000
  C   C1005     1.0  0.83652  0.26884  0.81199  1.0000
  H   H1586     1.0  0.75162  0.08521  0.89884  1.0000
  H   H1587     1.0  0.83051  0.26011  0.80307  1.0000
  C   C1006     1.0  0.88343  0.14623  0.74706  1.0000
  H   H1588     1.0  0.78600  0.08508  0.84399  1.0000
  C   C1007     1.0  0.84944  0.23542  0.83593  1.0000
  H   H1589     1.0  0.89109  0.31633  0.79669  1.0000
  H   H1590     1.0  0.66268  0.08593  0.90395  1.0000
  C   C1008     1.0  0.84244  0.27002  0.84623  1.0000
  S   S409      1.0  0.71165  0.13807  0.78615  1.0000
  C   C1009     1.0  0.74881  0.12269  0.86891  1.0000
  H   H1591     1.0  0.75478  0.13745  0.85856  1.0000
  H   H1592     1.0  0.91116  0.31969  0.93948  1.0000
  H   H1593     1.0  0.84239  0.26156  0.86332  1.0000
  C   C1010     1.0  0.83730  0.06054  0.76389  1.0000
  H   H1594     1.0  0.73453  0.12168  0.86328  1.0000
  C   C1011     1.0  0.78449  0.10484  0.87536  1.0000
  C   C1012     1.0  0.77293  0.09979  0.84550  1.0000
  H   H1595     1.0  0.86660  0.23647  0.82866  1.0000
  H   H1596     1.0  0.77921  0.11409  0.83453  1.0000
  C   C1013     1.0  0.70568  0.21018  0.75708  1.0000
  N   N101      1.0  0.76585  0.10272  0.86791  1.0000
  H   H1597     1.0  0.77975  0.10726  0.89218  1.0000
  Fe  Fe206     1.0  0.72761  0.11881  0.81373  1.0000
  C   C1014     1.0  0.89060  0.16330  0.75056  1.0000
  C   C1015     1.0  0.68233  0.07416  0.86298  1.0000
  H   H1598     1.0  0.80703  0.24544  0.83640  1.0000
  H   H1599     1.0  0.79764  0.09002  0.87488  1.0000
  H   H1600     1.0  0.83186  0.28650  0.84602  1.0000
  S   S410      1.0  0.74151  0.14640  0.81513  1.0000
  C   C1016     1.0  0.75714  0.08361  0.88177  1.0000
  H   H1601     1.0  0.74301  0.08167  0.87648  1.0000
  H   H1602     1.0  0.76948  0.06821  0.88127  1.0000
  C   C1017     1.0  0.81273  0.25511  0.84471  1.0000
  H   H1603     1.0  0.81112  0.24664  0.86195  1.0000
  C   C1018     1.0  0.67700  0.10259  0.83141  1.0000
  H   H1604     1.0  0.85918  0.27251  0.83866  1.0000
  H   H1605     1.0  0.71251  0.24218  0.75160  1.0000
  H   H1606     1.0  0.80266  0.08847  0.75095  1.0000
  C   C1019     1.0  0.93594  0.32474  0.98487  1.0000
  H   H1607     1.0  0.94892  0.27826  0.83253  1.0000
  H   H1608     1.0  0.86381  0.08567  0.76470  1.0000
  S   S411      1.0  0.92873  0.32591  0.84859  1.0000
  H   H1609     1.0  0.96329  0.30095  0.97322  1.0000
  H   H1610     1.0  0.94234  0.27603  0.79769  1.0000
  C   C1020     1.0  0.69748  0.19661  0.74930  1.0000
  N   N102      1.0  0.83498  0.08435  0.75553  1.0000
  C   C1021     1.0  0.76444  0.21464  0.75217  1.0000
  H   H1611     1.0  0.96411  0.31955  0.80675  1.0000
  H   H1612     1.0  0.79575  0.22837  0.76108  1.0000
  H   H1613     1.0  0.85463  0.05215  0.76144  1.0000
  H   H1614     1.0  0.96138  0.28291  0.77319  1.0000
  H   H1615     1.0  0.75222  0.23019  0.75185  1.0000
  S   S412      1.0  0.94939  0.33384  0.88564  1.0000
  C   C1022     1.0  0.99234  0.28599  0.79195  1.0000
  H   H1616     1.0  0.98529  0.32044  0.91321  1.0000
  H   H1617     1.0  0.99085  0.28641  0.90049  1.0000
  C   C1023     1.0  0.95986  0.27552  0.79069  1.0000
  H   H1618     1.0  0.84506  0.11122  0.76073  1.0000
  H   H1619     1.0  0.97406  0.25936  0.82744  1.0000
  H   H1620     1.0  0.96805  0.25802  0.79244  1.0000
  C   C1024     1.0  0.81184  0.09489  0.75908  1.0000
  S   S413      1.0  0.99234  0.32030  0.83570  1.0000
  C   C1025     1.0  0.66232  0.06905  0.86437  1.0000
  H   H1621     1.0  0.80957  0.11289  0.75289  1.0000
  H   H1622     1.0  0.88085  0.17244  0.76246  1.0000
  H   H1623     1.0  0.86806  0.14238  0.75609  1.0000
  C   C1026     1.0  0.90656  0.33503  0.96588  1.0000
  H   H1624     1.0  0.95756  0.63169  0.10169  1.0000
  Fe  Fe207     1.0  0.94222  0.53766  0.06674  1.0000
  S   S414      1.0  0.94046  0.56852  0.04136  1.0000
  S   S415      1.0  0.93223  0.53789  0.10195  1.0000
  Fe  Fe208     1.0  0.95659  0.50892  0.03385  1.0000
  S   S416      1.0  0.98913  0.35277  0.03443  1.0000
  S   S417      1.0  0.96783  0.47466  0.02858  1.0000
  Fe  Fe209     1.0  0.97181  0.55112  0.02446  1.0000
  S   S418      1.0  0.73458  0.62726  0.22765  1.0000
  C   C1027     1.0  0.86152  0.60260  0.09251  1.0000
  C   C1028     1.0  0.96901  0.43696  0.11406  1.0000
  S   S419      1.0  0.97484  0.52136  0.05095  1.0000
  S   S420      1.0  0.92413  0.52214  0.05251  1.0000
  S   S421      1.0  0.95651  0.53741  0.00575  1.0000
  H   H1625     1.0  0.98370  0.63911  0.13002  1.0000
  C   C1029     1.0  0.96002  0.47640  0.10661  1.0000
  S   S422      1.0  0.84976  0.63025  0.14247  1.0000
  H   H1626     1.0  0.95588  0.49174  0.09461  1.0000
  H   H1627     1.0  0.88599  0.56365  0.06324  1.0000
  C   C1030     1.0  0.87149  0.40940  0.00113  1.0000
  S   S423      1.0  0.83633  0.61456  0.20599  1.0000
  C   C1031     1.0  0.76294  0.62273  0.22157  1.0000
  H   H1628     1.0  0.76484  0.63531  0.18753  1.0000
  H   H1629     1.0  0.90030  0.42005  0.01701  1.0000
  H   H1630     1.0  0.97555  0.60760  0.09441  1.0000
  N   N103      1.0  0.87052  0.59423  0.07254  1.0000
  C   C1032     1.0  0.92694  0.56469  0.10576  1.0000
  C   C1033     1.0  0.91121  0.57096  0.12320  1.0000
  C   C1034     1.0  0.90564  0.59288  0.12512  1.0000
  C   C1035     1.0  0.91582  0.60848  0.10956  1.0000
  C   C1036     1.0  0.93198  0.60204  0.09254  1.0000
  C   C1037     1.0  0.93758  0.58020  0.09072  1.0000
  H   H1631     1.0  0.90303  0.55898  0.13501  1.0000
  H   H1632     1.0  0.89348  0.59767  0.13860  1.0000
  H   H1633     1.0  0.94007  0.61399  0.08059  1.0000
  H   H1634     1.0  0.95029  0.57537  0.07772  1.0000
  Fe  Fe210     1.0  0.91047  0.38478  0.05639  1.0000
  S   S424      1.0  0.89496  0.41896  0.06068  1.0000
  H   H1635     1.0  0.96785  0.38265  0.06272  1.0000
  C   C1038     1.0  0.97115  0.62902  0.13738  1.0000
  H   H1636     1.0  0.87655  0.39680  0.01507  1.0000
  H   H1637     1.0  0.98411  0.56375  0.05452  1.0000
  H   H1638     1.0  0.94621  0.47631  0.12068  1.0000
  H   H1639     1.0  0.86622  0.56151  0.08803  1.0000
  Fe  Fe211     1.0  0.84572  0.63744  0.17486  1.0000
  S   S425      1.0  0.93271  0.36015  0.07622  1.0000
  C   C1039     1.0  0.91481  0.43489  0.05093  1.0000
  C   C1040     1.0  0.90912  0.45770  0.04711  1.0000
  C   C1041     1.0  0.92530  0.47016  0.03940  1.0000
  C   C1042     1.0  0.94714  0.45979  0.03591  1.0000
  C   C1043     1.0  0.95269  0.43703  0.03937  1.0000
  C   C1044     1.0  0.93655  0.42467  0.04674  1.0000
  H   H1640     1.0  0.89226  0.46573  0.05003  1.0000
  H   H1641     1.0  0.92081  0.48774  0.03607  1.0000
  H   H1642     1.0  0.96946  0.42881  0.03699  1.0000
  H   H1643     1.0  0.94092  0.40714  0.04966  1.0000
  H   H1644     1.0  0.83975  0.59044  0.06977  1.0000
  C   C1045     1.0  0.98492  0.38218  0.05924  1.0000
  C   C1046     1.0  0.77473  0.61381  0.23788  1.0000
  H   H1645     1.0  0.95522  0.43566  0.12808  1.0000
  H   H1646     1.0  0.90162  0.60201  0.06795  1.0000
  C   C1047     1.0  0.97343  0.62055  0.10334  1.0000
  H   H1647     1.0  0.80480  0.63009  0.17882  1.0000
  C   C1048     1.0  0.98279  0.45762  0.07909  1.0000
  S   S426      1.0  0.89122  0.36097  0.05614  1.0000
  H   H1648     1.0  0.89513  0.59960  0.04395  1.0000
  N   N104      1.0  0.87266  0.43144  0.00241  1.0000
  H   H1649     1.0  0.70724  0.65491  0.19377  1.0000
  C   C1049     1.0  0.95754  0.59821  0.13642  1.0000
  H   H1650     1.0  0.69393  0.65495  0.23242  1.0000
  H   H1651     1.0  0.84660  0.61637  0.05579  1.0000
  H   H1652     1.0  0.85967  0.59239  0.04510  1.0000
  C   C1050     1.0  0.86530  0.55678  0.99944  1.0000
  C   C1051     1.0  0.89508  0.43168  0.00273  1.0000
  C   C1052     1.0  0.87906  0.57045  0.07799  1.0000
  H   H1653     1.0  0.87034  0.34281  0.10022  1.0000
  H   H1654     1.0  0.95874  0.58539  0.12757  1.0000
  H   H1655     1.0  0.82020  0.64125  0.23699  1.0000
  H   H1656     1.0  0.78623  0.65914  0.22285  1.0000
  H   H1657     1.0  0.88249  0.62331  0.05521  1.0000
  C   C1053     1.0  0.85336  0.59856  0.06026  1.0000
  C   C1054     1.0  0.79736  0.61048  0.23292  1.0000
  C   C1055     1.0  0.79648  0.62558  0.19532  1.0000
  H   H1658     1.0  0.80639  0.60348  0.24561  1.0000
  H   H1659     1.0  0.87409  0.59973  0.10205  1.0000
  C   C1056     1.0  0.80824  0.61663  0.21168  1.0000
  H   H1660     1.0  0.97442  0.47743  0.11199  1.0000
  Fe  Fe212     1.0  0.91500  0.35546  0.02596  1.0000
  C   C1057     1.0  0.85811  0.43709  0.02229  1.0000
  Fe  Fe213     1.0  0.95322  0.35521  0.04412  1.0000
  H   H1661     1.0  0.98185  0.40609  0.07751  1.0000
  S   S427      1.0  0.93220  0.38147  0.02450  1.0000
  C   C1058     1.0  0.94480  0.45662  0.09001  1.0000
  H   H1662     1.0  0.84095  0.43770  0.02238  1.0000
  S   S428      1.0  0.87592  0.65085  0.16673  1.0000
  H   H1663     1.0  0.85487  0.62051  0.08902  1.0000
  C   C1059     1.0  0.88821  0.60529  0.05931  1.0000
  H   H1664     1.0  0.94112  0.60875  0.13681  1.0000
  H   H1665     1.0  0.83081  0.34447  0.10924  1.0000
  H   H1666     1.0  0.97254  0.42198  0.10755  1.0000
  H   H1667     1.0  0.89212  0.56655  0.08718  1.0000
  H   H1668     1.0  0.94724  0.44202  0.08316  1.0000
  Fe  Fe214     1.0  0.92520  0.55166  0.02561  1.0000
  H   H1669     1.0  0.98042  0.47314  0.06697  1.0000
  N   N105      1.0  0.96415  0.45690  0.09746  1.0000
  C   C1060     1.0  0.77386  0.62846  0.20024  1.0000
  H   H1670     1.0  0.85930  0.45325  0.02419  1.0000
  Fe  Fe215     1.0  0.87810  0.64659  0.13349  1.0000
  N   N106      1.0  0.97453  0.61114  0.12618  1.0000
  H   H1671     1.0  0.94093  0.47129  0.07721  1.0000
  H   H1672     1.0  0.86230  0.42486  0.03683  1.0000
  H   H1673     1.0  0.84823  0.59452  0.10302  1.0000
  S   S429      1.0  0.90958  0.63592  0.11146  1.0000
  H   H1674     1.0  0.98524  0.44418  0.07064  1.0000
  H   H1675     1.0  0.98351  0.43666  0.12006  1.0000
  H   H1676     1.0  0.95507  0.64010  0.13651  1.0000
  H   H1677     1.0  0.95857  0.58996  0.15334  1.0000
  H   H1678     1.0  0.85348  0.56946  0.00633  1.0000
  C   C1061     1.0  0.99296  0.39535  0.06777  1.0000
  H   H1679     1.0  0.98642  0.62992  0.09496  1.0000
  S   S430      1.0  0.89461  0.56908  0.01424  1.0000
  H   H1680     1.0  0.97176  0.62258  0.15469  1.0000
  H   H1681     1.0  0.93031  0.45634  0.10334  1.0000
  C   C1062     1.0  0.88688  0.55295  0.00116  1.0000
  C   C1063     1.0  0.82074  0.65792  0.23797  1.0000
  Fe  Fe216     1.0  0.83005  0.66416  0.13489  1.0000
  H   H1682     1.0  0.68021  0.66624  0.18933  1.0000
  H   H1683     1.0  0.85485  0.40849  0.00081  1.0000
  H   H1684     1.0  0.99306  0.43320  0.00086  1.0000
  H   H1685     1.0  0.82968  0.66553  0.22209  1.0000
  H   H1686     1.0  0.89673  0.44808  0.00351  1.0000
  H   H1687     1.0  0.66700  0.66644  0.22821  1.0000
  S   S431      1.0  0.90040  0.35492  0.99902  1.0000
  Fe  Fe217     1.0  0.72104  0.62835  0.26247  1.0000
  H   H1688     1.0  0.79522  0.65537  0.27714  1.0000
  Fe  Fe218     1.0  0.73075  0.63611  0.30180  1.0000
  Fe  Fe219     1.0  0.69835  0.60818  0.30716  1.0000
  H   H1689     1.0  0.76651  0.60918  0.25432  1.0000
  S   S432      1.0  0.73332  0.60560  0.29082  1.0000
  S   S433      1.0  0.68610  0.62832  0.27770  1.0000
  H   H1690     1.0  0.83043  0.65597  0.25020  1.0000
  S   S434      1.0  0.68731  0.57731  0.32682  1.0000
  H   H1691     1.0  0.67014  0.43119  0.35897  1.0000
  S   S435      1.0  0.75842  0.64099  0.31278  1.0000
  S   S436      1.0  0.69680  0.63688  0.32076  1.0000
  H   H1692     1.0  0.67732  0.48708  0.34235  1.0000
  S   S437      1.0  0.72136  0.65877  0.27205  1.0000
  C   C1064     1.0  0.66141  0.58135  0.34323  1.0000
  H   H1693     1.0  0.67084  0.45575  0.38176  1.0000
  H   H1694     1.0  0.68228  0.52752  0.30508  1.0000
  Fe  Fe220     1.0  0.68749  0.65700  0.28980  1.0000
  C   C1065     1.0  0.78681  0.65899  0.26355  1.0000
  H   H1695     1.0  0.67879  0.48876  0.31435  1.0000
  H   H1696     1.0  0.78499  0.64307  0.26163  1.0000
  H   H1697     1.0  0.68173  0.52599  0.33276  1.0000
  C   C1066     1.0  0.67134  0.52930  0.32082  1.0000
  H   H1698     1.0  0.66536  0.54777  0.36023  1.0000
  C   C1067     1.0  0.66758  0.49167  0.32966  1.0000
  H   H1699     1.0  0.78855  0.66553  0.31389  1.0000
  H   H1700     1.0  0.66296  0.54678  0.31913  1.0000
  C   C1068     1.0  0.75499  0.66831  0.31407  1.0000
  H   H1701     1.0  0.77025  0.66844  0.26856  1.0000
  C   C1069     1.0  0.66198  0.35500  0.59327  1.0000
  C   C1070     1.0  0.80127  0.62939  0.68116  1.0000
  Fe  Fe221     1.0  0.68346  0.60823  0.68071  1.0000
  S   S438      1.0  0.83374  0.66768  0.68825  1.0000
  H   H1702     1.0  0.71425  0.59937  0.58156  1.0000
  H   H1703     1.0  0.78136  0.57047  0.73710  1.0000
  H   H1704     1.0  0.70830  0.35412  0.68066  1.0000
  H   H1705     1.0  0.83962  0.63125  0.72352  1.0000
  C   C1071     1.0  0.70309  0.35156  0.64216  1.0000
  N   N107      1.0  0.78291  0.63573  0.69840  1.0000
  H   H1706     1.0  0.71464  0.63494  0.58849  1.0000
  S   S439      1.0  0.68929  0.63951  0.65749  1.0000
  C   C1072     1.0  0.71343  0.62686  0.60580  1.0000
  C   C1073     1.0  0.71371  0.59204  0.59897  1.0000
  S   S440      1.0  0.70913  0.64891  0.69440  1.0000
  H   H1707     1.0  0.73045  0.37899  0.62393  1.0000
  C   C1074     1.0  0.68395  0.34550  0.59233  1.0000
  Fe  Fe222     1.0  0.72101  0.63090  0.66764  1.0000
  S   S441      1.0  0.75195  0.63445  0.64365  1.0000
  H   H1708     1.0  0.77647  0.63280  0.73271  1.0000
  S   S442      1.0  0.71639  0.59848  0.68901  1.0000
  N   N108      1.0  0.72356  0.35073  0.64824  1.0000
  H   H1709     1.0  0.76129  0.66494  0.70615  1.0000
  H   H1710     1.0  0.75554  0.61041  0.60501  1.0000
  H   H1711     1.0  0.80806  0.61155  0.68475  1.0000
  C   C1075     1.0  0.72862  0.37277  0.64165  1.0000
  C   C1076     1.0  0.83750  0.64603  0.72910  1.0000
  H   H1712     1.0  0.69593  0.62885  0.61342  1.0000
  H   H1713     1.0  0.72157  0.57446  0.60056  1.0000
  H   H1714     1.0  0.80265  0.63817  0.71865  1.0000
  Fe  Fe223     1.0  0.70130  0.61727  0.71506  1.0000
  H   H1715     1.0  0.79720  0.61151  0.72299  1.0000
  Fe  Fe224     1.0  0.67662  0.65448  0.68643  1.0000
  H   H1716     1.0  0.74398  0.37271  0.64599  1.0000
  C   C1077     1.0  0.76867  0.58038  0.74667  1.0000
  H   H1717     1.0  0.69637  0.59276  0.60697  1.0000
  C   C1078     1.0  0.83513  0.66632  0.71478  1.0000
  H   H1718     1.0  0.75600  0.58439  0.60002  1.0000
  H   H1719     1.0  0.74425  0.58222  0.72910  1.0000
  C   C1079     1.0  0.74729  0.60174  0.59803  1.0000
  H   H1720     1.0  0.78796  0.66852  0.69151  1.0000
  C   C1080     1.0  0.76537  0.62459  0.69998  1.0000
  H   H1721     1.0  0.69610  0.35308  0.58023  1.0000
  C   C1081     1.0  0.72134  0.34301  0.67179  1.0000
  S   S443      1.0  0.67045  0.58269  0.67342  1.0000
  H   H1722     1.0  0.79624  0.63347  0.66547  1.0000
  H   H1723     1.0  0.72980  0.57591  0.63467  1.0000
  H   H1724     1.0  0.73667  0.34168  0.67689  1.0000
  H   H1725     1.0  0.73058  0.60159  0.63955  1.0000
  N   N109      1.0  0.72421  0.60356  0.60863  1.0000
  H   H1726     1.0  0.74929  0.60901  0.58049  1.0000
  H   H1727     1.0  0.72079  0.63597  0.61320  1.0000
  H   H1728     1.0  0.71557  0.38468  0.64955  1.0000
  H   H1729     1.0  0.75912  0.62966  0.68488  1.0000
  H   H1730     1.0  0.70525  0.59527  0.64043  1.0000
  C   C1082     1.0  0.77492  0.65962  0.69332  1.0000
  C   C1083     1.0  0.72242  0.59364  0.63181  1.0000
  C   C1084     1.0  0.75464  0.66166  0.63839  1.0000
  C   C1085     1.0  0.79009  0.62928  0.71909  1.0000
  H   H1731     1.0  0.81464  0.63793  0.67906  1.0000
  C   C1086     1.0  0.74776  0.58711  0.74207  1.0000
  S   S444      1.0  0.66780  0.62396  0.70886  1.0000
  H   H1732     1.0  0.66734  0.65971  0.72539  1.0000
  C   C1087     1.0  0.77519  0.66660  0.63359  1.0000
  H   H1733     1.0  0.66994  0.34549  0.55155  1.0000
  H   H1734     1.0  0.78948  0.65389  0.63146  1.0000
  H   H1735     1.0  0.74334  0.34071  0.61946  1.0000
  H   H1736     1.0  0.77111  0.60658  0.70285  1.0000
  H   H1737     1.0  0.75148  0.62835  0.71329  1.0000
  H   H1738     1.0  0.68932  0.36282  0.65008  1.0000
  H   H1739     1.0  0.70429  0.35712  0.62445  1.0000
  H   H1740     1.0  0.76910  0.66498  0.67794  1.0000
  C   C1088     1.0  0.66121  0.58943  0.64925  1.0000
  H   H1741     1.0  0.96250  0.42321  0.86938  1.0000
  H   H1742     1.0  0.66660  0.66667  0.76015  1.0000
  S   S445      1.0  0.89639  0.37457  0.87608  1.0000
  H   H1743     1.0  0.83706  0.59551  0.92987  1.0000
  C   C1089     1.0  0.84659  0.54420  0.79696  1.0000
  Fe  Fe225     1.0  0.89380  0.49495  0.94504  1.0000
  S   S446      1.0  0.91768  0.51119  0.91871  1.0000
  Fe  Fe226     1.0  0.91253  0.45063  0.93422  1.0000
  S   S447      1.0  0.93752  0.46295  0.90650  1.0000
  S   S448      1.0  0.91279  0.41503  0.94575  1.0000
  Fe  Fe227     1.0  0.94210  0.48101  0.92893  1.0000
  H   H1744     1.0  0.92521  0.46302  0.86476  1.0000
  Fe  Fe228     1.0  0.91072  0.49160  0.89883  1.0000
  S   S449      1.0  0.90565  0.50725  0.86503  1.0000
  S   S450      1.0  0.91868  0.46687  0.95722  1.0000
  S   S451      1.0  0.88522  0.47722  0.92465  1.0000
  H   H1745     1.0  0.84919  0.44801  0.98279  1.0000
  Fe  Fe229     1.0  0.80595  0.59618  0.83765  1.0000
  S   S452      1.0  0.82738  0.59975  0.80478  1.0000
  S   S453      1.0  0.81492  0.57204  0.86718  1.0000
  Fe  Fe230     1.0  0.76743  0.62857  0.82202  1.0000
  S   S454      1.0  0.78563  0.63489  0.78794  1.0000
  C   C1090     1.0  0.73594  0.60577  0.77152  1.0000
  Fe  Fe231     1.0  0.79817  0.59880  0.79357  1.0000
  H   H1746     1.0  0.88450  0.54968  0.93329  1.0000
  Fe  Fe232     1.0  0.81288  0.63545  0.80226  1.0000
  H   H1747     1.0  0.97262  0.42470  0.84110  1.0000
  S   S455      1.0  0.77775  0.59224  0.82672  1.0000
  S   S456      1.0  0.79365  0.63220  0.83615  1.0000
  H   H1748     1.0  0.83330  0.50061  0.83586  1.0000
  C   C1091     1.0  0.73142  0.60004  0.75446  1.0000
  Fe  Fe233     1.0  0.91668  0.34057  0.87784  1.0000
  H   H1749     1.0  0.86552  0.56919  0.94717  1.0000
  C   C1092     1.0  0.98196  0.35961  0.84680  1.0000
  H   H1750     1.0  0.94849  0.37536  0.97875  1.0000
  H   H1751     1.0  0.86331  0.57103  0.88259  1.0000
  C   C1093     1.0  0.68970  0.64800  0.79322  1.0000
  H   H1752     1.0  0.88522  0.57887  0.88817  1.0000
  C   C1094     1.0  0.97690  0.59796  0.95956  1.0000
  H   H1753     1.0  0.90550  0.44808  0.86518  1.0000
  H   H1754     1.0  0.99241  0.61471  0.91860  1.0000
  S   S457      1.0  0.86600  0.51310  0.96569  1.0000
  H   H1755     1.0  0.80182  0.53103  0.83319  1.0000
  C   C1095     1.0  0.93591  0.44823  0.82848  1.0000
  H   H1756     1.0  0.75968  0.60425  0.78905  1.0000
  H   H1757     1.0  0.96148  0.59554  0.95731  1.0000
  C   C1096     1.0  0.99399  0.59667  0.92263  1.0000
  H   H1758     1.0  0.66210  0.66057  0.82773  1.0000
  C   C1097     1.0  0.99391  0.38555  0.94183  1.0000
  C   C1098     1.0  0.87415  0.52772  0.97994  1.0000
  H   H1759     1.0  0.94476  0.40445  0.84073  1.0000
  C   C1099     1.0  0.88004  0.52443  0.86441  1.0000
  C   C1100     1.0  0.86242  0.52039  0.88111  1.0000
  C   C1101     1.0  0.84230  0.53467  0.88122  1.0000
  C   C1102     1.0  0.83966  0.55327  0.86476  1.0000
  C   C1103     1.0  0.85707  0.55711  0.84764  1.0000
  C   C1104     1.0  0.87722  0.54257  0.84738  1.0000
  H   H1760     1.0  0.86417  0.50622  0.89398  1.0000
  H   H1761     1.0  0.82881  0.53146  0.89435  1.0000
  H   H1762     1.0  0.85529  0.57169  0.83509  1.0000
  H   H1763     1.0  0.89083  0.54584  0.83443  1.0000
  C   C1105     1.0  0.90208  0.53639  0.99234  1.0000
  H   H1764     1.0  0.80326  0.55417  0.81118  1.0000
  S   S458      1.0  0.70514  0.60934  0.74945  1.0000
  H   H1765     1.0  0.85521  0.53759  0.92413  1.0000
  S   S459      1.0  0.83066  0.66245  0.78564  1.0000
  H   H1766     1.0  0.83963  0.50944  0.78690  1.0000
  H   H1767     1.0  0.81714  0.55057  0.83243  1.0000
  H   H1768     1.0  0.94761  0.44033  0.81580  1.0000
  H   H1769     1.0  0.83387  0.55802  0.91373  1.0000
  C   C1106     1.0  0.89855  0.38545  0.89691  1.0000
  C   C1107     1.0  0.89033  0.40763  0.89697  1.0000
  C   C1108     1.0  0.89419  0.41682  0.91229  1.0000
  C   C1109     1.0  0.90618  0.40377  0.92756  1.0000
  C   C1110     1.0  0.91360  0.38151  0.92799  1.0000
  C   C1111     1.0  0.90974  0.37237  0.91274  1.0000
  H   H1770     1.0  0.88131  0.41772  0.88497  1.0000
  H   H1771     1.0  0.88804  0.43397  0.91218  1.0000
  H   H1772     1.0  0.92263  0.37134  0.93993  1.0000
  H   H1773     1.0  0.91546  0.35515  0.91327  1.0000
  H   H1774     1.0  0.96408  0.44917  0.85147  1.0000
  C   C1112     1.0  0.86609  0.44759  0.98350  1.0000
  H   H1775     1.0  0.90766  0.51145  0.97437  1.0000
  N   N110      1.0  0.67441  0.63559  0.80934  1.0000
  C   C1113     1.0  0.96026  0.43299  0.85312  1.0000
  S   S460      1.0  0.79919  0.58013  0.76888  1.0000
  H   H1776     1.0  0.68294  0.66585  0.79040  1.0000
  H   H1777     1.0  0.90660  0.42685  0.98828  1.0000
  H   H1778     1.0  0.88240  0.40452  0.98636  1.0000
  H   H1779     1.0  0.97272  0.38740  0.86122  1.0000
  H   H1780     1.0  0.96979  0.35627  0.96619  1.0000
  C   C1114     1.0  0.98599  0.37559  0.85494  1.0000
  H   H1781     1.0  0.85773  0.60529  0.90808  1.0000
  H   H1782     1.0  0.91875  0.53328  0.99364  1.0000
  H   H1783     1.0  0.88326  0.55064  0.89513  1.0000
  H   H1784     1.0  0.97981  0.59292  0.91905  1.0000
  C   C1115     1.0  0.68423  0.61203  0.81278  1.0000
  N   N111      1.0  0.86049  0.57046  0.91588  1.0000
  H   H1785     1.0  0.83699  0.55515  0.94070  1.0000
  C   C1116     1.0  0.84735  0.59289  0.91404  1.0000
  C   C1117     1.0  0.98737  0.38148  0.98031  1.0000
  H   H1786     1.0  0.84212  0.54682  0.98805  1.0000
  C   C1118     1.0  0.87490  0.56670  0.93101  1.0000
  H   H1787     1.0  0.95767  0.41639  0.94506  1.0000
  C   C1119     1.0  0.89579  0.52399  0.98143  1.0000
  H   H1788     1.0  0.91937  0.45012  0.82578  1.0000
  H   H1789     1.0  0.93500  0.40308  0.86909  1.0000
  H   H1790     1.0  0.83637  0.59624  0.90262  1.0000
  C   C1120     1.0  0.83429  0.66381  0.75809  1.0000
  H   H1791     1.0  0.69353  0.64317  0.77746  1.0000
  C   C1121     1.0  0.97805  0.51672  0.91151  1.0000
  C   C1122     1.0  0.96541  0.41095  0.95930  1.0000
  C   C1123     1.0  0.75662  0.59936  0.77593  1.0000
  H   H1792     1.0  0.88646  0.57793  0.92525  1.0000
  H   H1793     1.0  0.93896  0.46491  0.82611  1.0000
  H   H1794     1.0  0.96563  0.35990  0.84589  1.0000
  H   H1795     1.0  0.83826  0.55747  0.78540  1.0000
  C   C1124     1.0  0.85887  0.54395  0.98915  1.0000
  C   C1125     1.0  0.84368  0.51225  0.82566  1.0000
  C   C1126     1.0  0.84599  0.55465  0.92393  1.0000
  H   H1796     1.0  0.84855  0.51952  0.83672  1.0000
  H   H1797     1.0  0.85206  0.55213  0.80704  1.0000
  N   N112      1.0  0.97707  0.38794  0.96145  1.0000
  H   H1798     1.0  0.81428  0.50797  0.80569  1.0000
  H   H1799     1.0  0.85861  0.50271  0.81719  1.0000
  S   S461      1.0  0.73194  0.64339  0.82861  1.0000
  H   H1800     1.0  0.97528  0.38322  0.99544  1.0000
  H   H1801     1.0  0.91676  0.41444  0.85110  1.0000
  H   H1802     1.0  0.92411  0.43715  0.88302  1.0000
  H   H1803     1.0  0.81682  0.53168  0.78439  1.0000
  H   H1804     1.0  0.68796  0.60603  0.79761  1.0000
  C   C1127     1.0  0.82546  0.51908  0.79622  1.0000
  H   H1805     1.0  0.86127  0.53542  0.78742  1.0000
  C   C1128     1.0  0.66952  0.64283  0.82983  1.0000
  C   C1129     1.0  0.93350  0.41339  0.85285  1.0000
  N   N113      1.0  0.83215  0.52930  0.81030  1.0000
  C   C1130     1.0  0.81277  0.54179  0.82232  1.0000
  H   H1806     1.0  0.67324  0.60216  0.82498  1.0000
  H   H1807     1.0  0.97647  0.42214  0.95728  1.0000
  C   C1131     1.0  0.92250  0.44637  0.86649  1.0000
  H   H1808     1.0  0.87665  0.44359  0.96828  1.0000
  H   H1809     1.0  0.96176  0.51838  0.90965  1.0000
  S   S462      1.0  0.97569  0.47507  0.93465  1.0000
  H   H1810     1.0  0.95365  0.37818  0.95029  1.0000
  C   C1132     1.0  0.87367  0.56762  0.89452  1.0000
  H   H1811     1.0  0.72357  0.61546  0.78130  1.0000
  N   N114      1.0  0.93806  0.43521  0.85021  1.0000
  H   H1812     1.0  0.89077  0.34460  0.96366  1.0000
  C   C1133     1.0  0.96164  0.37379  0.96428  1.0000
  H   H1813     1.0  0.97612  0.61581  0.95654  1.0000
  H   H1814     1.0  0.70519  0.64525  0.79851  1.0000
  H   H1815     1.0  0.69966  0.60856  0.81845  1.0000
  H   H1816     1.0  0.86709  0.46437  0.98383  1.0000
  C   C1134     1.0  0.98886  0.53412  0.90220  1.0000
  H   H1817     1.0  0.95235  0.41327  0.97368  1.0000
  H   H1818     1.0  0.97764  0.59113  0.97679  1.0000
  H   H1819     1.0  0.68449  0.64014  0.83610  1.0000
  H   H1820     1.0  0.83778  0.62917  0.76192  1.0000
  H   H1821     1.0  0.98677  0.38969  0.92729  1.0000
  C   C1135     1.0  0.77310  0.58678  0.76352  1.0000
  H   H1822     1.0  0.98131  0.56008  0.94847  1.0000
  C   C1136     1.0  0.98844  0.49724  0.92313  1.0000
  H   H1823     1.0  0.98087  0.54921  0.89319  1.0000
  C   C1137     1.0  0.91549  0.33710  0.98214  1.0000
  C   C1138     1.0  0.83659  0.64483  0.75082  1.0000
  H   H1824     1.0  0.78768  0.73315  0.15134  1.0000
  S   S463      1.0  0.68813  0.83041  0.12142  1.0000
  Fe  Fe234     1.0  0.73470  0.77553  0.16819  1.0000
  S   S464      1.0  0.71808  0.74819  0.18724  1.0000
  S   S465      1.0  0.76894  0.77141  0.17076  1.0000
  Fe  Fe235     1.0  0.69718  0.80004  0.14636  1.0000
  C   C1139     1.0  0.77410  0.69510  0.14096  1.0000
  C   C1140     1.0  0.76241  0.68367  0.11456  1.0000
  H   H1825     1.0  0.68169  0.71416  0.18578  1.0000
  H   H1826     1.0  0.76601  0.67499  0.10174  1.0000
  Fe  Fe236     1.0  0.70818  0.75047  0.15664  1.0000
  S   S466      1.0  0.70986  0.72065  0.14485  1.0000
  S   S467      1.0  0.70652  0.80224  0.17608  1.0000
  S   S468      1.0  0.72728  0.77562  0.13692  1.0000
  H   H1827     1.0  0.83883  0.75373  0.10056  1.0000
  H   H1828     1.0  0.70042  0.79358  0.24275  1.0000
  H   H1829     1.0  0.80127  0.77665  0.13043  1.0000
  H   H1830     1.0  0.81029  0.74022  0.09232  1.0000
  H   H1831     1.0  0.81470  0.71535  0.11216  1.0000
  H   H1832     1.0  0.80069  0.75940  0.19640  1.0000
  H   H1833     1.0  0.83718  0.74722  0.22689  1.0000
  H   H1834     1.0  0.67203  0.71387  0.21391  1.0000
  H   H1835     1.0  0.69848  0.73537  0.23143  1.0000
  H   H1836     1.0  0.83830  0.75363  0.12804  1.0000
  H   H1837     1.0  0.75123  0.82735  0.21356  1.0000
  S   S469      1.0  0.85874  0.68003  0.12293  1.0000
  C   C1141     1.0  0.85254  0.71398  0.19103  1.0000
  C   C1142     1.0  0.84974  0.71265  0.23460  1.0000
  C   C1143     1.0  0.84321  0.73242  0.22080  1.0000
  H   H1838     1.0  0.66883  0.87365  0.13457  1.0000
  H   H1839     1.0  0.86311  0.67826  0.23719  1.0000
  C   C1144     1.0  0.71190  0.68848  0.20721  1.0000
  H   H1840     1.0  0.70873  0.76842  0.23383  1.0000
  H   H1841     1.0  0.66555  0.78419  0.05062  1.0000
  C   C1145     1.0  0.73650  0.70649  0.13735  1.0000
  H   H1842     1.0  0.72411  0.67333  0.21124  1.0000
  H   H1843     1.0  0.72855  0.69424  0.11373  1.0000
  H   H1844     1.0  0.78824  0.73243  0.11338  1.0000
  H   H1845     1.0  0.71897  0.69790  0.19128  1.0000
  C   C1146     1.0  0.75298  0.70682  0.14717  1.0000
  H   H1846     1.0  0.70200  0.67962  0.17398  1.0000
  Fe  Fe237     1.0  0.68903  0.77482  0.19254  1.0000
  C   C1147     1.0  0.74121  0.69460  0.12132  1.0000
  H   H1847     1.0  0.74942  0.71588  0.15967  1.0000
  C   C1148     1.0  0.85900  0.69417  0.20487  1.0000
  C   C1149     1.0  0.66204  0.83717  0.11594  1.0000
  C   C1150     1.0  0.85789  0.69357  0.22657  1.0000
  C   C1151     1.0  0.77892  0.68387  0.12432  1.0000
  N   N115      1.0  0.69130  0.68337  0.20677  1.0000
  H   H1848     1.0  0.70961  0.69828  0.21936  1.0000
  C   C1152     1.0  0.79304  0.78352  0.21560  1.0000
  S   S470      1.0  0.66662  0.77597  0.22456  1.0000
  S   S471      1.0  0.67721  0.77472  0.16350  1.0000
  H   H1849     1.0  0.84415  0.72841  0.11966  1.0000
  C   C1153     1.0  0.78724  0.67483  0.22598  1.0000
  H   H1850     1.0  0.67082  0.89909  0.10006  1.0000
  S   S472      1.0  0.85388  0.71509  0.16382  1.0000
  H   H1851     1.0  0.86515  0.67938  0.19880  1.0000
  H   H1852     1.0  0.80907  0.74191  0.15698  1.0000
  H   H1853     1.0  0.84019  0.74854  0.18825  1.0000
  C   C1154     1.0  0.83402  0.74519  0.11755  1.0000
  C   C1155     1.0  0.77907  0.80258  0.22057  1.0000
  C   C1156     1.0  0.76202  0.81254  0.20978  1.0000
  C   C1157     1.0  0.75868  0.80305  0.19442  1.0000
  C   C1158     1.0  0.77259  0.78381  0.18970  1.0000
  C   C1159     1.0  0.78988  0.77421  0.20012  1.0000
  S   S473      1.0  0.78199  0.81292  0.24137  1.0000
  H   H1854     1.0  0.79566  0.68411  0.21069  1.0000
  H   H1855     1.0  0.74553  0.81073  0.18610  1.0000
  C   C1160     1.0  0.84492  0.73314  0.19897  1.0000
  H   H1856     1.0  0.78671  0.69512  0.14869  1.0000
  H   H1857     1.0  0.80906  0.70173  0.23207  1.0000
  Fe  Fe238     1.0  0.85403  0.68295  0.15702  1.0000
  N   N116      1.0  0.81074  0.74465  0.12338  1.0000
  C   C1161     1.0  0.79792  0.76721  0.12023  1.0000
  C   C1162     1.0  0.80521  0.73353  0.14617  1.0000
  C   C1163     1.0  0.80580  0.73267  0.10968  1.0000
  H   H1858     1.0  0.80151  0.77613  0.10321  1.0000
  H   H1859     1.0  0.78025  0.76739  0.12487  1.0000
  H   H1860     1.0  0.81447  0.71647  0.14908  1.0000
  S   S474      1.0  0.80550  0.67097  0.11442  1.0000
  H   H1861     1.0  0.80646  0.77610  0.22357  1.0000
  C   C1164     1.0  0.68350  0.73340  0.24264  1.0000
  C   C1165     1.0  0.69531  0.67048  0.19023  1.0000
  C   C1166     1.0  0.67554  0.70391  0.20157  1.0000
  C   C1167     1.0  0.66556  0.75077  0.24271  1.0000
  H   H1862     1.0  0.75373  0.75522  0.24297  1.0000
  C   C1168     1.0  0.71434  0.77981  0.24006  1.0000
  H   H1863     1.0  0.67941  0.67959  0.24099  1.0000
  H   H1864     1.0  0.72714  0.78647  0.22710  1.0000
  H   H1865     1.0  0.77042  0.68418  0.22993  1.0000
  H   H1866     1.0  0.67037  0.86215  0.08811  1.0000
  C   C1169     1.0  0.68253  0.67056  0.22800  1.0000
  H   H1867     1.0  0.67897  0.90956  0.13072  1.0000
  N   N117      1.0  0.79877  0.67100  0.24359  1.0000
  H   H1868     1.0  0.66986  0.78183  0.07707  1.0000
  C   C1170     1.0  0.66144  0.91664  0.13540  1.0000
  S   S475      1.0  0.82355  0.66995  0.16813  1.0000
  C   C1171     1.0  0.80027  0.69216  0.24691  1.0000
  C   C1172     1.0  0.99153  0.97693  0.42100  1.0000
  N   N118      1.0  0.72244  0.76872  0.25998  1.0000
  Fe  Fe239     1.0  0.81648  0.76865  0.30460  1.0000
  S   S476      1.0  0.81131  0.73465  0.30946  1.0000
  S   S477      1.0  0.83581  0.77141  0.32726  1.0000
  H   H1869     1.0  0.72083  0.67615  0.31443  1.0000
  H   H1870     1.0  0.90931  0.88540  0.42954  1.0000
  Fe  Fe240     1.0  0.77871  0.75055  0.30200  1.0000
  S   S478      1.0  0.74714  0.73968  0.31581  1.0000
  H   H1871     1.0  0.89710  0.91120  0.47644  1.0000
  S   S479      1.0  0.78233  0.78428  0.30079  1.0000
  H   H1872     1.0  0.98558  0.93340  0.46271  1.0000
  C   C1173     1.0  0.98221  0.94307  0.42157  1.0000
  H   H1873     1.0  0.69819  0.74903  0.27241  1.0000
  C   C1174     1.0  0.77287  0.67633  0.31407  1.0000
  H   H1874     1.0  0.73428  0.73790  0.25047  1.0000
  H   H1875     1.0  0.88477  0.98258  0.31629  1.0000
  C   C1175     1.0  0.84169  0.99649  0.32620  1.0000
  C   C1176     1.0  0.66267  0.71076  0.27208  1.0000
  H   H1876     1.0  0.99001  0.98967  0.43004  1.0000
  C   C1177     1.0  0.90008  0.90254  0.42715  1.0000
  C   C1178     1.0  0.88093  0.85343  0.47196  1.0000
  Fe  Fe241     1.0  0.87914  0.86627  0.34052  1.0000
  S   S480      1.0  0.89289  0.84195  0.36754  1.0000
  S   S481      1.0  0.86420  0.86047  0.31580  1.0000
  Fe  Fe242     1.0  0.88564  0.90547  0.35341  1.0000
  S   S482      1.0  0.89951  0.88474  0.38157  1.0000
  S   S483      1.0  0.87999  0.94214  0.34641  1.0000
  Fe  Fe243     1.0  0.91798  0.86259  0.35920  1.0000
  S   S484      1.0  0.95365  0.84971  0.35754  1.0000
  Fe  Fe244     1.0  0.87342  0.86622  0.38756  1.0000
  S   S485      1.0  0.85441  0.85848  0.42130  1.0000
  S   S486      1.0  0.90604  0.88485  0.33028  1.0000
  S   S487      1.0  0.85763  0.88895  0.36139  1.0000
  C   C1179     1.0  0.89553  0.95076  0.35935  1.0000
  C   C1180     1.0  0.91381  0.93658  0.36597  1.0000
  C   C1181     1.0  0.92505  0.94282  0.37798  1.0000
  C   C1182     1.0  0.91826  0.96343  0.38307  1.0000
  H   H1877     1.0  0.74648  0.74115  0.27052  1.0000
  C   C1183     1.0  0.88923  0.97170  0.36375  1.0000
  H   H1878     1.0  0.91941  0.92082  0.36172  1.0000
  H   H1879     1.0  0.93905  0.93165  0.38320  1.0000
  C   C1184     1.0  0.97609  0.86790  0.40927  1.0000
  H   H1880     1.0  0.93276  0.85385  0.40102  1.0000
  C   C1185     1.0  0.94857  0.85764  0.39764  1.0000
  H   H1881     1.0  0.71802  0.79875  0.27007  1.0000
  H   H1882     1.0  0.82466  0.99637  0.32643  1.0000
  C   C1186     1.0  0.87258  0.85202  0.43857  1.0000
  C   C1187     1.0  0.89394  0.84154  0.43204  1.0000
  C   C1188     1.0  0.90865  0.83660  0.44559  1.0000
  H   H1883     1.0  0.84768  0.98185  0.33809  1.0000
  H   H1884     1.0  0.85486  0.73780  0.29694  1.0000
  H   H1885     1.0  0.89911  0.83700  0.41656  1.0000
  H   H1886     1.0  0.97386  0.95107  0.40790  1.0000
  C   C1189     1.0  0.89579  0.90248  0.46459  1.0000
  C   C1190     1.0  0.84473  0.79582  0.32295  1.0000
  C   C1191     1.0  0.83840  0.81395  0.30722  1.0000
  C   C1192     1.0  0.84513  0.83350  0.30470  1.0000
  C   C1193     1.0  0.85821  0.83500  0.31785  1.0000
  C   C1194     1.0  0.86510  0.81664  0.33311  1.0000
  C   C1195     1.0  0.85825  0.79712  0.33574  1.0000
  H   H1887     1.0  0.82802  0.81304  0.29725  1.0000
  H   H1888     1.0  0.83982  0.84766  0.29280  1.0000
  H   H1889     1.0  0.87553  0.81753  0.34301  1.0000
  H   H1890     1.0  0.86333  0.78303  0.34781  1.0000
  C   C1196     1.0  0.75018  0.71221  0.31519  1.0000
  C   C1197     1.0  0.73224  0.70418  0.31530  1.0000
  H   H1891     1.0  0.86171  0.96182  0.30869  1.0000
  H   H1892     1.0  0.89130  0.72077  0.26219  1.0000
  H   H1893     1.0  0.91215  0.70895  0.29136  1.0000
  C   C1198     1.0  0.77053  0.69834  0.31426  1.0000
  H   H1894     1.0  0.71643  0.71479  0.31611  1.0000
  H   H1895     1.0  0.89187  0.94598  0.44996  1.0000
  H   H1896     1.0  0.86562  0.97641  0.28120  1.0000
  H   H1897     1.0  0.78440  0.70438  0.31428  1.0000
  H   H1898     1.0  0.87359  0.74682  0.25891  1.0000
  H   H1899     1.0  0.73687  0.77645  0.28212  1.0000
  C   C1199     1.0  0.70468  0.76097  0.27704  1.0000
  H   H1900     1.0  0.87231  0.93656  0.44185  1.0000
  H   H1901     1.0  0.92858  0.92378  0.44999  1.0000
  C   C1200     1.0  0.96237  0.85622  0.37769  1.0000
  C   C1201     1.0  0.99012  0.86602  0.38951  1.0000
  H   H1902     1.0  0.99195  0.95871  0.46272  1.0000
  C   C1202     1.0  0.90062  0.97805  0.37557  1.0000
  H   H1903     1.0  0.90918  0.72665  0.30920  1.0000
  H   H1904     1.0  0.86952  0.72904  0.31804  1.0000
  C   C1203     1.0  0.86602  0.85780  0.45864  1.0000
  H   H1905     1.0  0.95710  0.97940  0.45366  1.0000
  C   C1204     1.0  0.68213  0.71350  0.25754  1.0000
  C   C1205     1.0  0.88501  0.76162  0.28805  1.0000
  C   C1206     1.0  0.88982  0.93661  0.43897  1.0000
  H   H1906     1.0  0.69603  0.70026  0.25771  1.0000
  C   C1207     1.0  0.95546  0.86333  0.41347  1.0000
  H   H1907     1.0  0.80913  0.68983  0.25996  1.0000
  S   S488      1.0  0.79017  0.75196  0.26678  1.0000
  S   S489      1.0  0.98420  0.87601  0.42879  1.0000
  S   S490      1.0  0.84758  0.71144  0.26195  1.0000
  N   N119      1.0  0.81410  0.84416  0.37705  1.0000
  C   C1208     1.0  0.80202  0.83201  0.39684  1.0000
  C   C1209     1.0  0.80952  0.83974  0.35798  1.0000
  C   C1210     1.0  0.83749  0.83708  0.37681  1.0000
  C   C1211     1.0  0.80750  0.86782  0.37655  1.0000
  H   H1908     1.0  0.80533  0.83492  0.41149  1.0000
  H   H1909     1.0  0.80665  0.81410  0.39760  1.0000
  H   H1910     1.0  0.78427  0.83700  0.39767  1.0000
  H   H1911     1.0  0.79194  0.84427  0.35789  1.0000
  H   H1912     1.0  0.81792  0.84922  0.34279  1.0000
  H   H1913     1.0  0.81511  0.82215  0.35728  1.0000
  H   H1914     1.0  0.84703  0.84591  0.36204  1.0000
  H   H1915     1.0  0.84315  0.81931  0.37716  1.0000
  H   H1916     1.0  0.78983  0.87372  0.37724  1.0000
  H   H1917     1.0  0.81601  0.87741  0.36150  1.0000
  H   H1918     1.0  0.81145  0.87184  0.39032  1.0000
  H   H1919     1.0  0.84951  0.86605  0.46366  1.0000
  H   H1920     1.0  0.92511  0.82827  0.44048  1.0000
  H   H1921     1.0  0.93197  0.92369  0.42212  1.0000
  N   N120      1.0  0.90292  0.91417  0.44234  1.0000
  H   H1922     1.0  0.83870  0.97608  0.29701  1.0000
  C   C1212     1.0  0.74005  0.74990  0.25576  1.0000
  H   H1923     1.0  0.84161  0.84031  0.39087  1.0000
  H   H1924     1.0  0.86943  0.77136  0.28378  1.0000
  H   H1925     1.0  0.93633  0.89837  0.44124  1.0000
  H   H1926     1.0  0.89810  0.76976  0.27722  1.0000
  H   H1927     1.0  0.89521  0.99393  0.37958  1.0000
  N   N121      1.0  0.98123  0.95871  0.43465  1.0000
  C   C1213     1.0  0.90229  0.84275  0.46544  1.0000
  C   C1214     1.0  0.98330  0.86005  0.37378  1.0000
  C   C1215     1.0  0.73077  0.78419  0.26702  1.0000
  C   C1216     1.0  0.90916  0.72636  0.29239  1.0000
  C   C1217     1.0  0.92597  0.91504  0.43879  1.0000
  N   N122      1.0  0.85540  0.99672  0.30445  1.0000
  C   C1218     1.0  0.95843  0.96741  0.44383  1.0000
  H   H1928     1.0  0.98401  0.98502  0.40679  1.0000
  S   S491      1.0  0.93084  0.97013  0.40020  1.0000
  C   C1219     1.0  0.87778  0.99709  0.30489  1.0000
  H   H1929     1.0  0.87582  0.85832  0.48720  1.0000
  H   H1930     1.0  0.90575  0.91068  0.41018  1.0000
  H   H1931     1.0  0.94495  0.86384  0.42904  1.0000
  H   H1932     1.0  0.97302  0.84248  0.46827  1.0000
  C   C1220     1.0  0.87062  0.72872  0.30098  1.0000
  H   H1933     1.0  0.88861  0.99716  0.28878  1.0000
  S   S492      1.0  0.92126  0.83619  0.48193  1.0000
  H   H1934     1.0  0.71027  0.75275  0.29236  1.0000
  H   H1935     1.0  0.90586  0.88576  0.46788  1.0000
  Fe  Fe245     1.0  0.82328  0.73938  0.27384  1.0000
  H   H1936     1.0  0.88423  0.76280  0.30479  1.0000
  H   H1937     1.0  0.74444  0.79009  0.25471  1.0000
  H   H1938     1.0  0.87864  0.90094  0.46773  1.0000
  H   H1939     1.0  0.87517  0.98280  0.35862  1.0000
  Fe  Fe246     1.0  0.79564  0.78491  0.26569  1.0000
  H   H1940     1.0  0.69097  0.77469  0.28044  1.0000
  H   H1941     1.0  0.95009  0.95421  0.45431  1.0000
  H   H1942     1.0  0.97430  0.92927  0.43127  1.0000
  H   H1943     1.0  0.89455  0.94582  0.42223  1.0000
  H   H1944     1.0  0.94916  0.97599  0.43103  1.0000
  C   C1221     1.0  0.88903  0.73785  0.26397  1.0000
  H   H1945     1.0  0.87229  0.71153  0.29986  1.0000
  H   H1946     1.0  0.88281  0.90189  0.42910  1.0000
  C   C1222     1.0  0.97836  0.83095  0.48269  1.0000
  N   N123      1.0  0.88846  0.73866  0.28632  1.0000
  S   S493      1.0  0.83021  0.77260  0.26912  1.0000
  C   C1223     1.0  0.73471  0.68230  0.31439  1.0000
  C   C1224     1.0  0.85533  0.97692  0.29748  1.0000
  H   H1947     1.0  0.97917  0.81417  0.48097  1.0000
  H   H1948     1.0  0.92301  0.73340  0.28164  1.0000
  H   H1949     1.0  0.99406  0.85885  0.35842  1.0000
  H   H1950     1.0  0.78399  0.70229  0.25159  1.0000
  C   C1225     1.0  0.99275  0.94743  0.45234  1.0000
  H   H1951     1.0  0.90226  0.74522  0.25236  1.0000
  H   H1952     1.0  0.89259  0.80356  0.49352  1.0000
  H   H1953     1.0  0.99307  0.86825  0.47189  1.0000
  H   H1954     1.0  0.96541  0.83406  0.49693  1.0000
  Fe  Fe247     1.0  0.80448  0.74800  0.67744  1.0000
  Fe  Fe248     1.0  0.83553  0.74113  0.63584  1.0000
  S   S494      1.0  0.79281  0.76664  0.70379  1.0000
  S   S495      1.0  0.89782  0.93540  0.50600  1.0000
  S   S496      1.0  0.80223  0.76174  0.64290  1.0000
  H   H1955     1.0  0.95353  0.96670  0.54354  1.0000
  H   H1956     1.0  0.91061  0.94557  0.60233  1.0000
  S   S497      1.0  0.69125  0.79333  0.71752  1.0000
  H   H1957     1.0  0.91291  0.79761  0.52163  1.0000
  C   C1226     1.0  0.97448  0.89417  0.53943  1.0000
  H   H1958     1.0  0.72012  0.78591  0.74645  1.0000
  H   H1959     1.0  0.69798  0.69832  0.70350  1.0000
  C   C1227     1.0  0.98572  0.87249  0.54172  1.0000
  H   H1960     1.0  0.68967  0.72502  0.72481  1.0000
  H   H1961     1.0  0.89603  0.96744  0.57001  1.0000
  S   S498      1.0  0.97214  0.85121  0.54572  1.0000
  H   H1962     1.0  0.68368  0.71565  0.68330  1.0000
  H   H1963     1.0  0.90020  0.79079  0.54950  1.0000
  S   S499      1.0  0.86420  0.75171  0.61151  1.0000
  H   H1964     1.0  0.76028  0.77677  0.74046  1.0000
  N   N124      1.0  0.92975  0.95542  0.57090  1.0000
  S   S500      1.0  0.76092  0.73083  0.63514  1.0000
  Fe  Fe249     1.0  0.89148  0.86120  0.55231  1.0000
  S   S501      1.0  0.88459  0.87755  0.51953  1.0000
  S   S502      1.0  0.86293  0.85254  0.57813  1.0000
  Fe  Fe250     1.0  0.93921  0.86214  0.53766  1.0000
  C   C1228     1.0  0.95181  0.97068  0.49930  1.0000
  Fe  Fe251     1.0  0.90651  0.89929  0.51881  1.0000
  H   H1965     1.0  0.79253  0.72580  0.74016  1.0000
  H   H1966     1.0  0.73273  0.73865  0.69742  1.0000
  H   H1967     1.0  0.73958  0.71861  0.68135  1.0000
  S   S503      1.0  0.91086  0.88502  0.55275  1.0000
  S   S504      1.0  0.92031  0.83691  0.54026  1.0000
  H   H1968     1.0  0.93358  0.93789  0.54634  1.0000
  H   H1969     1.0  0.93937  0.93843  0.60079  1.0000
  H   H1970     1.0  0.86167  0.78713  0.55961  1.0000
  H   H1971     1.0  0.69501  0.75186  0.71336  1.0000
  Fe  Fe252     1.0  0.91501  0.85517  0.50751  1.0000
  H   H1972     1.0  0.97677  0.92761  0.53564  1.0000
  H   H1973     1.0  0.71606  0.74287  0.65749  1.0000
  H   H1974     1.0  0.70819  0.76291  0.67371  1.0000
  H   H1975     1.0  0.95727  0.89796  0.54006  1.0000
  H   H1976     1.0  0.92526  0.96623  0.60015  1.0000
  H   H1977     1.0  0.91053  0.98798  0.56851  1.0000
  H   H1978     1.0  0.82884  0.78923  0.60845  1.0000
  H   H1979     1.0  0.95038  0.97780  0.56662  1.0000
  C   C1229     1.0  0.92607  0.95118  0.59461  1.0000
  Fe  Fe253     1.0  0.82417  0.70222  0.67079  1.0000
  H   H1980     1.0  0.96440  0.95012  0.56628  1.0000
  C   C1230     1.0  0.75890  0.70452  0.63467  1.0000
  C   C1231     1.0  0.83293  0.68403  0.74359  1.0000
  H   H1981     1.0  0.94388  0.92183  0.56965  1.0000
  S   S505      1.0  0.82404  0.71148  0.63556  1.0000
  H   H1982     1.0  0.84672  0.79151  0.53909  1.0000
  C   C1232     1.0  0.93063  0.98243  0.49947  1.0000
  C   C1233     1.0  0.73847  0.69987  0.63764  1.0000
  H   H1983     1.0  0.67356  0.74413  0.70694  1.0000
  C   C1234     1.0  0.72772  0.72437  0.69524  1.0000
  N   N125      1.0  0.87902  0.79755  0.52746  1.0000
  H   H1984     1.0  0.78557  0.70245  0.73619  1.0000
  C   C1235     1.0  0.77876  0.71775  0.74229  1.0000
  C   C1236     1.0  0.86353  0.77979  0.60289  1.0000
  C   C1237     1.0  0.84392  0.79486  0.60298  1.0000
  C   C1238     1.0  0.84385  0.81723  0.59533  1.0000
  C   C1239     1.0  0.86338  0.82454  0.58756  1.0000
  C   C1240     1.0  0.88297  0.80945  0.58744  1.0000
  C   C1241     1.0  0.88303  0.78710  0.59501  1.0000
  C   C1242     1.0  0.93065  0.93520  0.56416  1.0000
  H   H1985     1.0  0.82865  0.82889  0.59523  1.0000
  H   H1986     1.0  0.89809  0.81501  0.58188  1.0000
  H   H1987     1.0  0.89824  0.77544  0.59494  1.0000
  C   C1243     1.0  0.76471  0.77557  0.70726  1.0000
  C   C1244     1.0  0.75236  0.77873  0.72739  1.0000
  H   H1988     1.0  0.76782  0.72885  0.73176  1.0000
  C   C1245     1.0  0.71950  0.78735  0.71360  1.0000
  C   C1246     1.0  0.73196  0.78529  0.69321  1.0000
  C   C1247     1.0  0.75450  0.77878  0.69019  1.0000
  C   C1248     1.0  0.95042  0.96283  0.56143  1.0000
  H   H1989     1.0  0.72033  0.67473  0.64350  1.0000
  H   H1990     1.0  0.72416  0.78845  0.67981  1.0000
  H   H1991     1.0  0.76392  0.77662  0.67453  1.0000
  H   H1992     1.0  0.72426  0.71284  0.63846  1.0000
  C   C1249     1.0  0.91185  0.97256  0.56343  1.0000
  N   N126      1.0  0.83207  0.80860  0.66406  1.0000
  C   C1250     1.0  0.82623  0.81283  0.68601  1.0000
  C   C1251     1.0  0.81217  0.81249  0.65576  1.0000
  C   C1252     1.0  0.84357  0.78568  0.66472  1.0000
  C   C1253     1.0  0.84629  0.82334  0.64983  1.0000
  H   H1993     1.0  0.84080  0.80973  0.69295  1.0000
  H   H1994     1.0  0.81533  0.80207  0.69709  1.0000
  H   H1995     1.0  0.81763  0.83001  0.68611  1.0000
  H   H1996     1.0  0.80301  0.82960  0.65510  1.0000
  H   H1997     1.0  0.81589  0.80944  0.63926  1.0000
  H   H1998     1.0  0.80113  0.80154  0.66612  1.0000
  H   H1999     1.0  0.85900  0.78226  0.67030  1.0000
  H   H2000     1.0  0.84758  0.78159  0.64859  1.0000
  H   H2001     1.0  0.83356  0.77420  0.67590  1.0000
  H   H2002     1.0  0.85165  0.82000  0.63337  1.0000
  H   H2003     1.0  0.86117  0.82128  0.65596  1.0000
  H   H2004     1.0  0.83791  0.84079  0.64822  1.0000
  S   S506      1.0  0.79009  0.71931  0.68084  1.0000
  C   C1254     1.0  0.90050  0.78888  0.53315  1.0000
  N   N127      1.0  0.70548  0.73037  0.69134  1.0000
  C   C1255     1.0  0.69946  0.71111  0.68841  1.0000
  H   H2005     1.0  0.91522  0.92926  0.57076  1.0000
  C   C1256     1.0  0.86311  0.78542  0.54293  1.0000
  C   C1257     1.0  0.88031  0.79505  0.50549  1.0000
  C   C1258     1.0  0.72970  0.78399  0.73074  1.0000
  S   S507      1.0  0.93644  0.87834  0.50369  1.0000
  S   S508      1.0  0.83876  0.72993  0.67034  1.0000
  C   C1259     1.0  0.69028  0.73814  0.70994  1.0000
  C   C1260     1.0  0.70437  0.74792  0.67177  1.0000
  C   C1261     1.0  0.91411  0.97156  0.50113  1.0000
  H   H2006     1.0  0.83107  0.70103  0.71108  1.0000
  C   C1262     1.0  0.87221  0.82092  0.52823  1.0000
  H   H2007     1.0  0.85637  0.82829  0.52342  1.0000
  H   H2008     1.0  0.88426  0.83035  0.51731  1.0000
  H   H2009     1.0  0.68795  0.75255  0.66801  1.0000
  C   C1263     1.0  0.83289  0.68532  0.72202  1.0000
  C   C1264     1.0  0.77729  0.68789  0.63236  1.0000
  H   H2010     1.0  0.99296  0.82138  0.51913  1.0000
  H   H2011     1.0  0.71155  0.70347  0.67591  1.0000
  Fe  Fe254     1.0  0.79090  0.73104  0.64557  1.0000
  H   H2012     1.0  0.87057  0.82343  0.54466  1.0000
  C   C1265     1.0  0.73626  0.67835  0.64025  1.0000
  H   H2013     1.0  0.79316  0.69145  0.62935  1.0000
  H   H2014     1.0  0.86783  0.76764  0.54308  1.0000
  H   H2015     1.0  0.72912  0.71117  0.70986  1.0000
  H   H2016     1.0  0.90607  0.77120  0.53301  1.0000
  H   H2017     1.0  0.91426  0.97640  0.54557  1.0000
  H   H2018     1.0  0.88496  0.77757  0.50442  1.0000
  C   C1266     1.0  0.91872  0.94892  0.50297  1.0000
  H   H2019     1.0  0.89771  0.98069  0.50121  1.0000
  C   C1267     1.0  0.98551  0.91092  0.53677  1.0000
  H   H2020     1.0  0.94374  0.91985  0.50377  1.0000
  H   H2021     1.0  0.86458  0.80206  0.50033  1.0000
  C   C1268     1.0  0.93999  0.93727  0.50246  1.0000
  C   C1269     1.0  0.95652  0.94822  0.50031  1.0000
  H   H2022     1.0  0.97296  0.93917  0.49982  1.0000
  H   H2023     1.0  0.98494  0.86061  0.50050  1.0000
  S   S509      1.0  0.97274  0.98365  0.49761  1.0000
  H   H2024     1.0  0.92699  0.99994  0.49788  1.0000
  H   H2025     1.0  0.66316  0.83166  0.84719  1.0000
  H   H2026     1.0  0.67724  0.77145  0.85023  1.0000
  Fe  Fe255     1.0  0.68374  0.75735  0.79588  1.0000
  S   S510      1.0  0.70872  0.74612  0.81644  1.0000
  C   C1270     1.0  0.73402  0.70551  0.82854  1.0000
  H   H2027     1.0  0.68663  0.71519  0.81225  1.0000
  C   C1271     1.0  0.73960  0.68267  0.83067  1.0000
  S   S511      1.0  0.67103  0.79198  0.78020  1.0000
  H   H2028     1.0  0.68787  0.79481  0.84876  1.0000
  C   C1272     1.0  0.70641  0.68366  0.82050  1.0000
  H   H2029     1.0  0.75549  0.68646  0.76220  1.0000
  C   C1273     1.0  0.71494  0.71742  0.82165  1.0000
  H   H2030     1.0  0.75138  0.73121  0.78987  1.0000
  H   H2031     1.0  0.74038  0.69912  0.78406  1.0000
  H   H2032     1.0  0.67963  0.91959  0.96297  1.0000
  S   S512      1.0  0.69171  0.74445  0.76592  1.0000
  H   H2033     1.0  0.66405  0.81184  0.97773  1.0000
  H   H2034     1.0  0.79647  0.70637  0.77725  1.0000
  C   C1274     1.0  0.74943  0.70243  0.76714  1.0000
  H   H2035     1.0  0.74468  0.71395  0.83177  1.0000
  C   C1275     1.0  0.70127  0.70635  0.81763  1.0000
  H   H2036     1.0  0.67977  0.79186  0.82585  1.0000
  C   C1276     1.0  0.78262  0.69885  0.77840  1.0000
  H   H2037     1.0  0.78944  0.68303  0.77332  1.0000
  H   H2038     1.0  0.66658  0.88461  0.97844  1.0000
  C   C1277     1.0  0.67553  0.78938  0.84371  1.0000
  H   H2039     1.0  0.66367  0.80936  0.94101  1.0000
  H   H2040     1.0  0.77466  0.69503  0.79568  1.0000
  H   H2041     1.0  0.83126  0.69873  0.74914  1.0000
  H   H2042     1.0  0.67503  0.89794  0.93900  1.0000
  H   H2043     1.0  0.73764  0.71276  0.75718  1.0000
  C   C1278     1.0  0.75865  0.73404  0.77240  1.0000
  N   N128      1.0  0.76736  0.71328  0.76505  1.0000
  H   H2044     1.0  0.77152  0.74341  0.76963  1.0000
  H   H2045     1.0  0.69552  0.67550  0.81748  1.0000
  H   H2046     1.0  0.74570  0.74458  0.76398  1.0000
  C   C1279     1.0  0.66250  0.92818  0.96336  1.0000
  H   H2047     1.0  0.66226  0.94324  0.95034  1.0000
  Fe  Fe256     1.0  0.67620  0.77817  0.75102  1.0000
  H   H2048     1.0  0.75446  0.67351  0.83567  1.0000
  C   C1280     1.0  0.72569  0.67175  0.82665  1.0000
