data_image0
_chemical_formula_structural       CSCHNHCHC3H2C3HCH4C2H2CH2CSCFeH2CH2CHC3H4CHS2H3SCH3CH2C2H3FeSCH3SH2C2HSH2C7H6CSCH2CH6NCH2FeH4CH2CSHCHFeCH3FeH2C2H3NH4CFeHC2HFeCSH2CFeSH3CSFeHSCSHS2HNCS2HFeS2H3C3HCNC4HC6H3C3H4SNC3HFeHSCH5SH2CSCH2S2FeCHFeSHCFeCH2SHSH2CHC2SH3CH4SCH3C2H3SCHC2H2CH4CNH2FeS2FeS2FeNFeS3C11H5CH2C3H2C4H2CH2C2HCH3CH3N2C4H13CH3SNH3C2H2CH7NHCSH2CHCH2CH2CNH2FeHSCSFeSHFeS2FeS2FeHFeS2CHCH6CH3C7H4C2H2C2NHCHCHSCH2N2C3H2C2H2NC4H12NC2H2C2H2CHFeC2HCSH6CH3NHCHCSNH2S2H2FeSH3C6H5FeCHSC2SH5SCH4FeH3C3HSHC2H2CH3CHC2H3SH4C2HSHFeCH2C2HCHC2SH7SFeS2FeS2FeHFeHS3FeHSHC2HC3FeC3HC4H4NC5H4CHCH5CH3CH2CSHFeH2CH2SHSH2CHCH2NHNSFeC2H3CHSFeSH4C3HCH2SH2CHFeCHS2FeSH2CHC6H3NH3CH2CH3CH3SC3HCHSHCHCHCSH2CH2C4HFeC6H2C2SH2CH4NFeH9C2H2FeH3SFeCSFeSFeS2H5C6H4C6H3CSC6SH4NC4H6CHFeHSHNHSHCFeH4NHSCSCFeH3NHFeS2FeHFeHS3CH5C2HSH2SHSC2H2CHCHCHCSHCHC2SH5SHSCHCHNSHSCHS2HFeSFeSHFeH2FeCH3CH3SC2HC3H3C4HCH2CH2C2HC2HCSH2NC4H12NSH2CSCFeH2SC2S2HFeSC3Fe2H3CSFeHSC2HCSHSH3C2HFeSCFeCSH4S2HSCSCHC2Fe2H6C4FeH2SCH2SC3H4CH2CH2CH7CFeC4N2SHC4H4CH3CH2CFeSHFeSNHCHFeH3SHFeNHSH2FeCH2SH3C2H4SH3CFeSCS2HFeSFeSCSH5S2CHNCHCHSCHCSC2H2NH2C3FeHCH4C2H3FeH4C2SCH4C2NHCHCHCS2H6CHCHC2H4C2HC2H2CSHCH3FeCSHNCHNH2SH2CSHSFeS2FeSFeSH4NHC6H6CHCHNHC4H3CH2NHFeHCH4SHSC2SC2HCH8SCH5C2H3CFeCH2CH2CFeH3FeS2HSFeSFeCSFe2S2HNH2C6H3SC6SH2NC2H4FeHC3SCFeC2HCH2CHCH5CH4CHFeH2CSH2CH2CH2SH4CH2SH2C2H3NHCH4FeS3FeSFeHS2H5CH2C6H3CHCH2CH4CSC4FeSNHCHC2HCHFeS2Fe2SHS2Fe2SHFeSNC2HCNCH2C7H4CHC2H3SH2C5H3CH4CH2C2NSH2NCSHC3H2CSH3C2H3CH2C2H2CH4FeSC2S2CH3CH2CHSCHCH4C3H3FeH2C2H2SH3CH4C2H2CH2FeS2FeS2FeSC2SH2SCFeH3SH2CHNH2NHC6H4C2SHFeH3CSH2CH5CSH2SC2HSCH2C5H2SNCHCHCH5SCNCFeHC4H2CH4CH4FeH2NH4SHCHCSHCHCH2CNC2H4CH3CH7FeHFeCHSC4FeH2CHSHNSFe2HSHCH4CFeS2NHSFeS2FeS2FeSHSCSCHC2HC3HSH2C6H4C2HC3H7C2H2C2HC2H2CNC2HSH5SHCSH4CHCSH2CH2SCHSH5FeHSHFeSFeC2S2HCSFeC7H4NFeHSCSHCSHSH2CFeCHNC4H11FeCFeHSH5FeS2FeSHFeSFeS3CHSH2CHCNH3C2H2SHSNH3CHCH3CH5C9SCH6CH3C2H4NH4C4HCHCHCH2CHCHC2SHFeSCHS2CFeSCSCHFeC6H4C2HFeSFeH2SCH3SHCH2C3NH2CHCH3FeCSFeCSHS3H5SH3CHCH2CH2FeHC2HC3H2CH3C2HCNHCHCHNH4CH2SHC3HCH3CH3S2HFeSFeSH3FeSHFeS2FeS2FeSFeS3FeS2FeCSCFeCS2HFeHSCHC6H4C6H4C6H4C6H4NHNHC2H9NC3FeH3CHCHNCNC4H6CH5SH6CH3CFeH5CH2CHNCHC2H5C2HSH4CHCHCH2CNH8CH12CNHC2HCH2CHSCHCSC2SH2CSFeH2CH3SCSFeCH2NH5C2HC2HCH3CFeSFeCH3FeSHCSFe2HNFeSFeSHCHS2C3H2CHC2H3C8H5NCFeH4C2H2C3SC2SHCSHS2CH7CHSCSNC4H12Fe2S2CH2SH5CH3CNCH2CHS2CHCH2NSH4SH2C3H2CH2CH2CHNH3CH2CHC2HCHC3H3SNFeCSHC2HCH2CHCH2CHNCHC4H2SHCHCSHSH3FeSNHCSNC2HSFeSCHS3FeSFe2SHSH3FeSNSFeS2FeS2FeSFeS3C6H4C6H8C6H4CSFeC12H4C2H3C4SCSH4SCH5CH5CSCH2NHCH4CH3FeHCHFeHCH3C2H2Fe2NCH3CHSHC2HC2H4CFeHCH3SFeH3SH2CH6CHC2HNSCH3CH6CH2CH3SCHSHC2SHS2FeCHCFeC2H3S2H2SCHFeHNH2FeH3CH6CHFeC2H3CSH2C2HC2HSH3FeHSHSFeS2HCHCHCH2SH3CHC2HCHCH3C3HC2HCH3FeNH2CH4SFeCNH2SCH2NH2C3H5CSHCH2CH2SCH4C3NH3SH3CH7SC2HNCHCHSHCHC2H2C2HCHCH6CHCSH2SFeS2FeS2FeSFeS3FeSHFeSFeSFeCS2NC3HFeSCHSFeHC4H2SC2H6CHC6H4C4HCH2SHC6HCH2C6H8CHCH4CH3CHSH3SH5S2HC2H2C2H5CSFeCH2CHSHCHNCH3C2FeHSHFeSCH3SH3CH3CSCNCSH5CHCFeC2NHCHCH2SCH2FeNC2H2SH2Fe2H3SH2C2HCHNCHCHSH2FeH4CH2C2HCHCSH2CH2SH3CFeC2H3CNCNCH7NC2HSH3S2HCHFeH2SCHNC2H2FeHC3HCH3NSHFeCH2CH2C2H2CHFeSHCHSH6SHCH2CHCH4C2HSCH3CH3CH2NHSCH2CFeS2FeS2FeSFeS4FeS2HNH2C5HC6H4C6H4CH2C2NH2C5H8CHCH5FeSH5C3H2NH7CHCNC4H12CHNHCNHC3HSFeHC2FeHCH2SC3SCH2CHCH5CH2CH4C3H4SH3C2HCH3CSHCH2CNH2CH2CHC4SCH3FeCSFe2SHCS2FeS2FeS2FeSFeS3HC2HCHCH2CH9NHSH6SCH5CH5CHCHC2HSHC6HCH2C6H4C2H4C6HCH2NHCNFeSH2CFeH8C2H3SHCH3SH4SHNC4H3C2FeSCHCH3C2NCSH3CNH3CHSH4CSH2CHCFeCH2CHC2SCH2C2HFeH2NH2CH2CHCH3CHC3H3SH5FeSH4FeS2CHFeHFeS3H2CH2C2SCH3SCSH4C4H4CH2C3H3CH4S2H3CHC4H3FeNCHNSH2S2HSFe2SCSCH4NH2C2H2C6H6C2H5CH2CH2C2FeHFeNH2SCHFeCS3FeSFeSFeS2HFeS2H2C2H2C6H4C6H2CHSH2C3H5NHNCHCSHCH4CSHCSHC2HCH4CHSH2CH4NCHCFeSH3C2FeH3FeHSH2C4H4CH2SHC2HCH2CHFeH4C3H4SH2CHCFeSFeS2FeSFeS3H5C3N2HC6H2CSC2FeCHNFeHNH2SCH6N2H5CH5C3H6CH3CHSCH6SH2C2H3SHC3SHCHC3HCHCHCSCHCH4SHC3H2CH2SHCSH4CH2CH2SH2FeH3CH2CHFeH2FeS2FeSFeSFeS3HCHNC5SH3CHC4SH2C2SC3H5C2SFeNHCSC2HSH3CHC2HCH2CHSH3C2SHCH5SHC3HSHNHSFeSHNSC2HFeS2FeCFe2HCNS3H7NCHCH3C4HCFeH3CH4C6H4C3HNH4SCFeH2CH6FeC4HFeNC2H4FeNH4CFeSC2SCSC3FeHSH2CH2SC2FeHC3H2CHCHSH2CH4SH2SCH9C3HCH3CH3CH3C2S3H2FeS2FeSFeSH2CHNC4H3CHSCSCH2CH2SH2C2H3SFeH2SHCH4C2H2CH6FeSCFeS2FeSFeS3H3CHSCSFeSFeS2H5CH2C6H4C2HC2H2C4H7C2FeHC3H2SCHCSCH2CFeC3NHCH3CH3C2SCH2CH2SCHC2HCH2SC2H4NC2HNFeH2C4H2CHCNH4C2H9CH2CS2FeHFeCHCSHS3FeHSC2H2CHCH2C2NFe2HC6H4NFeC3H2CH2SHSH2CH9SH2C2HSH3CSHSHC3SHCH2CH2S2C2H2CFeSHSCFeSFeS2HFeS3CH3C3HCH4SC6H4FeCHCH3NH2CH2NC4H4CH4SHSFeC2HCHCSC2HC2Fe2HFeNH2FeCHCH3SHSC5HCHCH2CH3CH3C2H4SH3SHCHCH5SCH2SH2C2NSCSHNFeCHC2H4FeC2FeH3C2H3SH2SCSH2C2SH2CFeS2FeSFeSFeH2S2CHC3H5CH6C6H3SHNC4H3FeH2CHCHCH3FeH6CH2Fe2H2C2H5C2FeSFeSH2C4HC2H3C2HSCH4CH2S4CHCH4CH2C2H3SHCH3CNH3CHC3SHFeS2FeSCSHFeCSFeS2NFeCS2C2H4CHFeH2NSHC3HC6H2SHCHCH3CH2C3H3C2SHFeHCNCNHSCHCH2SNH2C3SH4CFeH3FeCSCHSNCH3SH6FeCH2CHCHCFeS2FeS2FeSFeS3H3FeC2SHCHFeSH2SCHSCH3C2H3C7H4C6H4C4HC6H4CHCNC3H3CHCH13CNH3CHNCH4CH2NH4S2H3CHCH2CHNC2H2SCH2CH3NHSCSH3CSC2H6CFeHCSH3C4SCFeSNC4H3CH3C3H2SCHFeHSCHSH2SFeS2HC2H3CFeHSHCH2FeSHCH6C2FeHNH2SCHFeNHSCH2CHCHC2FeSH2CH3CFeH2NHCH4C2HCHSCH4CHFeH3C2HCHFeS2FeSFeS3HFeSFeHC6H3C2HC3H3S2FeSNC2H6CH2CH4SH2C2H2SC2H2C2H2C2HFeS3FeS2H3C3H4Fe2C3H2FeHCH2SH2NH2C2HC2FeHSHCHSCHNCH3CHSH3SHSCH2SC2HFeH3CHSCH4C2SNH8NC3H4CH6SC3HNHSH2FeS2FeSFeSFeS4HFeCHC6H5C7H6C6H5S2H2CH4CHCSFeHSCH7CFeSC2H2C2HFeC2NHFeH2CH4CH5CSH2CHSCH2SCSH2CHSH3SH3N2SCHCFeCS2CHSCH2FeCSHC4H2C2HSCH4CNHFeCHCH2CH2CH3SH2CNHSFeSCHCFe2HCFeHCH3SH2Fe2CHCSHCSFeSFeSFeCHCH2NC7HNHCH3NHCH4CS2H3CSNHCH2SCH3SC2H2SH3CH4CH7SHNCH9CSC3H2CHFeCH5CH5CHCHCH2CSHFeC
_chemical_formula_sum              "C1920 S768 H3072 N192 Fe384"
_cell_length_a       133.271
_cell_length_b       66.3228
_cell_length_c       67.2825
_cell_angle_alpha    74.0829
_cell_angle_beta     74.0216
_cell_angle_gamma    74.0947

_space_group_name_H-M_alt    "P 1"
_space_group_IT_number       1

loop_
  _space_group_symop_operation_xyz
  'x, y, z'

loop_
  _atom_site_type_symbol
  _atom_site_label
  _atom_site_symmetry_multiplicity
  _atom_site_fract_x
  _atom_site_fract_y
  _atom_site_fract_z
  _atom_site_occupancy
  C   C1        1.0  0.01163  0.48310  0.18916  1.0000
  S   S1        1.0  0.02687  0.40519  0.26875  1.0000
  C   C2        1.0  0.05119  0.42914  0.23599  1.0000
  H   H1        1.0  0.00374  0.46923  0.31829  1.0000
  N   N1        1.0  0.04409  0.44417  0.22240  1.0000
  H   H2        1.0  0.01723  0.44910  0.19039  1.0000
  C   C3        1.0  0.03957  0.47266  0.30181  1.0000
  H   H3        1.0  0.04584  0.42170  0.20325  1.0000
  C   C4        1.0  0.04985  0.48836  0.26031  1.0000
  C   C5        1.0  0.05390  0.46776  0.27112  1.0000
  C   C6        1.0  0.04866  0.45978  0.29174  1.0000
  H   H4        1.0  0.06096  0.45781  0.26338  1.0000
  H   H5        1.0  0.05173  0.44377  0.29991  1.0000
  C   C7        1.0  0.03588  0.49370  0.29144  1.0000
  C   C8        1.0  0.01034  0.46228  0.19096  1.0000
  C   C9        1.0  0.00021  0.45844  0.19282  1.0000
  H   H6        1.0  0.03069  0.44737  0.24866  1.0000
  C   C10       1.0  0.01641  0.39623  0.26481  1.0000
  H   H7        1.0  0.02969  0.46856  0.22564  1.0000
  H   H8        1.0  0.01739  0.36837  0.29033  1.0000
  H   H9        1.0  0.00331  0.35508  0.28317  1.0000
  H   H10       1.0  0.99601  0.47629  0.28672  1.0000
  C   C11       1.0  0.00544  0.36990  0.27349  1.0000
  C   C12       1.0  0.00026  0.38139  0.25692  1.0000
  H   H11       1.0  0.01365  0.42213  0.23800  1.0000
  H   H12       1.0  0.04674  0.41838  0.24915  1.0000
  C   C13       1.0  0.00081  0.48875  0.27881  1.0000
  H   H13       1.0  0.05696  0.44870  0.19522  1.0000
  H   H14       1.0  0.00848  0.48100  0.26945  1.0000
  C   C14       1.0  0.01339  0.37744  0.27762  1.0000
  S   S2        1.0  0.04301  0.40690  0.30892  1.0000
  C   C15       1.0  0.03537  0.45748  0.23528  1.0000
  Fe  Fe1       1.0  0.02884  0.40001  0.30220  1.0000
  H   H15       1.0  0.03412  0.44294  0.20268  1.0000
  H   H16       1.0  0.05784  0.41876  0.22685  1.0000
  C   C16       1.0  0.99133  0.47552  0.19227  1.0000
  H   H17       1.0  0.03469  0.42134  0.22546  1.0000
  H   H18       1.0  0.01628  0.47336  0.30091  1.0000
  C   C17       1.0  0.03950  0.43198  0.21303  1.0000
  H   H19       1.0  0.05473  0.43794  0.24327  1.0000
  C   C18       1.0  0.01131  0.40764  0.24809  1.0000
  C   C19       1.0  0.05030  0.45817  0.20526  1.0000
  C   C20       1.0  0.00315  0.40040  0.24431  1.0000
  H   H20       1.0  0.04518  0.46970  0.19470  1.0000
  H   H21       1.0  0.03854  0.46736  0.24207  1.0000
  H   H22       1.0  0.99938  0.44242  0.19370  1.0000
  H   H23       1.0  0.05382  0.46777  0.21169  1.0000
  C   C21       1.0  0.00846  0.48162  0.30931  1.0000
  H   H24       1.0  0.99925  0.40932  0.23142  1.0000
  S   S3        1.0  0.02467  0.48740  0.18471  1.0000
  S   S4        1.0  0.01728  0.42428  0.31920  1.0000
  H   H25       1.0  0.99746  0.39249  0.31023  1.0000
  H   H26       1.0  0.14697  0.10452  0.31907  1.0000
  H   H27       1.0  0.15079  0.13925  0.29812  1.0000
  S   S5        1.0  0.99000  0.37186  0.25288  1.0000
  C   C22       1.0  0.99044  0.40013  0.32113  1.0000
  H   H28       1.0  0.98934  0.41487  0.28032  1.0000
  H   H29       1.0  0.15444  0.14275  0.32058  1.0000
  H   H30       1.0  0.01012  0.48839  0.32122  1.0000
  C   C23       1.0  0.09075  0.27172  0.41645  1.0000
  H   H31       1.0  0.05992  0.42467  0.33194  1.0000
  H   H32       1.0  0.05544  0.42225  0.39797  1.0000
  C   C24       1.0  0.10254  0.32435  0.51796  1.0000
  C   C25       1.0  0.11468  0.26434  0.56898  1.0000
  H   H33       1.0  0.14919  0.35001  0.59549  1.0000
  H   H34       1.0  0.09883  0.30515  0.54941  1.0000
  H   H35       1.0  0.15038  0.21997  0.51478  1.0000
  Fe  Fe2       1.0  0.14745  0.18492  0.43043  1.0000
  S   S6        1.0  0.12982  0.19491  0.43165  1.0000
  C   C26       1.0  0.15242  0.31278  0.58422  1.0000
  H   H36       1.0  0.14440  0.31705  0.59461  1.0000
  H   H37       1.0  0.13045  0.28792  0.42846  1.0000
  H   H38       1.0  0.13935  0.28592  0.44495  1.0000
  S   S7        1.0  0.11511  0.29528  0.40231  1.0000
  H   H39       1.0  0.15194  0.28142  0.38027  1.0000
  H   H40       1.0  0.06978  0.28809  0.42704  1.0000
  C   C27       1.0  0.13304  0.26125  0.54980  1.0000
  C   C28       1.0  0.09054  0.30361  0.38855  1.0000
  H   H41       1.0  0.14617  0.41199  0.40667  1.0000
  S   S8        1.0  0.11674  0.32666  0.60193  1.0000
  H   H42       1.0  0.06601  0.40082  0.34859  1.0000
  H   H43       1.0  0.11840  0.28437  0.52748  1.0000
  C   C29       1.0  0.11908  0.26670  0.53119  1.0000
  C   C30       1.0  0.12581  0.22284  0.42389  1.0000
  C   C31       1.0  0.12869  0.23296  0.40266  1.0000
  C   C32       1.0  0.12515  0.25517  0.39620  1.0000
  C   C33       1.0  0.11897  0.26743  0.41103  1.0000
  C   C34       1.0  0.11617  0.25741  0.43235  1.0000
  C   C35       1.0  0.11949  0.23504  0.43872  1.0000
  H   H44       1.0  0.13351  0.22356  0.39116  1.0000
  H   H45       1.0  0.12730  0.26286  0.37969  1.0000
  H   H46       1.0  0.11142  0.26682  0.44388  1.0000
  H   H47       1.0  0.11724  0.22718  0.45516  1.0000
  H   H48       1.0  0.98940  0.38834  0.33655  1.0000
  H   H49       1.0  0.14782  0.34862  0.44617  1.0000
  C   C36       1.0  0.14801  0.25745  0.41994  1.0000
  S   S9        1.0  0.09941  0.30715  0.50582  1.0000
  C   C37       1.0  0.10480  0.33227  0.54959  1.0000
  H   H50       1.0  0.15415  0.09470  0.38804  1.0000
  H   H51       1.0  0.06316  0.39941  0.38727  1.0000
  C   C38       1.0  0.12394  0.23275  0.55491  1.0000
  H   H52       1.0  0.13598  0.25360  0.56468  1.0000
  H   H53       1.0  0.11107  0.26408  0.53188  1.0000
  H   H54       1.0  0.11630  0.22837  0.55599  1.0000
  H   H55       1.0  0.12671  0.22434  0.56986  1.0000
  H   H56       1.0  0.13002  0.22605  0.54194  1.0000
  H   H57       1.0  0.10668  0.26139  0.57019  1.0000
  N   N2        1.0  0.12268  0.25626  0.55122  1.0000
  C   C39       1.0  0.08080  0.27743  0.38962  1.0000
  H   H58       1.0  0.13071  0.39275  0.46633  1.0000
  H   H59       1.0  0.11541  0.37671  0.65335  1.0000
  Fe  Fe3       1.0  0.10032  0.32562  0.62179  1.0000
  H   H60       1.0  0.07579  0.28933  0.37900  1.0000
  H   H61       1.0  0.10851  0.43615  0.63423  1.0000
  H   H62       1.0  0.09800  0.26273  0.40708  1.0000
  H   H63       1.0  0.11702  0.25636  0.58441  1.0000
  C   C40       1.0  0.14520  0.28880  0.39188  1.0000
  H   H64       1.0  0.13929  0.25513  0.53671  1.0000
  H   H65       1.0  0.09812  0.29549  0.37927  1.0000
  C   C41       1.0  0.07460  0.29939  0.41570  1.0000
  S   S10       1.0  0.09196  0.30957  0.45149  1.0000
  H   H66       1.0  0.07495  0.42163  0.36099  1.0000
  C   C42       1.0  0.10180  0.31920  0.53991  1.0000
  H   H67       1.0  0.08783  0.26882  0.37945  1.0000
  Fe  Fe4       1.0  0.14733  0.21256  0.63364  1.0000
  C   C43       1.0  0.11441  0.27162  0.62548  1.0000
  H   H68       1.0  0.11539  0.28270  0.61033  1.0000
  H   H69       1.0  0.08604  0.31555  0.37714  1.0000
  H   H70       1.0  0.12474  0.26046  0.51755  1.0000
  Fe  Fe5       1.0  0.04067  0.38143  0.33874  1.0000
  H   H71       1.0  0.11374  0.28194  0.56700  1.0000
  H   H72       1.0  0.13241  0.27886  0.54687  1.0000
  C   C44       1.0  0.12300  0.25488  0.63058  1.0000
  C   C45       1.0  0.99380  0.42496  0.36560  1.0000
  H   H73       1.0  0.13060  0.25337  0.61949  1.0000
  H   H74       1.0  0.09362  0.27925  0.42610  1.0000
  H   H75       1.0  0.07600  0.26551  0.39973  1.0000
  N   N3        1.0  0.08417  0.28804  0.40260  1.0000
  H   H76       1.0  0.08620  0.25982  0.42756  1.0000
  H   H77       1.0  0.13718  0.30927  0.42406  1.0000
  H   H78       1.0  0.09279  0.31265  0.39779  1.0000
  H   H79       1.0  0.06928  0.31134  0.40576  1.0000
  C   C46       1.0  0.04875  0.44550  0.36266  1.0000
  Fe  Fe6       1.0  0.10659  0.31531  0.42655  1.0000
  H   H80       1.0  0.07680  0.30832  0.42513  1.0000
  C   C47       1.0  0.15418  0.10133  0.32569  1.0000
  C   C48       1.0  0.06784  0.43514  0.35989  1.0000
  H   H81       1.0  0.15160  0.10592  0.34136  1.0000
  Fe  Fe7       1.0  0.09888  0.32204  0.47155  1.0000
  C   C49       1.0  0.10454  0.27382  0.63988  1.0000
  S   S11       1.0  0.11426  0.32440  0.44765  1.0000
  H   H82       1.0  0.04756  0.45513  0.37462  1.0000
  H   H83       1.0  0.14036  0.25303  0.42121  1.0000
  C   C50       1.0  0.10894  0.35607  0.51551  1.0000
  Fe  Fe8       1.0  0.09522  0.37221  0.62492  1.0000
  S   S12       1.0  0.15508  0.15107  0.44400  1.0000
  H   H84       1.0  0.10426  0.32812  0.56650  1.0000
  H   H85       1.0  0.15300  0.26931  0.64085  1.0000
  H   H86       1.0  0.04120  0.44003  0.36525  1.0000
  C   C51       1.0  0.05631  0.41334  0.38557  1.0000
  S   S13       1.0  0.02746  0.37225  0.33014  1.0000
  Fe  Fe9       1.0  0.10564  0.35787  0.43613  1.0000
  H   H87       1.0  0.12889  0.41726  0.47456  1.0000
  S   S14       1.0  0.11312  0.38656  0.42711  1.0000
  C   C52       1.0  0.05900  0.41460  0.34829  1.0000
  S   S15       1.0  0.06802  0.35420  0.43408  1.0000
  H   H88       1.0  0.00838  0.43302  0.36573  1.0000
  S   S16       1.0  0.09062  0.35626  0.46127  1.0000
  S   S17       1.0  0.09931  0.34920  0.41264  1.0000
  H   H89       1.0  0.12632  0.39658  0.52221  1.0000
  N   N4        1.0  0.14710  0.28096  0.41359  1.0000
  C   C53       1.0  0.07134  0.34491  0.64823  1.0000
  S   S18       1.0  0.11125  0.37750  0.60491  1.0000
  S   S19       1.0  0.02965  0.40416  0.35871  1.0000
  H   H90       1.0  0.15469  0.29496  0.58654  1.0000
  Fe  Fe10      1.0  0.01669  0.39739  0.34768  1.0000
  S   S20       1.0  0.99976  0.39787  0.36543  1.0000
  S   S21       1.0  0.13184  0.33522  0.63930  1.0000
  H   H91       1.0  0.11143  0.37055  0.50600  1.0000
  H   H92       1.0  0.13877  0.35845  0.48672  1.0000
  H   H93       1.0  0.07794  0.33481  0.63868  1.0000
  C   C54       1.0  0.13717  0.36600  0.50047  1.0000
  C   C55       1.0  0.00006  0.43903  0.36499  1.0000
  C   C56       1.0  0.05139  0.36225  0.38920  1.0000
  H   H94       1.0  0.10663  0.34707  0.48890  1.0000
  C   C57       1.0  0.05938  0.35946  0.37110  1.0000
  N   N5        1.0  0.05798  0.42714  0.36410  1.0000
  C   C58       1.0  0.06491  0.35630  0.40964  1.0000
  C   C59       1.0  0.14776  0.39225  0.48100  1.0000
  C   C60       1.0  0.07014  0.35529  0.37229  1.0000
  C   C61       1.0  0.07290  0.35398  0.39142  1.0000
  H   H95       1.0  0.08119  0.35115  0.39208  1.0000
  C   C62       1.0  0.15206  0.38266  0.63406  1.0000
  C   C63       1.0  0.14332  0.36303  0.43778  1.0000
  C   C64       1.0  0.13251  0.36453  0.43804  1.0000
  C   C65       1.0  0.12668  0.38324  0.42707  1.0000
  C   C66       1.0  0.13166  0.40033  0.41605  1.0000
  C   C67       1.0  0.14241  0.39871  0.41550  1.0000
  H   H96       1.0  0.06529  0.35322  0.63844  1.0000
  H   H97       1.0  0.12866  0.35142  0.44689  1.0000
  H   H98       1.0  0.12719  0.41483  0.40766  1.0000
  C   C68       1.0  0.14771  0.34759  0.64783  1.0000
  C   C69       1.0  0.14329  0.38962  0.62433  1.0000
  C   C70       1.0  0.13686  0.37529  0.62603  1.0000
  H   H99       1.0  0.13784  0.28481  0.39075  1.0000
  H   H100      1.0  0.14176  0.40574  0.61484  1.0000
  H   H101      1.0  0.13041  0.38034  0.61775  1.0000
  H   H102      1.0  0.14024  0.39084  0.52266  1.0000
  S   S22       1.0  0.11280  0.36676  0.54889  1.0000
  N   N6        1.0  0.13707  0.38920  0.49356  1.0000
  C   C71       1.0  0.13911  0.35422  0.63776  1.0000
  C   C72       1.0  0.14434  0.27105  0.64820  1.0000
  C   C73       1.0  0.15404  0.20324  0.51973  1.0000
  H   H103      1.0  0.12085  0.39816  0.48955  1.0000
  Fe  Fe11      1.0  0.03119  0.42886  0.32843  1.0000
  H   H104      1.0  0.04897  0.40688  0.38920  1.0000
  S   S23       1.0  0.09213  0.35587  0.60272  1.0000
  C   C74       1.0  0.14827  0.38015  0.42632  1.0000
  H   H105      1.0  0.15401  0.38462  0.49048  1.0000
  H   H106      1.0  0.04793  0.36235  0.42247  1.0000
  H   H107      1.0  0.06733  0.44473  0.37151  1.0000
  H   H108      1.0  0.07635  0.35330  0.35827  1.0000
  H   H109      1.0  0.14336  0.35742  0.50990  1.0000
  S   S24       1.0  0.05627  0.36070  0.34687  1.0000
  H   H110      1.0  0.15344  0.31620  0.62233  1.0000
  H   H111      1.0  0.00046  0.47170  0.36336  1.0000
  C   C75       1.0  0.13436  0.39865  0.51237  1.0000
  S   S25       1.0  0.14991  0.18349  0.62045  1.0000
  C   C76       1.0  0.12904  0.39981  0.48045  1.0000
  H   H112      1.0  0.12938  0.36305  0.51069  1.0000
  H   H113      1.0  0.14798  0.40956  0.47521  1.0000
  S   S26       1.0  0.03248  0.46226  0.32690  1.0000
  S   S27       1.0  0.09398  0.29559  0.63440  1.0000
  Fe  Fe12      1.0  0.10875  0.35825  0.58450  1.0000
  C   C77       1.0  0.10846  0.35069  0.53735  1.0000
  H   H114      1.0  0.13423  0.41614  0.50781  1.0000
  Fe  Fe13      1.0  0.08506  0.34422  0.43879  1.0000
  S   S28       1.0  0.15122  0.21277  0.55795  1.0000
  H   H115      1.0  0.04981  0.45648  0.34676  1.0000
  C   C78       1.0  0.10608  0.34287  0.50581  1.0000
  Fe  Fe14      1.0  0.11772  0.34548  0.62407  1.0000
  C   C79       1.0  0.05416  0.36049  0.40844  1.0000
  H   H116      1.0  0.04307  0.36531  0.38851  1.0000
  H   H117      1.0  0.06935  0.44556  0.34376  1.0000
  S   S29       1.0  0.10193  0.34163  0.64564  1.0000
  H   H118      1.0  0.14156  0.25862  0.64415  1.0000
  S   S30       1.0  0.08302  0.39954  0.63745  1.0000
  H   H119      1.0  0.15029  0.25072  0.43555  1.0000
  H   H120      1.0  0.10196  0.41742  0.63081  1.0000
  C   C80       1.0  0.15418  0.36169  0.64589  1.0000
  H   H121      1.0  0.14417  0.30656  0.38680  1.0000
  C   C81       1.0  0.12177  0.24054  0.65025  1.0000
  C   C82       1.0  0.99557  0.46094  0.36367  1.0000
  S   S31       1.0  0.15367  0.19979  0.44930  1.0000
  H   H122      1.0  0.99254  0.41407  0.32399  1.0000
  H   H123      1.0  0.15009  0.38502  0.46687  1.0000
  H   H124      1.0  0.05184  0.40777  0.35133  1.0000
  C   C83       1.0  0.13814  0.29150  0.42843  1.0000
  H   H125      1.0  0.11625  0.41139  0.62701  1.0000
  H   H126      1.0  0.07463  0.35750  0.65076  1.0000
  H   H127      1.0  0.14005  0.28702  0.64063  1.0000
  H   H128      1.0  0.15161  0.31949  0.56750  1.0000
  S   S32       1.0  0.15215  0.23390  0.60226  1.0000
  C   C84       1.0  0.10868  0.41874  0.63691  1.0000
  H   H129      1.0  0.15417  0.24907  0.40823  1.0000
  H   H130      1.0  0.06933  0.30425  0.65515  1.0000
  H   H131      1.0  0.05653  0.32220  0.65446  1.0000
  C   C85       1.0  0.04738  0.47506  0.84084  1.0000
  C   C86       1.0  0.13074  0.27076  0.68045  1.0000
  H   H132      1.0  0.06144  0.48828  0.93343  1.0000
  H   H133      1.0  0.01193  0.45810  0.81669  1.0000
  H   H134      1.0  0.99394  0.44990  0.82797  1.0000
  S   S33       1.0  0.99593  0.41794  0.90739  1.0000
  C   C87       1.0  0.99984  0.38873  0.80672  1.0000
  H   H135      1.0  0.05567  0.48632  0.89305  1.0000
  C   C88       1.0  0.98986  0.47932  0.91435  1.0000
  C   C89       1.0  0.99063  0.46660  0.83040  1.0000
  H   H136      1.0  0.00101  0.46502  0.79031  1.0000
  H   H137      1.0  0.09560  0.26063  0.67037  1.0000
  C   C90       1.0  0.14609  0.28541  0.67609  1.0000
  H   H138      1.0  0.14520  0.28344  0.69341  1.0000
  H   H139      1.0  0.07814  0.33341  0.68480  1.0000
  H   H140      1.0  0.09741  0.43582  0.67080  1.0000
  H   H141      1.0  0.01413  0.47598  0.69264  1.0000
  C   C91       1.0  0.10786  0.38523  0.66236  1.0000
  N   N7        1.0  0.06670  0.33173  0.66850  1.0000
  H   H142      1.0  0.10117  0.38332  0.65668  1.0000
  H   H143      1.0  0.10699  0.37676  0.67929  1.0000
  Fe  Fe15      1.0  0.04585  0.41626  0.74557  1.0000
  S   S34       1.0  0.05069  0.43816  0.75990  1.0000
  S   S35       1.0  0.05806  0.38853  0.73350  1.0000
  Fe  Fe16      1.0  0.02223  0.43707  0.75630  1.0000
  S   S36       1.0  0.02518  0.46106  0.77049  1.0000
  S   S37       1.0  0.00477  0.43982  0.75875  1.0000
  Fe  Fe17      1.0  0.03906  0.46392  0.74324  1.0000
  N   N8        1.0  0.14233  0.26858  0.67138  1.0000
  Fe  Fe18      1.0  0.03631  0.43336  0.78598  1.0000
  S   S38       1.0  0.03325  0.43035  0.82099  1.0000
  S   S39       1.0  0.03512  0.44257  0.72697  1.0000
  S   S40       1.0  0.03248  0.40895  0.77361  1.0000
  C   C92       1.0  0.99918  0.42330  0.78217  1.0000
  C   C93       1.0  0.00726  0.44964  0.89780  1.0000
  C   C94       1.0  0.00817  0.47461  0.81938  1.0000
  C   C95       1.0  0.10321  0.25906  0.65922  1.0000
  C   C96       1.0  0.00609  0.47302  0.70147  1.0000
  C   C97       1.0  0.09765  0.41862  0.67201  1.0000
  C   C98       1.0  0.05243  0.46777  0.82213  1.0000
  C   C99       1.0  0.04796  0.45447  0.81558  1.0000
  C   C100      1.0  0.03866  0.44790  0.82815  1.0000
  C   C101      1.0  0.03366  0.45512  0.84689  1.0000
  C   C102      1.0  0.03794  0.46893  0.85307  1.0000
  H   H144      1.0  0.00830  0.47443  0.83592  1.0000
  H   H145      1.0  0.05189  0.44876  0.80118  1.0000
  H   H146      1.0  0.02649  0.45004  0.85666  1.0000
  H   H147      1.0  0.12466  0.40208  0.65798  1.0000
  H   H148      1.0  0.07994  0.48374  0.91160  1.0000
  C   C103      1.0  0.00443  0.40199  0.78827  1.0000
  H   H149      1.0  0.00224  0.46963  0.69037  1.0000
  H   H150      1.0  0.09064  0.41817  0.66630  1.0000
  C   C104      1.0  0.06224  0.41083  0.69194  1.0000
  C   C105      1.0  0.06506  0.39215  0.70687  1.0000
  C   C106      1.0  0.07354  0.37568  0.70045  1.0000
  H   H151      1.0  0.05575  0.42365  0.69675  1.0000
  H   H152      1.0  0.07580  0.36129  0.71202  1.0000
  C   C107      1.0  0.14812  0.24717  0.68078  1.0000
  C   C108      1.0  0.05780  0.34559  0.68050  1.0000
  C   C109      1.0  0.99722  0.44416  0.90588  1.0000
  C   C110      1.0  0.06778  0.41285  0.67067  1.0000
  H   H153      1.0  0.07182  0.31101  0.69630  1.0000
  H   H154      1.0  0.01185  0.39549  0.77836  1.0000
  C   C111      1.0  0.07911  0.37778  0.67923  1.0000
  H   H155      1.0  0.00622  0.48129  0.73834  1.0000
  H   H156      1.0  0.01409  0.43795  0.89194  1.0000
  C   C112      1.0  0.00854  0.47009  0.89764  1.0000
  C   C113      1.0  0.99022  0.39694  0.81964  1.0000
  H   H157      1.0  0.12609  0.28642  0.67308  1.0000
  C   C114      1.0  0.07501  0.32134  0.68103  1.0000
  H   H158      1.0  0.01631  0.47413  0.89156  1.0000
  H   H159      1.0  0.08569  0.36513  0.67456  1.0000
  H   H160      1.0  0.03408  0.47439  0.86763  1.0000
  C   C115      1.0  0.99986  0.48490  0.90622  1.0000
  H   H161      1.0  0.05974  0.47249  0.81266  1.0000
  H   H162      1.0  0.06053  0.35859  0.68374  1.0000
  H   H163      1.0  0.11086  0.23155  0.67972  1.0000
  N   N9        1.0  0.10778  0.40816  0.65956  1.0000
  N   N10       1.0  0.01445  0.38846  0.85906  1.0000
  C   C116      1.0  0.02106  0.37844  0.84126  1.0000
  C   C117      1.0  0.02146  0.39185  0.87095  1.0000
  C   C118      1.0  0.00738  0.37429  0.87332  1.0000
  C   C119      1.0  0.00788  0.40932  0.85065  1.0000
  H   H164      1.0  0.01599  0.37582  0.83194  1.0000
  H   H165      1.0  0.02612  0.36262  0.84696  1.0000
  H   H166      1.0  0.02649  0.38878  0.83018  1.0000
  H   H167      1.0  0.02660  0.37646  0.87737  1.0000
  H   H168      1.0  0.02680  0.40272  0.86075  1.0000
  H   H169      1.0  0.01670  0.39926  0.88458  1.0000
  H   H170      1.0  0.00221  0.38153  0.88679  1.0000
  H   H171      1.0  0.01204  0.35842  0.88009  1.0000
  H   H172      1.0  0.00198  0.37137  0.86487  1.0000
  H   H173      1.0  0.00218  0.40721  0.84240  1.0000
  H   H174      1.0  0.01294  0.42006  0.83917  1.0000
  H   H175      1.0  0.00315  0.41775  0.86355  1.0000
  H   H176      1.0  0.00377  0.37206  0.81102  1.0000
  C   C120      1.0  0.98897  0.48675  0.72261  1.0000
  H   H177      1.0  0.98918  0.48589  0.79054  1.0000
  H   H178      1.0  0.14549  0.23409  0.67749  1.0000
  H   H179      1.0  0.14959  0.33137  0.65684  1.0000
  S   S41       1.0  0.13264  0.22115  0.65842  1.0000
  N   N11       1.0  0.99718  0.48153  0.81569  1.0000
  H   H180      1.0  0.12888  0.26963  0.69783  1.0000
  H   H181      1.0  0.99017  0.46640  0.84722  1.0000
  H   H182      1.0  0.11640  0.40232  0.68400  1.0000
  C   C121      1.0  0.11185  0.24263  0.66449  1.0000
  C   C122      1.0  0.07615  0.39626  0.66421  1.0000
  H   H183      1.0  0.05134  0.35351  0.67159  1.0000
  H   H184      1.0  0.09642  0.41056  0.68909  1.0000
  C   C123      1.0  0.99739  0.48130  0.79367  1.0000
  H   H185      1.0  0.05419  0.33627  0.69606  1.0000
  H   H186      1.0  0.12770  0.25788  0.67783  1.0000
  H   H187      1.0  0.01339  0.48538  0.80854  1.0000
  H   H188      1.0  0.06888  0.48328  0.87698  1.0000
  H   H189      1.0  0.14144  0.30165  0.67023  1.0000
  H   H190      1.0  0.06657  0.46860  0.90407  1.0000
  H   H191      1.0  0.11717  0.42711  0.66484  1.0000
  N   N12       1.0  0.99948  0.49148  0.71071  1.0000
  H   H192      1.0  0.08191  0.31099  0.67227  1.0000
  C   C124      1.0  0.11690  0.41002  0.66692  1.0000
  S   S42       1.0  0.05264  0.49248  0.84856  1.0000
  H   H193      1.0  0.14674  0.24468  0.69828  1.0000
  H   H194      1.0  0.00735  0.45817  0.71400  1.0000
  C   C125      1.0  0.06272  0.31500  0.66412  1.0000
  H   H195      1.0  0.05912  0.30472  0.67902  1.0000
  C   C126      1.0  0.06421  0.48429  0.89332  1.0000
  H   H196      1.0  0.06551  0.42731  0.65918  1.0000
  H   H197      1.0  0.98981  0.47244  0.73590  1.0000
  C   C127      1.0  0.98942  0.43144  0.79483  1.0000
  H   H198      1.0  0.15467  0.28515  0.66851  1.0000
  H   H199      1.0  0.00213  0.49259  0.78203  1.0000
  C   C128      1.0  0.00493  0.49539  0.72518  1.0000
  N   N13       1.0  0.14762  0.69389  0.09050  1.0000
  H   H200      1.0  0.09666  0.72246  0.07950  1.0000
  H   H201      1.0  0.14366  0.92588  0.24645  1.0000
  Fe  Fe19      1.0  0.11347  0.63585  0.11587  1.0000
  H   H202      1.0  0.02713  0.64541  0.16558  1.0000
  S   S43       1.0  0.12792  0.60965  0.11981  1.0000
  C   C129      1.0  0.14097  0.64321  0.14406  1.0000
  S   S44       1.0  0.07635  0.63757  0.15537  1.0000
  Fe  Fe20      1.0  0.10053  0.66210  0.08321  1.0000
  S   S45       1.0  0.09986  0.63047  0.10592  1.0000
  H   H203      1.0  0.02107  0.61238  0.16887  1.0000
  Fe  Fe21      1.0  0.04052  0.55338  0.17668  1.0000
  S   S46       1.0  0.04587  0.51747  0.18260  1.0000
  S   S47       1.0  0.04904  0.57530  0.14853  1.0000
  Fe  Fe22      1.0  0.02254  0.55132  0.21547  1.0000
  S   S48       1.0  0.02655  0.51550  0.22545  1.0000
  S   S49       1.0  0.00930  0.57147  0.23520  1.0000
  Fe  Fe23      1.0  0.04351  0.51913  0.21631  1.0000
  H   H204      1.0  0.15065  0.84043  0.99601  1.0000
  Fe  Fe24      1.0  0.02848  0.51599  0.19119  1.0000
  S   S50       1.0  0.03941  0.55500  0.21008  1.0000
  S   S51       1.0  0.02320  0.55194  0.18157  1.0000
  C   C130      1.0  0.04085  0.50140  0.27046  1.0000
  H   H205      1.0  0.13773  0.66332  0.02580  1.0000
  C   C131      1.0  0.99624  0.54708  0.23267  1.0000
  H   H206      1.0  0.11404  0.75730  0.04080  1.0000
  H   H207      1.0  0.03782  0.51748  0.26222  1.0000
  H   H208      1.0  0.12520  0.64202  0.14306  1.0000
  H   H209      1.0  0.14112  0.87498  0.23720  1.0000
  H   H210      1.0  0.13500  0.90749  0.25224  1.0000
  H   H211      1.0  0.13856  0.63512  0.03692  1.0000
  C   C132      1.0  0.99755  0.56149  0.24304  1.0000
  H   H212      1.0  0.14591  0.86089  0.03500  1.0000
  H   H213      1.0  0.13816  0.65569  0.15304  1.0000
  H   H214      1.0  0.00229  0.54260  0.21923  1.0000
  C   C133      1.0  0.12511  0.66728  0.99940  1.0000
  C   C134      1.0  0.06916  0.61978  0.15301  1.0000
  C   C135      1.0  0.06367  0.60794  0.17151  1.0000
  C   C136      1.0  0.05778  0.59376  0.17037  1.0000
  C   C137      1.0  0.05706  0.59169  0.15069  1.0000
  C   C138      1.0  0.06260  0.60344  0.13220  1.0000
  C   C139      1.0  0.06870  0.61727  0.13332  1.0000
  H   H215      1.0  0.06404  0.60966  0.18681  1.0000
  H   H216      1.0  0.05375  0.58452  0.18470  1.0000
  H   H217      1.0  0.06211  0.60194  0.11689  1.0000
  H   H218      1.0  0.07286  0.62632  0.11894  1.0000
  C   C140      1.0  0.08214  0.63213  0.04551  1.0000
  C   C141      1.0  0.08757  0.64278  0.05327  1.0000
  H   H219      1.0  0.07684  0.62229  0.05646  1.0000
  H   H220      1.0  0.02537  0.59842  0.22374  1.0000
  C   C142      1.0  0.13717  0.61909  0.12709  1.0000
  C   C143      1.0  0.14814  0.61055  0.12134  1.0000
  N   N14       1.0  0.04987  0.61348  0.99534  1.0000
  H   H221      1.0  0.00938  0.64023  0.18843  1.0000
  C   C144      1.0  0.13362  0.63550  0.13836  1.0000
  H   H222      1.0  0.01699  0.50764  0.27412  1.0000
  C   C145      1.0  0.03838  0.61876  0.00526  1.0000
  H   H223      1.0  0.11802  0.63317  0.02599  1.0000
  S   S52       1.0  0.07689  0.62058  0.01395  1.0000
  C   C146      1.0  0.08364  0.63404  0.02364  1.0000
  H   H224      1.0  0.15294  0.67290  0.17267  1.0000
  H   H225      1.0  0.03473  0.60450  0.00945  1.0000
  N   N15       1.0  0.15087  0.89704  0.23463  1.0000
  N   N16       1.0  0.02462  0.62132  0.19424  1.0000
  C   C147      1.0  0.02458  0.60502  0.18309  1.0000
  C   C148      1.0  0.03074  0.63705  0.17955  1.0000
  C   C149      1.0  0.02966  0.61075  0.21256  1.0000
  H   H226      1.0  0.00875  0.62069  0.21299  1.0000
  H   H227      1.0  0.01985  0.59316  0.19359  1.0000
  C   C150      1.0  0.09049  0.64682  0.00958  1.0000
  C   C151      1.0  0.98967  0.56713  0.26049  1.0000
  H   H228      1.0  0.02966  0.62251  0.22159  1.0000
  H   H229      1.0  0.00501  0.52767  0.27194  1.0000
  N   N17       1.0  0.10056  0.57507  0.15501  1.0000
  C   C152      1.0  0.11074  0.57301  0.13906  1.0000
  C   C153      1.0  0.10104  0.55592  0.17254  1.0000
  C   C154      1.0  0.09164  0.57690  0.14509  1.0000
  C   C155      1.0  0.09883  0.59444  0.16340  1.0000
  H   H230      1.0  0.11061  0.58702  0.12542  1.0000
  H   H231      1.0  0.11245  0.55838  0.13261  1.0000
  H   H232      1.0  0.11763  0.57221  0.14580  1.0000
  H   H233      1.0  0.09350  0.55703  0.18491  1.0000
  H   H234      1.0  0.10228  0.54100  0.16680  1.0000
  H   H235      1.0  0.10773  0.55401  0.18029  1.0000
  H   H236      1.0  0.08386  0.57805  0.15678  1.0000
  H   H237      1.0  0.09277  0.56282  0.13813  1.0000
  H   H238      1.0  0.09085  0.59153  0.13217  1.0000
  H   H239      1.0  0.09115  0.59671  0.17530  1.0000
  H   H240      1.0  0.09843  0.60918  0.15062  1.0000
  H   H241      1.0  0.10542  0.59373  0.17091  1.0000
  N   N18       1.0  0.13161  0.64720  0.00951  1.0000
  C   C156      1.0  0.09606  0.72532  0.06274  1.0000
  C   C157      1.0  0.05437  0.63280  0.99002  1.0000
  H   H242      1.0  0.12422  0.62699  0.00046  1.0000
  H   H243      1.0  0.15316  0.66901  0.07268  1.0000
  C   C158      1.0  0.10699  0.75166  0.05198  1.0000
  C   C159      1.0  0.01349  0.63231  0.20179  1.0000
  H   H244      1.0  0.15311  0.72342  0.07793  1.0000
  H   H245      1.0  0.03109  0.64946  0.18745  1.0000
  C   C160      1.0  0.09438  0.65563  0.03914  1.0000
  H   H246      1.0  0.14889  0.87736  0.26615  1.0000
  Fe  Fe25      1.0  0.08969  0.65013  0.12954  1.0000
  C   C161      1.0  0.13737  0.70244  0.08357  1.0000
  C   C162      1.0  0.14194  0.64191  0.99471  1.0000
  H   H247      1.0  0.08639  0.64118  0.07014  1.0000
  C   C163      1.0  0.13353  0.65000  0.02912  1.0000
  S   S53       1.0  0.10345  0.65367  0.14094  1.0000
  H   H248      1.0  0.11747  0.67246  0.01040  1.0000
  H   H249      1.0  0.03281  0.59604  0.17761  1.0000
  H   H250      1.0  0.13115  0.69350  0.09374  1.0000
  H   H251      1.0  0.03811  0.60250  0.20745  1.0000
  H   H252      1.0  0.01317  0.64479  0.21027  1.0000
  H   H253      1.0  0.03913  0.62907  0.17336  1.0000
  C   C164      1.0  0.12586  0.62960  0.01481  1.0000
  H   H254      1.0  0.15245  0.77278  0.01593  1.0000
  H   H255      1.0  0.99343  0.51614  0.31833  1.0000
  H   H256      1.0  0.13817  0.92333  0.22589  1.0000
  N   N19       1.0  0.00269  0.49846  0.29442  1.0000
  H   H257      1.0  0.09158  0.64864  0.99271  1.0000
  C   C165      1.0  0.15318  0.78686  0.06054  1.0000
  H   H258      1.0  0.99640  0.50106  0.26742  1.0000
  C   C166      1.0  0.09578  0.65768  0.01730  1.0000
  S   S54       1.0  0.10129  0.66938  0.04812  1.0000
  N   N20       1.0  0.10568  0.73180  0.04796  1.0000
  H   H259      1.0  0.12588  0.65365  0.04078  1.0000
  H   H260      1.0  0.09740  0.74838  0.02284  1.0000
  S   S55       1.0  0.13653  0.74726  0.03908  1.0000
  S   S56       1.0  0.14339  0.80324  0.12842  1.0000
  H   H261      1.0  0.08871  0.73787  0.06064  1.0000
  H   H262      1.0  0.00354  0.51612  0.18823  1.0000
  Fe  Fe26      1.0  0.14630  0.76827  0.14533  1.0000
  S   S57       1.0  0.13585  0.74344  0.15977  1.0000
  H   H263      1.0  0.12258  0.71896  0.04025  1.0000
  H   H264      1.0  0.09985  0.76489  0.05027  1.0000
  H   H265      1.0  0.11635  0.71146  0.06763  1.0000
  C   C167      1.0  0.12853  0.73551  0.14578  1.0000
  C   C168      1.0  0.12567  0.74859  0.12714  1.0000
  C   C169      1.0  0.11942  0.74228  0.11705  1.0000
  C   C170      1.0  0.11620  0.72256  0.12504  1.0000
  C   C171      1.0  0.11927  0.70919  0.14340  1.0000
  C   C172      1.0  0.12529  0.71578  0.15384  1.0000
  H   H266      1.0  0.12799  0.76391  0.12086  1.0000
  H   H267      1.0  0.11698  0.75287  0.10302  1.0000
  H   H268      1.0  0.11681  0.69402  0.14985  1.0000
  H   H269      1.0  0.12735  0.70558  0.16835  1.0000
  H   H270      1.0  0.05239  0.58152  0.01475  1.0000
  Fe  Fe27      1.0  0.10416  0.68342  0.11503  1.0000
  C   C173      1.0  0.14284  0.76306  0.04685  1.0000
  H   H271      1.0  0.13981  0.68712  0.12332  1.0000
  S   S58       1.0  0.14115  0.71534  0.99719  1.0000
  C   C174      1.0  0.14553  0.77624  0.07499  1.0000
  C   C175      1.0  0.14033  0.76451  0.06811  1.0000
  S   S59       1.0  0.08930  0.68187  0.10590  1.0000
  H   H272      1.0  0.14352  0.77727  0.09144  1.0000
  H   H273      1.0  0.13436  0.75657  0.07934  1.0000
  H   H274      1.0  0.10091  0.66775  0.00626  1.0000
  H   H275      1.0  0.11442  0.69928  0.04852  1.0000
  H   H276      1.0  0.15148  0.83331  0.03370  1.0000
  S   S60       1.0  0.11522  0.66544  0.09088  1.0000
  C   C176      1.0  0.15046  0.77376  0.03235  1.0000
  H   H277      1.0  0.14655  0.65471  0.99061  1.0000
  H   H278      1.0  0.10824  0.74903  0.06832  1.0000
  H   H279      1.0  0.01063  0.52259  0.29457  1.0000
  H   H280      1.0  0.12939  0.68070  0.99422  1.0000
  Fe  Fe28      1.0  0.14055  0.74672  0.00444  1.0000
  H   H281      1.0  0.09488  0.71025  0.06032  1.0000
  H   H282      1.0  0.10357  0.72073  0.02247  1.0000
  H   H283      1.0  0.05355  0.63894  0.00435  1.0000
  C   C177      1.0  0.15193  0.63500  0.13795  1.0000
  C   C178      1.0  0.11519  0.71457  0.05122  1.0000
  C   C179      1.0  0.10451  0.73555  0.02595  1.0000
  H   H284      1.0  0.14545  0.66141  0.09888  1.0000
  S   S61       1.0  0.10825  0.71572  0.11155  1.0000
  H   H285      1.0  0.11164  0.74043  0.01438  1.0000
  C   C180      1.0  0.14598  0.69582  0.11258  1.0000
  C   C181      1.0  0.15224  0.85655  0.99423  1.0000
  H   H286      1.0  0.15093  0.59789  0.11256  1.0000
  H   H287      1.0  0.13058  0.61418  0.02247  1.0000
  C   C182      1.0  0.14150  0.91419  0.24005  1.0000
  H   H288      1.0  0.15345  0.68895  0.11856  1.0000
  H   H289      1.0  0.99069  0.57818  0.26863  1.0000
  H   H290      1.0  0.14511  0.89011  0.21079  1.0000
  C   C183      1.0  0.00264  0.50002  0.18973  1.0000
  H   H291      1.0  0.03389  0.63163  0.99439  1.0000
  C   C184      1.0  0.14774  0.88204  0.22592  1.0000
  C   C185      1.0  0.99234  0.50866  0.30634  1.0000
  H   H292      1.0  0.05486  0.60170  0.02505  1.0000
  H   H293      1.0  0.14704  0.62682  0.00176  1.0000
  H   H294      1.0  0.02906  0.50386  0.29948  1.0000
  S   S62       1.0  0.05579  0.49721  0.23384  1.0000
  H   H295      1.0  0.06425  0.59212  0.00333  1.0000
  H   H296      1.0  0.03711  0.62447  0.02005  1.0000
  H   H297      1.0  0.14613  0.69968  0.17530  1.0000
  H   H298      1.0  0.15454  0.86842  0.22257  1.0000
  C   C186      1.0  0.15147  0.67105  0.08922  1.0000
  C   C187      1.0  0.15350  0.84924  0.03073  1.0000
  H   H299      1.0  0.14438  0.86782  0.99748  1.0000
  S   S63       1.0  0.15480  0.83785  0.15574  1.0000
  H   H300      1.0  0.14329  0.71289  0.11404  1.0000
  Fe  Fe29      1.0  0.15509  0.80738  0.14540  1.0000
  C   C188      1.0  0.00912  0.51479  0.28330  1.0000
  H   H301      1.0  0.13829  0.70149  0.06690  1.0000
  H   H302      1.0  0.15159  0.68117  0.19667  1.0000
  C   C189      1.0  0.15497  0.88518  0.25385  1.0000
  C   C190      1.0  0.05554  0.59641  0.01028  1.0000
  H   H303      1.0  0.13419  0.71959  0.08449  1.0000
  C   C191      1.0  0.15303  0.68655  0.17915  1.0000
  H   H304      1.0  0.15372  0.88965  0.00817  1.0000
  C   C192      1.0  0.99255  0.49627  0.19098  1.0000
  C   C193      1.0  0.12967  0.53211  0.95225  1.0000
  S   S64       1.0  0.11069  0.55914  0.94688  1.0000
  H   H305      1.0  0.00597  0.53666  0.74860  1.0000
  H   H306      1.0  0.14138  0.57889  0.93323  1.0000
  H   H307      1.0  0.00795  0.58802  0.78783  1.0000
  H   H308      1.0  0.06305  0.62913  0.98288  1.0000
  H   H309      1.0  0.12787  0.52286  0.94320  1.0000
  H   H310      1.0  0.12228  0.59297  0.93063  1.0000
  H   H311      1.0  0.00248  0.55250  0.85223  1.0000
  S   S65       1.0  0.08242  0.59292  0.96643  1.0000
  Fe  Fe30      1.0  0.03304  0.54735  0.89237  1.0000
  S   S66       1.0  0.03267  0.51207  0.89940  1.0000
  S   S67       1.0  0.04167  0.55311  0.91513  1.0000
  Fe  Fe31      1.0  0.02318  0.55617  0.85342  1.0000
  S   S68       1.0  0.02281  0.52184  0.85746  1.0000
  S   S69       1.0  0.01787  0.57650  0.82371  1.0000
  Fe  Fe32      1.0  0.01638  0.52250  0.89166  1.0000
  H   H312      1.0  0.12305  0.66527  0.98522  1.0000
  Fe  Fe33      1.0  0.03895  0.51490  0.86455  1.0000
  H   H313      1.0  0.13017  0.70389  0.94075  1.0000
  S   S70       1.0  0.01597  0.55762  0.88762  1.0000
  S   S71       1.0  0.04007  0.54923  0.85752  1.0000
  S   S72       1.0  0.15416  0.52912  0.97797  1.0000
  Fe  Fe34      1.0  0.09768  0.63937  0.93939  1.0000
  H   H314      1.0  0.14083  0.63974  0.97968  1.0000
  S   S73       1.0  0.07996  0.64566  0.95287  1.0000
  H   H315      1.0  0.11895  0.57643  0.97319  1.0000
  C   C194      1.0  0.05329  0.60755  0.90414  1.0000
  C   C195      1.0  0.01186  0.54459  0.71486  1.0000
  H   H316      1.0  0.14580  0.66832  0.94307  1.0000
  C   C196      1.0  0.03081  0.51546  0.72269  1.0000
  C   C197      1.0  0.02203  0.51884  0.73948  1.0000
  C   C198      1.0  0.01264  0.53380  0.73562  1.0000
  Fe  Fe35      1.0  0.08429  0.61884  0.97991  1.0000
  C   C199      1.0  0.00635  0.57074  0.82036  1.0000
  C   C200      1.0  0.12500  0.60620  0.91783  1.0000
  C   C201      1.0  0.05991  0.60202  0.91879  1.0000
  H   H317      1.0  0.03731  0.54667  0.81037  1.0000
  C   C202      1.0  0.04792  0.59268  0.90227  1.0000
  C   C203      1.0  0.04887  0.57217  0.91545  1.0000
  C   C204      1.0  0.05550  0.56663  0.93009  1.0000
  C   C205      1.0  0.06111  0.58128  0.93154  1.0000
  H   H318      1.0  0.04281  0.59735  0.89103  1.0000
  H   H319      1.0  0.05626  0.55093  0.94053  1.0000
  H   H320      1.0  0.06620  0.57662  0.94280  1.0000
  H   H321      1.0  0.06735  0.52236  0.86882  1.0000
  N   N21       1.0  0.06588  0.50226  0.90020  1.0000
  C   C206      1.0  0.99795  0.51086  0.69365  1.0000
  C   C207      1.0  0.13930  0.52540  0.95914  1.0000
  C   C208      1.0  0.12238  0.55073  0.95696  1.0000
  C   C209      1.0  0.14180  0.53750  0.97044  1.0000
  C   C210      1.0  0.14339  0.59318  0.92097  1.0000
  H   H322      1.0  0.05975  0.60199  0.96783  1.0000
  H   H323      1.0  0.15332  0.83674  0.90447  1.0000
  H   H324      1.0  0.04678  0.49931  0.78551  1.0000
  H   H325      1.0  0.12702  0.68008  0.92129  1.0000
  C   C211      1.0  0.04245  0.53505  0.80055  1.0000
  H   H326      1.0  0.12439  0.63126  0.94340  1.0000
  C   C212      1.0  0.13712  0.63026  0.90459  1.0000
  H   H327      1.0  0.13625  0.56509  0.98465  1.0000
  H   H328      1.0  0.14585  0.58855  0.90537  1.0000
  H   H329      1.0  0.11812  0.62016  0.91735  1.0000
  H   H330      1.0  0.13916  0.62653  0.88863  1.0000
  H   H331      1.0  0.04573  0.52036  0.81155  1.0000
  C   C213      1.0  0.12470  0.56249  0.96888  1.0000
  H   H332      1.0  0.00571  0.51523  0.68474  1.0000
  H   H333      1.0  0.06019  0.51694  0.92718  1.0000
  H   H334      1.0  0.03910  0.51034  0.76549  1.0000
  C   C214      1.0  0.02075  0.54160  0.69826  1.0000
  H   H335      1.0  0.13810  0.62244  0.94532  1.0000
  H   H336      1.0  0.02261  0.51697  0.79288  1.0000
  C   C215      1.0  0.12519  0.78738  0.91905  1.0000
  S   S74       1.0  0.15259  0.58914  0.98295  1.0000
  H   H337      1.0  0.05414  0.52568  0.88505  1.0000
  Fe  Fe36      1.0  0.13121  0.73455  0.97364  1.0000
  H   H338      1.0  0.11661  0.78668  0.88749  1.0000
  H   H339      1.0  0.14411  0.63495  0.90658  1.0000
  C   C216      1.0  0.99415  0.57366  0.79799  1.0000
  H   H340      1.0  0.15046  0.59674  0.92401  1.0000
  H   H341      1.0  0.07875  0.51232  0.90555  1.0000
  S   S75       1.0  0.00111  0.51035  0.90753  1.0000
  H   H342      1.0  0.02742  0.54703  0.76367  1.0000
  S   S76       1.0  0.11595  0.72482  0.97475  1.0000
  H   H343      1.0  0.05028  0.52103  0.76409  1.0000
  H   H344      1.0  0.04927  0.54220  0.79038  1.0000
  C   C217      1.0  0.15397  0.66729  0.94359  1.0000
  H   H345      1.0  0.13041  0.64461  0.90476  1.0000
  C   C218      1.0  0.04344  0.51453  0.77519  1.0000
  H   H346      1.0  0.99174  0.57988  0.78298  1.0000
  H   H347      1.0  0.02183  0.53234  0.81162  1.0000
  N   N22       1.0  0.13425  0.61180  0.92143  1.0000
  H   H348      1.0  0.15003  0.69441  0.95798  1.0000
  N   N23       1.0  0.03636  0.53014  0.78778  1.0000
  S   S77       1.0  0.10199  0.61409  0.96737  1.0000
  Fe  Fe37      1.0  0.07928  0.61911  0.93825  1.0000
  C   C219      1.0  0.13141  0.61761  0.94230  1.0000
  C   C220      1.0  0.06272  0.52261  0.88530  1.0000
  H   H349      1.0  0.03872  0.55750  0.76238  1.0000
  H   H350      1.0  0.04714  0.61856  0.96399  1.0000
  H   H351      1.0  0.99707  0.51532  0.80815  1.0000
  C   C221      1.0  0.00028  0.55826  0.83702  1.0000
  H   H352      1.0  0.99397  0.50854  0.68217  1.0000
  S   S78       1.0  0.99971  0.56040  0.70880  1.0000
  Fe  Fe38      1.0  0.09976  0.59092  0.95104  1.0000
  S   S79       1.0  0.06592  0.62198  0.92142  1.0000
  H   H353      1.0  0.05226  0.62353  0.89420  1.0000
  H   H354      1.0  0.14487  0.51095  0.95545  1.0000
  H   H355      1.0  0.03024  0.50587  0.81322  1.0000
  H   H356      1.0  0.03706  0.52485  0.68923  1.0000
  C   C222      1.0  0.03215  0.55009  0.77344  1.0000
  C   C223      1.0  0.02736  0.52086  0.80201  1.0000
  C   C224      1.0  0.15411  0.81624  0.93527  1.0000
  H   H357      1.0  0.05048  0.64596  0.97843  1.0000
  C   C225      1.0  0.03025  0.52726  0.70220  1.0000
  H   H358      1.0  0.02024  0.55010  0.68223  1.0000
  H   H359      1.0  0.02684  0.56226  0.78250  1.0000
  S   S80       1.0  0.09665  0.61566  0.92184  1.0000
  H   H360      1.0  0.12939  0.60395  0.95536  1.0000
  H   H361      1.0  0.12692  0.60094  0.90263  1.0000
  C   C226      1.0  0.13448  0.55605  0.97538  1.0000
  H   H362      1.0  0.04792  0.59140  0.97906  1.0000
  Fe  Fe39      1.0  0.15506  0.72320  0.97126  1.0000
  C   C227      1.0  0.00331  0.57830  0.80078  1.0000
  H   H363      1.0  0.02248  0.50999  0.75539  1.0000
  S   S81       1.0  0.14524  0.74013  0.94685  1.0000
  S   S82       1.0  0.10883  0.66279  0.92473  1.0000
  Fe  Fe40      1.0  0.14444  0.76958  0.95819  1.0000
  S   S83       1.0  0.14591  0.80021  0.93338  1.0000
  H   H364      1.0  0.11530  0.74465  0.92059  1.0000
  H   H365      1.0  0.13128  0.78690  0.90397  1.0000
  C   C228      1.0  0.10903  0.77694  0.94119  1.0000
  H   H366      1.0  0.10734  0.80411  0.90376  1.0000
  C   C229      1.0  0.11454  0.70639  0.96145  1.0000
  C   C230      1.0  0.10488  0.69944  0.96718  1.0000
  C   C231      1.0  0.10323  0.68535  0.95667  1.0000
  C   C232      1.0  0.11112  0.67853  0.93987  1.0000
  C   C233      1.0  0.12085  0.68530  0.93425  1.0000
  C   C234      1.0  0.12263  0.69891  0.94519  1.0000
  H   H367      1.0  0.12192  0.80454  0.91993  1.0000
  H   H368      1.0  0.10277  0.76780  0.94346  1.0000
  H   H369      1.0  0.01292  0.49888  0.71674  1.0000
  N   N24       1.0  0.11669  0.77625  0.92066  1.0000
  H   H370      1.0  0.10497  0.79372  0.94259  1.0000
  H   H371      1.0  0.09569  0.68036  0.96111  1.0000
  H   H372      1.0  0.12736  0.75241  0.90399  1.0000
  C   C235      1.0  0.11105  0.78699  0.90321  1.0000
  H   H373      1.0  0.12577  0.74508  0.93219  1.0000
  H   H374      1.0  0.12950  0.77985  0.93215  1.0000
  C   C236      1.0  0.12149  0.75365  0.91922  1.0000
  H   H375      1.0  0.06383  0.53661  0.88995  1.0000
  H   H376      1.0  0.11312  0.76964  0.95466  1.0000
  H   H377      1.0  0.10456  0.77897  0.90403  1.0000
  C   C237      1.0  0.05119  0.60600  0.97579  1.0000
  H   H378      1.0  0.00014  0.50922  0.73233  1.0000
  H   H379      1.0  0.05062  0.50589  0.92202  1.0000
  H   H380      1.0  0.99293  0.52504  0.70014  1.0000
  S   S84       1.0  0.04249  0.49642  0.72697  1.0000
  C   C238      1.0  0.05928  0.50330  0.92167  1.0000
  C   C239      1.0  0.99110  0.55381  0.83429  1.0000
  C   C240      1.0  0.07727  0.49893  0.90047  1.0000
  H   H381      1.0  0.08246  0.49813  0.88448  1.0000
  C   C241      1.0  0.99250  0.50349  0.81936  1.0000
  H   H382      1.0  0.09859  0.70503  0.97980  1.0000
  S   S85       1.0  0.12941  0.76569  0.98296  1.0000
  H   H383      1.0  0.99242  0.50441  0.83567  1.0000
  C   C242      1.0  0.31018  0.19716  0.01451  1.0000
  H   H384      1.0  0.23942  0.05908  0.24906  1.0000
  C   C243      1.0  0.22619  0.03585  0.27745  1.0000
  H   H385      1.0  0.21038  0.07090  0.27392  1.0000
  C   C244      1.0  0.24402  0.49018  0.31161  1.0000
  S   S86       1.0  0.22079  0.03836  0.18482  1.0000
  H   H386      1.0  0.20758  0.04023  0.25995  1.0000
  H   H387      1.0  0.22082  0.02803  0.22959  1.0000
  C   C245      1.0  0.30606  0.16887  0.04473  1.0000
  H   H388      1.0  0.17285  0.00049  0.28538  1.0000
  H   H389      1.0  0.21871  0.09025  0.26524  1.0000
  C   C246      1.0  0.29063  0.38608  0.31684  1.0000
  C   C247      1.0  0.22461  0.06083  0.29881  1.0000
  C   C248      1.0  0.19949  0.01047  0.18966  1.0000
  C   C249      1.0  0.23746  0.06164  0.26552  1.0000
  H   H390      1.0  0.17262  0.11254  0.28017  1.0000
  Fe  Fe41      1.0  0.18827  0.04802  0.29366  1.0000
  C   C250      1.0  0.21181  0.04786  0.20650  1.0000
  C   C251      1.0  0.20249  0.06324  0.20335  1.0000
  C   C252      1.0  0.19512  0.07060  0.22058  1.0000
  C   C253      1.0  0.19688  0.06215  0.24110  1.0000
  C   C254      1.0  0.20612  0.04661  0.24425  1.0000
  C   C255      1.0  0.21365  0.03971  0.22698  1.0000
  H   H391      1.0  0.20103  0.06965  0.18753  1.0000
  H   H392      1.0  0.18799  0.08268  0.21802  1.0000
  C   C256      1.0  0.21859  0.07338  0.26587  1.0000
  C   C257      1.0  0.26759  0.47910  0.24485  1.0000
  S   S87       1.0  0.18760  0.07142  0.26259  1.0000
  H   H393      1.0  0.26872  0.47715  0.31413  1.0000
  H   H394      1.0  0.19119  0.01368  0.18739  1.0000
  C   C258      1.0  0.25599  0.38807  0.31039  1.0000
  H   H395      1.0  0.22794  0.03286  0.26123  1.0000
  H   H396      1.0  0.25716  0.42560  0.31623  1.0000
  H   H397      1.0  0.17775  0.11765  0.31075  1.0000
  H   H398      1.0  0.24390  0.49240  0.27911  1.0000
  N   N25       1.0  0.22671  0.05796  0.27691  1.0000
  Fe  Fe42      1.0  0.23700  0.02104  0.19119  1.0000
  H   H399      1.0  0.31100  0.34853  0.24156  1.0000
  H   H400      1.0  0.23711  0.40856  0.29940  1.0000
  H   H401      1.0  0.29729  0.17515  0.04638  1.0000
  H   H402      1.0  0.27854  0.47357  0.29021  1.0000
  H   H403      1.0  0.26817  0.41750  0.29563  1.0000
  H   H404      1.0  0.30874  0.17621  0.05489  1.0000
  H   H405      1.0  0.30737  0.15129  0.05140  1.0000
  H   H406      1.0  0.30047  0.09466  0.00319  1.0000
  H   H407      1.0  0.31477  0.17904  0.17344  1.0000
  C   C259      1.0  0.32067  0.47393  0.31017  1.0000
  C   C260      1.0  0.29975  0.37184  0.32271  1.0000
  H   H408      1.0  0.31154  0.32016  0.24932  1.0000
  H   H409      1.0  0.22001  0.07159  0.24926  1.0000
  Fe  Fe43      1.0  0.18400  0.00484  0.32042  1.0000
  H   H410      1.0  0.22503  0.07725  0.29915  1.0000
  H   H411      1.0  0.16354  0.14526  0.29518  1.0000
  H   H412      1.0  0.31321  0.20481  0.02387  1.0000
  S   S88       1.0  0.27820  0.11310  0.01555  1.0000
  Fe  Fe44      1.0  0.31103  0.14947  0.10866  1.0000
  C   C261      1.0  0.28794  0.47973  0.31812  1.0000
  S   S89       1.0  0.30565  0.18525  0.10576  1.0000
  Fe  Fe45      1.0  0.31554  0.11467  0.08356  1.0000
  S   S90       1.0  0.31833  0.28162  0.13866  1.0000
  Fe  Fe46      1.0  0.30974  0.10404  0.13124  1.0000
  S   S91       1.0  0.30029  0.08581  0.16053  1.0000
  S   S92       1.0  0.30120  0.12760  0.10688  1.0000
  H   H413      1.0  0.21658  0.05806  0.30790  1.0000
  H   H414      1.0  0.28678  0.07273  0.10153  1.0000
  H   H415      1.0  0.29775  0.48901  0.22577  1.0000
  H   H416      1.0  0.23208  0.02377  0.28602  1.0000
  H   H417      1.0  0.29906  0.17075  0.01016  1.0000
  C   C262      1.0  0.29336  0.06816  0.15734  1.0000
  C   C263      1.0  0.28468  0.06247  0.17333  1.0000
  C   C264      1.0  0.27895  0.04860  0.17106  1.0000
  C   C265      1.0  0.28202  0.04000  0.15296  1.0000
  C   C266      1.0  0.29094  0.04507  0.13734  1.0000
  C   C267      1.0  0.29649  0.05941  0.13932  1.0000
  H   H418      1.0  0.28229  0.06905  0.18738  1.0000
  H   H419      1.0  0.27214  0.04466  0.18328  1.0000
  H   H420      1.0  0.29358  0.03793  0.12364  1.0000
  H   H421      1.0  0.30331  0.06339  0.12713  1.0000
  C   C268      1.0  0.28906  0.11082  0.02652  1.0000
  C   C269      1.0  0.28763  0.11908  0.04441  1.0000
  C   C270      1.0  0.29646  0.11746  0.05279  1.0000
  C   C271      1.0  0.30669  0.10773  0.04312  1.0000
  C   C272      1.0  0.30810  0.09968  0.02517  1.0000
  C   C273      1.0  0.29930  0.10111  0.01697  1.0000
  H   H422      1.0  0.27973  0.12699  0.05155  1.0000
  H   H423      1.0  0.29536  0.12391  0.06655  1.0000
  H   H424      1.0  0.26540  0.40069  0.26958  1.0000
  C   C274      1.0  0.24190  0.41868  0.30182  1.0000
  S   S93       1.0  0.27455  0.02386  0.14883  1.0000
  C   C275      1.0  0.31437  0.21091  0.15396  1.0000
  C   C276      1.0  0.31323  0.18961  0.15869  1.0000
  C   C277      1.0  0.31020  0.18181  0.14430  1.0000
  C   C278      1.0  0.30817  0.19531  0.12520  1.0000
  C   C279      1.0  0.30883  0.21689  0.12093  1.0000
  C   C280      1.0  0.31213  0.22459  0.13507  1.0000
  S   S94       1.0  0.31886  0.21969  0.17175  1.0000
  H   H425      1.0  0.30931  0.16542  0.14817  1.0000
  H   H426      1.0  0.30697  0.22757  0.10647  1.0000
  H   H427      1.0  0.31280  0.24116  0.13145  1.0000
  H   H428      1.0  0.25767  0.44016  0.28943  1.0000
  N   N26       1.0  0.27337  0.07238  0.08981  1.0000
  C   C281      1.0  0.26848  0.08360  0.07140  1.0000
  C   C282      1.0  0.26559  0.07616  0.10957  1.0000
  C   C283      1.0  0.28290  0.08066  0.08793  1.0000
  C   C284      1.0  0.27657  0.04910  0.09033  1.0000
  H   H429      1.0  0.26611  0.10127  0.07025  1.0000
  H   H430      1.0  0.26122  0.07791  0.07229  1.0000
  H   H431      1.0  0.32066  0.33075  0.22625  1.0000
  H   H432      1.0  0.28054  0.48487  0.18494  1.0000
  H   H433      1.0  0.28242  0.04565  0.07564  1.0000
  H   H434      1.0  0.26955  0.04224  0.09206  1.0000
  C   C285      1.0  0.30776  0.16425  0.00943  1.0000
  H   H435      1.0  0.25839  0.06967  0.11182  1.0000
  Fe  Fe47      1.0  0.31675  0.40837  0.23064  1.0000
  H   H436      1.0  0.25512  0.42356  0.26321  1.0000
  S   S95       1.0  0.24146  0.46426  0.32020  1.0000
  H   H437      1.0  0.28899  0.07794  0.07328  1.0000
  N   N27       1.0  0.31184  0.17364  0.02240  1.0000
  H   H438      1.0  0.27415  0.08099  0.05623  1.0000
  S   S96       1.0  0.24903  0.03709  0.19468  1.0000
  H   H439      1.0  0.28035  0.04015  0.10395  1.0000
  C   C286      1.0  0.31651  0.33246  0.24271  1.0000
  Fe  Fe48      1.0  0.26110  0.01436  0.17584  1.0000
  H   H440      1.0  0.30289  0.48874  0.18802  1.0000
  H   H441      1.0  0.26291  0.09357  0.10965  1.0000
  H   H442      1.0  0.31602  0.09239  0.01749  1.0000
  H   H443      1.0  0.26912  0.06815  0.12371  1.0000
  N   N28       1.0  0.16234  0.11288  0.31114  1.0000
  H   H444      1.0  0.28077  0.09816  0.08759  1.0000
  S   S97       1.0  0.31148  0.32505  0.17448  1.0000
  C   C287      1.0  0.31609  0.48440  0.27563  1.0000
  S   S98       1.0  0.25085  0.01249  0.25475  1.0000
  C   C288      1.0  0.16631  0.10453  0.29151  1.0000
  Fe  Fe49      1.0  0.25127  0.00955  0.22230  1.0000
  H   H445      1.0  0.30898  0.14650  0.01482  1.0000
  H   H446      1.0  0.24376  0.05026  0.27351  1.0000
  H   H447      1.0  0.30021  0.35922  0.19589  1.0000
  N   N29       1.0  0.25348  0.40948  0.29646  1.0000
  H   H448      1.0  0.25231  0.39708  0.27096  1.0000
  Fe  Fe50      1.0  0.29450  0.42724  0.25278  1.0000
  S   S99       1.0  0.30662  0.44193  0.22668  1.0000
  S   S100      1.0  0.27696  0.43665  0.25457  1.0000
  Fe  Fe51      1.0  0.31062  0.40043  0.27830  1.0000
  H   H449      1.0  0.30156  0.20475  0.01538  1.0000
  Fe  Fe52      1.0  0.31285  0.44532  0.25326  1.0000
  H   H450      1.0  0.29316  0.46771  0.30884  1.0000
  S   S101      1.0  0.19837  0.01481  0.29760  1.0000
  S   S102      1.0  0.29994  0.43296  0.27896  1.0000
  S   S103      1.0  0.30391  0.39352  0.25448  1.0000
  C   C289      1.0  0.31917  0.46832  0.29260  1.0000
  H   H451      1.0  0.23983  0.43510  0.29192  1.0000
  H   H452      1.0  0.20483  0.01425  0.17380  1.0000
  H   H453      1.0  0.23816  0.07822  0.26455  1.0000
  H   H454      1.0  0.28408  0.44961  0.20963  1.0000
  H   H455      1.0  0.26396  0.47746  0.26154  1.0000
  C   C290      1.0  0.31202  0.37364  0.19992  1.0000
  C   C291      1.0  0.30865  0.35881  0.19308  1.0000
  H   H456      1.0  0.30617  0.38540  0.20791  1.0000
  S   S104      1.0  0.24877  0.00068  0.16971  1.0000
  H   H457      1.0  0.23926  0.42037  0.31861  1.0000
  H   H458      1.0  0.19969  0.02204  0.19872  1.0000
  S   S105      1.0  0.19307  0.05657  0.31916  1.0000
  H   H459      1.0  0.21819  0.03253  0.28584  1.0000
  S   S106      1.0  0.31800  0.10637  0.05222  1.0000
  C   C292      1.0  0.27896  0.46341  0.21558  1.0000
  C   C293      1.0  0.27423  0.46130  0.23713  1.0000
  H   H460      1.0  0.26469  0.38067  0.30665  1.0000
  H   H461      1.0  0.31702  0.24799  0.07731  1.0000
  C   C294      1.0  0.27693  0.48331  0.20164  1.0000
  H   H462      1.0  0.31371  0.31943  0.28521  1.0000
  C   C295      1.0  0.27376  0.48558  0.29986  1.0000
  H   H463      1.0  0.25157  0.37686  0.30869  1.0000
  C   C296      1.0  0.31612  0.34352  0.18252  1.0000
  H   H464      1.0  0.32078  0.45162  0.29182  1.0000
  C   C297      1.0  0.25940  0.42378  0.29959  1.0000
  S   S107      1.0  0.31877  0.12689  0.13437  1.0000
  H   H465      1.0  0.23051  0.04908  0.30762  1.0000
  C   C298      1.0  0.15756  0.13607  0.30601  1.0000
  H   H466      1.0  0.31609  0.49288  0.20601  1.0000
  C   C299      1.0  0.31840  0.33210  0.27749  1.0000
  C   C300      1.0  0.25668  0.40755  0.27410  1.0000
  S   S108      1.0  0.31246  0.37468  0.30742  1.0000
  H   H467      1.0  0.29129  0.39784  0.30216  1.0000
  H   H468      1.0  0.31442  0.20132  0.99773  1.0000
  H   H469      1.0  0.16991  0.08702  0.29493  1.0000
  H   H470      1.0  0.15978  0.10678  0.28325  1.0000
  H   H471      1.0  0.31196  0.16757  0.99249  1.0000
  S   S109      1.0  0.31479  0.47839  0.25260  1.0000
  H   H472      1.0  0.31269  0.34791  0.27754  1.0000
  S   S110      1.0  0.17338  0.03779  0.31428  1.0000
  C   C301      1.0  0.31875  0.49557  0.31120  1.0000
  H   H473      1.0  0.29325  0.48719  0.32280  1.0000
  C   C302      1.0  0.17133  0.10953  0.32137  1.0000
  H   H474      1.0  0.29236  0.49606  0.27646  1.0000
  N   N30       1.0  0.28066  0.49609  0.30573  1.0000
  S   S111      1.0  0.17286  0.27613  0.48257  1.0000
  H   H475      1.0  0.20224  0.38902  0.51201  1.0000
  S   S112      1.0  0.16677  0.06324  0.36375  1.0000
  C   C303      1.0  0.16243  0.09563  0.38516  1.0000
  H   H476      1.0  0.17878  0.05944  0.47795  1.0000
  S   S113      1.0  0.21865  0.01044  0.32924  1.0000
  S   S114      1.0  0.17697  0.16896  0.43403  1.0000
  H   H477      1.0  0.15871  0.28072  0.43035  1.0000
  Fe  Fe53      1.0  0.16761  0.20132  0.42167  1.0000
  S   S115      1.0  0.17555  0.22970  0.41026  1.0000
  Fe  Fe54      1.0  0.16883  0.15612  0.41641  1.0000
  S   S116      1.0  0.17967  0.12982  0.39972  1.0000
  H   H478      1.0  0.16808  0.21894  0.45582  1.0000
  Fe  Fe55      1.0  0.19796  0.36163  0.64586  1.0000
  H   H479      1.0  0.30723  0.44049  0.33390  1.0000
  H   H480      1.0  0.16377  0.29437  0.61442  1.0000
  Fe  Fe56      1.0  0.20171  0.02208  0.32535  1.0000
  C   C304      1.0  0.17117  0.23328  0.45169  1.0000
  H   H481      1.0  0.16564  0.10555  0.44114  1.0000
  H   H482      1.0  0.29273  0.42037  0.38851  1.0000
  H   H483      1.0  0.29124  0.39813  0.35625  1.0000
  C   C305      1.0  0.28377  0.49023  0.37204  1.0000
  H   H484      1.0  0.31188  0.43671  0.35760  1.0000
  H   H485      1.0  0.19525  0.40774  0.64659  1.0000
  H   H486      1.0  0.15682  0.35229  0.56878  1.0000
  S   S117      1.0  0.16065  0.18916  0.40141  1.0000
  C   C306      1.0  0.17576  0.11196  0.38946  1.0000
  C   C307      1.0  0.16507  0.11077  0.39294  1.0000
  H   H487      1.0  0.26133  0.37302  0.62919  1.0000
  C   C308      1.0  0.17042  0.08170  0.37373  1.0000
  C   C309      1.0  0.18108  0.08305  0.37011  1.0000
  C   C310      1.0  0.18373  0.09802  0.37804  1.0000
  H   H488      1.0  0.25719  0.49309  0.37923  1.0000
  H   H489      1.0  0.18732  0.07236  0.36146  1.0000
  H   H490      1.0  0.19202  0.09875  0.37536  1.0000
  C   C311      1.0  0.17439  0.26267  0.46243  1.0000
  C   C312      1.0  0.17960  0.27001  0.44161  1.0000
  C   C313      1.0  0.18042  0.25917  0.42579  1.0000
  C   C314      1.0  0.17596  0.24108  0.43070  1.0000
  H   H491      1.0  0.24451  0.49300  0.34243  1.0000
  C   C315      1.0  0.17031  0.24411  0.46747  1.0000
  H   H492      1.0  0.18297  0.28403  0.43767  1.0000
  H   H493      1.0  0.18429  0.26509  0.40962  1.0000
  C   C316      1.0  0.28057  0.38552  0.33031  1.0000
  H   H494      1.0  0.18967  0.06777  0.45745  1.0000
  H   H495      1.0  0.16259  0.08661  0.48910  1.0000
  C   C317      1.0  0.18644  0.27587  0.60776  1.0000
  C   C318      1.0  0.18660  0.28757  0.62212  1.0000
  H   H496      1.0  0.19042  0.28008  0.59133  1.0000
  C   C319      1.0  0.15710  0.28613  0.41412  1.0000
  C   C320      1.0  0.25600  0.37472  0.64486  1.0000
  H   H497      1.0  0.31910  0.39770  0.35712  1.0000
  C   C321      1.0  0.17631  0.26496  0.65028  1.0000
  S   S118      1.0  0.18785  0.01031  0.34889  1.0000
  H   H498      1.0  0.16406  0.27806  0.40337  1.0000
  H   H499      1.0  0.17723  0.32128  0.57819  1.0000
  N   N31       1.0  0.18339  0.22452  0.52781  1.0000
  C   C322      1.0  0.17289  0.23955  0.53072  1.0000
  C   C323      1.0  0.18942  0.22583  0.54271  1.0000
  C   C324      1.0  0.18947  0.23032  0.50587  1.0000
  C   C325      1.0  0.18178  0.20243  0.53191  1.0000
  H   H500      1.0  0.16799  0.23862  0.52012  1.0000
  H   H501      1.0  0.17377  0.25646  0.52712  1.0000
  H   H502      1.0  0.16822  0.23592  0.54728  1.0000
  H   H503      1.0  0.19732  0.21443  0.54133  1.0000
  H   H504      1.0  0.19084  0.24228  0.53981  1.0000
  H   H505      1.0  0.18499  0.22205  0.55941  1.0000
  H   H506      1.0  0.18518  0.22934  0.49422  1.0000
  H   H507      1.0  0.19748  0.21944  0.50317  1.0000
  H   H508      1.0  0.19063  0.24708  0.50198  1.0000
  H   H509      1.0  0.18950  0.19047  0.53059  1.0000
  H   H510      1.0  0.17752  0.20086  0.52047  1.0000
  H   H511      1.0  0.17685  0.19777  0.54800  1.0000
  N   N32       1.0  0.17591  0.09305  0.46341  1.0000
  S   S119      1.0  0.26694  0.36994  0.36609  1.0000
  H   H512      1.0  0.25389  0.38904  0.32739  1.0000
  H   H513      1.0  0.27665  0.35857  0.64729  1.0000
  C   C326      1.0  0.17107  0.09039  0.44722  1.0000
  S   S120      1.0  0.16172  0.37933  0.42515  1.0000
  C   C327      1.0  0.29354  0.41397  0.35038  1.0000
  Fe  Fe57      1.0  0.18606  0.32882  0.64460  1.0000
  H   H514      1.0  0.28336  0.47104  0.33295  1.0000
  H   H515      1.0  0.29127  0.47873  0.37242  1.0000
  S   S121      1.0  0.16252  0.33624  0.48047  1.0000
  C   C328      1.0  0.15721  0.18980  0.50526  1.0000
  C   C329      1.0  0.17097  0.31506  0.57507  1.0000
  S   S122      1.0  0.17300  0.19498  0.59333  1.0000
  S   S123      1.0  0.26377  0.43273  0.34962  1.0000
  H   H516      1.0  0.15886  0.12139  0.40174  1.0000
  Fe  Fe58      1.0  0.16865  0.22330  0.60831  1.0000
  S   S124      1.0  0.17919  0.24737  0.59564  1.0000
  C   C330      1.0  0.18084  0.25927  0.61447  1.0000
  C   C331      1.0  0.27426  0.48324  0.37618  1.0000
  C   C332      1.0  0.17595  0.25356  0.63583  1.0000
  Fe  Fe59      1.0  0.16655  0.17696  0.62591  1.0000
  Fe  Fe60      1.0  0.17880  0.04435  0.34048  1.0000
  H   H517      1.0  0.18697  0.07423  0.48294  1.0000
  H   H518      1.0  0.31448  0.40216  0.33327  1.0000
  H   H519      1.0  0.19070  0.30074  0.61675  1.0000
  C   C333      1.0  0.28855  0.35500  0.35450  1.0000
  S   S125      1.0  0.24378  0.46030  0.37956  1.0000
  Fe  Fe61      1.0  0.17633  0.30921  0.47285  1.0000
  H   H520      1.0  0.25888  0.41261  0.64602  1.0000
  S   S126      1.0  0.18709  0.31742  0.48851  1.0000
  C   C334      1.0  0.30508  0.43584  0.35148  1.0000
  C   C335      1.0  0.26559  0.39870  0.64920  1.0000
  H   H521      1.0  0.20525  0.39029  0.48411  1.0000
  C   C336      1.0  0.31209  0.39829  0.35088  1.0000
  S   S127      1.0  0.17622  0.14449  0.63842  1.0000
  H   H522      1.0  0.27135  0.39769  0.63382  1.0000
  S   S128      1.0  0.18284  0.32716  0.44040  1.0000
  H   H523      1.0  0.17182  0.24052  0.64114  1.0000
  H   H524      1.0  0.29794  0.39250  0.38811  1.0000
  H   H525      1.0  0.27361  0.39704  0.32622  1.0000
  C   C337      1.0  0.21838  0.39490  0.64321  1.0000
  C   C338      1.0  0.19235  0.42322  0.65186  1.0000
  H   H526      1.0  0.20073  0.35295  0.38404  1.0000
  Fe  Fe62      1.0  0.17688  0.37650  0.63124  1.0000
  S   S129      1.0  0.18020  0.34884  0.61582  1.0000
  C   C339      1.0  0.15721  0.34485  0.58560  1.0000
  Fe  Fe63      1.0  0.19667  0.35520  0.60380  1.0000
  C   C340      1.0  0.19612  0.34384  0.54099  1.0000
  S   S130      1.0  0.19297  0.38480  0.61697  1.0000
  H   H527      1.0  0.19394  0.37463  0.42102  1.0000
  H   H528      1.0  0.16867  0.11575  0.33620  1.0000
  H   H529      1.0  0.16160  0.16716  0.56263  1.0000
  H   H530      1.0  0.22967  0.36718  0.51980  1.0000
  S   S131      1.0  0.22565  0.42502  0.42442  1.0000
  S   S132      1.0  0.17981  0.36730  0.46312  1.0000
  H   H531      1.0  0.20564  0.41369  0.44648  1.0000
  S   S133      1.0  0.16782  0.35976  0.52291  1.0000
  C   C341      1.0  0.21078  0.40009  0.44021  1.0000
  S   S134      1.0  0.16095  0.39924  0.63041  1.0000
  C   C342      1.0  0.22158  0.40026  0.49082  1.0000
  H   H532      1.0  0.18353  0.39584  0.41159  1.0000
  C   C343      1.0  0.22405  0.36497  0.42410  1.0000
  C   C344      1.0  0.22767  0.38401  0.41998  1.0000
  Fe  Fe64      1.0  0.16987  0.35483  0.44928  1.0000
  Fe  Fe65      1.0  0.17377  0.34597  0.49365  1.0000
  H   H533      1.0  0.18982  0.33601  0.51858  1.0000
  H   H534      1.0  0.22374  0.34855  0.48866  1.0000
  H   H535      1.0  0.22421  0.37166  0.46736  1.0000
  H   H536      1.0  0.20750  0.39621  0.39954  1.0000
  H   H537      1.0  0.21907  0.35307  0.52602  1.0000
  H   H538      1.0  0.22786  0.41771  0.62362  1.0000
  C   C345      1.0  0.19407  0.35573  0.55647  1.0000
  C   C346      1.0  0.18406  0.36933  0.56112  1.0000
  C   C347      1.0  0.17611  0.37094  0.55038  1.0000
  C   C348      1.0  0.17813  0.35892  0.53500  1.0000
  Fe  Fe66      1.0  0.19233  0.33818  0.45670  1.0000
  H   H539      1.0  0.18247  0.37882  0.57286  1.0000
  H   H540      1.0  0.16840  0.38153  0.55404  1.0000
  S   S135      1.0  0.20953  0.33933  0.44107  1.0000
  C   C349      1.0  0.20718  0.38102  0.44438  1.0000
  H   H541      1.0  0.20958  0.35925  0.39606  1.0000
  H   H542      1.0  0.19934  0.37994  0.45403  1.0000
  S   S136      1.0  0.20301  0.33251  0.63146  1.0000
  C   C350      1.0  0.16181  0.16807  0.51140  1.0000
  C   C351      1.0  0.22558  0.36484  0.48366  1.0000
  C   C352      1.0  0.18316  0.07269  0.47078  1.0000
  H   H543      1.0  0.21627  0.37926  0.53132  1.0000
  H   H544      1.0  0.21637  0.39170  0.63001  1.0000
  H   H545      1.0  0.18630  0.38201  0.37029  1.0000
  H   H546      1.0  0.30572  0.34495  0.34600  1.0000
  C   C353      1.0  0.22106  0.40156  0.42815  1.0000
  H   H547      1.0  0.22025  0.40778  0.47448  1.0000
  H   H548      1.0  0.18472  0.40890  0.37297  1.0000
  C   C354      1.0  0.20477  0.36575  0.38363  1.0000
  H   H549      1.0  0.20819  0.40609  0.37174  1.0000
  H   H550      1.0  0.23011  0.39936  0.49027  1.0000
  C   C355      1.0  0.29870  0.35612  0.34146  1.0000
  H   H551      1.0  0.22925  0.35137  0.41790  1.0000
  H   H552      1.0  0.21657  0.41134  0.50130  1.0000
  H   H553      1.0  0.19604  0.39753  0.35456  1.0000
  H   H554      1.0  0.19696  0.41716  0.39049  1.0000
  H   H555      1.0  0.18503  0.36913  0.40853  1.0000
  H   H556      1.0  0.21045  0.36844  0.36807  1.0000
  H   H557      1.0  0.17366  0.29731  0.57730  1.0000
  C   C356      1.0  0.22111  0.36917  0.51975  1.0000
  Fe  Fe67      1.0  0.15610  0.20423  0.58930  1.0000
  C   C357      1.0  0.21381  0.36339  0.43636  1.0000
  C   C358      1.0  0.18819  0.34550  0.53023  1.0000
  C   C359      1.0  0.18954  0.38118  0.40801  1.0000
  C   C360      1.0  0.19075  0.39391  0.37049  1.0000
  N   N33       1.0  0.21894  0.37879  0.49836  1.0000
  N   N34       1.0  0.19694  0.38574  0.38731  1.0000
  S   S137      1.0  0.20409  0.35349  0.56980  1.0000
  H   H558      1.0  0.20379  0.33305  0.53755  1.0000
  C   C361      1.0  0.22488  0.40960  0.63964  1.0000
  C   C362      1.0  0.20263  0.40203  0.38723  1.0000
  C   C363      1.0  0.20750  0.38086  0.49921  1.0000
  C   C364      1.0  0.16349  0.16000  0.53211  1.0000
  H   H559      1.0  0.23425  0.36288  0.48269  1.0000
  H   H560      1.0  0.18857  0.10623  0.44032  1.0000
  H   H561      1.0  0.24909  0.38827  0.64191  1.0000
  H   H562      1.0  0.28636  0.42614  0.35549  1.0000
  C   C365      1.0  0.16122  0.31212  0.61136  1.0000
  H   H563      1.0  0.17728  0.08608  0.43322  1.0000
  H   H564      1.0  0.29809  0.44816  0.35712  1.0000
  H   H565      1.0  0.23567  0.38492  0.41088  1.0000
  C   C366      1.0  0.29987  0.40870  0.38212  1.0000
  H   H566      1.0  0.16638  0.23815  0.48356  1.0000
  H   H567      1.0  0.20554  0.36490  0.50220  1.0000
  C   C367      1.0  0.18206  0.11012  0.45406  1.0000
  Fe  Fe68      1.0  0.25840  0.40324  0.37018  1.0000
  S   S138      1.0  0.25691  0.41271  0.40051  1.0000
  H   H568      1.0  0.17683  0.12547  0.44804  1.0000
  Fe  Fe69      1.0  0.26090  0.44363  0.37972  1.0000
  S   S139      1.0  0.27493  0.45550  0.38122  1.0000
  N   N35       1.0  0.30266  0.41420  0.35872  1.0000
  H   H569      1.0  0.28772  0.34292  0.36906  1.0000
  C   C368      1.0  0.27951  0.37003  0.34911  1.0000
  H   H570      1.0  0.30653  0.40883  0.38903  1.0000
  Fe  Fe70      1.0  0.24640  0.44696  0.35084  1.0000
  H   H571      1.0  0.18561  0.11312  0.46586  1.0000
  H   H572      1.0  0.16712  0.31832  0.61567  1.0000
  H   H573      1.0  0.31043  0.38186  0.35556  1.0000
  S   S140      1.0  0.24122  0.41631  0.36858  1.0000
  H   H574      1.0  0.17066  0.32150  0.55810  1.0000
  Fe  Fe71      1.0  0.24000  0.42820  0.39750  1.0000
  N   N36       1.0  0.16046  0.32121  0.58906  1.0000
  H   H575      1.0  0.16183  0.11444  0.47658  1.0000
  S   S141      1.0  0.16355  0.20469  0.64131  1.0000
  H   H576      1.0  0.15734  0.08363  0.32877  1.0000
  H   H577      1.0  0.17079  0.10160  0.49389  1.0000
  Fe  Fe72      1.0  0.16259  0.16637  0.46051  1.0000
  C   C369      1.0  0.18136  0.28236  0.64332  1.0000
  H   H578      1.0  0.16707  0.14321  0.53701  1.0000
  H   H579      1.0  0.29546  0.41732  0.33278  1.0000
  S   S142      1.0  0.16539  0.15079  0.49353  1.0000
  H   H580      1.0  0.16633  0.07769  0.45362  1.0000
  H   H581      1.0  0.16294  0.35171  0.58971  1.0000
  H   H582      1.0  0.19166  0.43628  0.63750  1.0000
  C   C370      1.0  0.16041  0.17354  0.54663  1.0000
  C   C371      1.0  0.16741  0.09908  0.48154  1.0000
  H   H583      1.0  0.17267  0.43478  0.64356  1.0000
  H   H584      1.0  0.25276  0.35991  0.65189  1.0000
  H   H585      1.0  0.17497  0.09219  0.32581  1.0000
  H   H586      1.0  0.15676  0.30371  0.40916  1.0000
  S   S143      1.0  0.23594  0.43202  0.65134  1.0000
  H   H587      1.0  0.17622  0.40624  0.65194  1.0000
  H   H588      1.0  0.16088  0.35618  0.65352  1.0000
  H   H589      1.0  0.15597  0.19628  0.48943  1.0000
  C   C372      1.0  0.15555  0.19514  0.54047  1.0000
  Fe  Fe73      1.0  0.20174  0.04755  0.74268  1.0000
  S   S144      1.0  0.18474  0.04852  0.76040  1.0000
  C   C373      1.0  0.20006  0.07225  0.86314  1.0000
  S   S145      1.0  0.20788  0.04882  0.77006  1.0000
  S   S146      1.0  0.18722  0.08793  0.77840  1.0000
  H   H590      1.0  0.31480  0.03691  0.89649  1.0000
  Fe  Fe74      1.0  0.19076  0.05185  0.78716  1.0000
  S   S147      1.0  0.18909  0.03325  0.82096  1.0000
  Fe  Fe75      1.0  0.18303  0.08440  0.74949  1.0000
  S   S148      1.0  0.16934  0.10935  0.73782  1.0000
  C   C374      1.0  0.24644  0.11796  0.88717  1.0000
  S   S149      1.0  0.19963  0.08295  0.72952  1.0000
  H   H591      1.0  0.19427  0.03777  0.85995  1.0000
  H   H592      1.0  0.28028  0.47380  0.85385  1.0000
  H   H593      1.0  0.18590  0.04685  0.88299  1.0000
  H   H594      1.0  0.29408  0.25332  0.88501  1.0000
  H   H595      1.0  0.22410  0.06023  0.82473  1.0000
  S   S150      1.0  0.21444  0.10566  0.75830  1.0000
  S   S151      1.0  0.25756  0.44657  0.66747  1.0000
  C   C375      1.0  0.23451  0.08228  0.80866  1.0000
  H   H596      1.0  0.19874  0.06918  0.88069  1.0000
  N   N37       1.0  0.19037  0.07209  0.85657  1.0000
  C   C376      1.0  0.31378  0.48218  0.74077  1.0000
  H   H597      1.0  0.22650  0.00381  0.80181  1.0000
  C   C377      1.0  0.22192  0.09647  0.77808  1.0000
  H   H598      1.0  0.30193  0.37018  0.89631  1.0000
  S   S152      1.0  0.23390  0.01916  0.86216  1.0000
  C   C378      1.0  0.17083  0.11826  0.71015  1.0000
  H   H599      1.0  0.26218  0.42003  0.81678  1.0000
  C   C379      1.0  0.16593  0.14586  0.67987  1.0000
  S   S153      1.0  0.20577  0.02360  0.89614  1.0000
  C   C380      1.0  0.20624  0.14108  0.71213  1.0000
  C   C381      1.0  0.17852  0.10660  0.69629  1.0000
  H   H600      1.0  0.29260  0.24269  0.91291  1.0000
  H   H601      1.0  0.18527  0.07675  0.82768  1.0000
  N   N38       1.0  0.31189  0.04886  0.92462  1.0000
  H   H602      1.0  0.18335  0.09135  0.70248  1.0000
  H   H603      1.0  0.19474  0.09235  0.82589  1.0000
  C   C382      1.0  0.23044  0.10591  0.77597  1.0000
  C   C383      1.0  0.18138  0.08869  0.86453  1.0000
  C   C384      1.0  0.21961  0.07997  0.79570  1.0000
  Fe  Fe76      1.0  0.22234  0.02902  0.89081  1.0000
  H   H604      1.0  0.20690  0.05945  0.85785  1.0000
  C   C385      1.0  0.18761  0.05079  0.86537  1.0000
  H   H605      1.0  0.31921  0.11946  0.97379  1.0000
  H   H606      1.0  0.17396  0.08887  0.85984  1.0000
  H   H607      1.0  0.17865  0.01290  0.80143  1.0000
  H   H608      1.0  0.18048  0.04987  0.86035  1.0000
  C   C386      1.0  0.22584  0.07301  0.81118  1.0000
  C   C387      1.0  0.19244  0.07660  0.83323  1.0000
  H   H609      1.0  0.21305  0.07265  0.79729  1.0000
  H   H610      1.0  0.20255  0.08787  0.85640  1.0000
  H   H611      1.0  0.31589  0.28055  0.87977  1.0000
  Fe  Fe77      1.0  0.20388  0.08424  0.75907  1.0000
  H   H612      1.0  0.19902  0.06400  0.82685  1.0000
  H   H613      1.0  0.18316  0.10498  0.85817  1.0000
  H   H614      1.0  0.25117  0.36587  0.68745  1.0000
  H   H615      1.0  0.17962  0.08569  0.88213  1.0000
  C   C388      1.0  0.23676  0.09871  0.79107  1.0000
  C   C389      1.0  0.16446  0.13780  0.70188  1.0000
  S   S154      1.0  0.21120  0.02175  0.72525  1.0000
  C   C390      1.0  0.30415  0.48590  0.82110  1.0000
  H   H616      1.0  0.18762  0.14720  0.68386  1.0000
  H   H617      1.0  0.26969  0.40247  0.65970  1.0000
  H   H618      1.0  0.31246  0.47618  0.81816  1.0000
  H   H619      1.0  0.24252  0.13507  0.88724  1.0000
  C   C391      1.0  0.30563  0.26446  0.91884  1.0000
  C   C392      1.0  0.18718  0.14449  0.72475  1.0000
  N   N39       1.0  0.19575  0.14996  0.70622  1.0000
  H   H620      1.0  0.30707  0.40138  0.91554  1.0000
  C   C393      1.0  0.17872  0.44411  0.67457  1.0000
  H   H621      1.0  0.19359  0.47075  0.93995  1.0000
  C   C394      1.0  0.19541  0.14074  0.68881  1.0000
  H   H622      1.0  0.31296  0.44232  0.71461  1.0000
  C   C395      1.0  0.27086  0.36057  0.66245  1.0000
  S   S155      1.0  0.22631  0.06143  0.88351  1.0000
  S   S156      1.0  0.20607  0.36636  0.66932  1.0000
  H   H623      1.0  0.31177  0.22587  0.90827  1.0000
  H   H624      1.0  0.25438  0.11484  0.89120  1.0000
  H   H625      1.0  0.27526  0.36326  0.67310  1.0000
  H   H626      1.0  0.17256  0.26056  0.66681  1.0000
  H   H627      1.0  0.23226  0.11862  0.76240  1.0000
  H   H628      1.0  0.26820  0.34518  0.66994  1.0000
  C   C396      1.0  0.32065  0.32535  0.86668  1.0000
  H   H629      1.0  0.24154  0.10798  0.90030  1.0000
  C   C397      1.0  0.18595  0.00777  0.82774  1.0000
  H   H630      1.0  0.18714  0.15119  0.73822  1.0000
  C   C398      1.0  0.18063  0.00191  0.81567  1.0000
  C   C399      1.0  0.17388  0.42152  0.65756  1.0000
  H   H631      1.0  0.24260  0.45863  0.80934  1.0000
  H   H632      1.0  0.29230  0.39774  0.72214  1.0000
  H   H633      1.0  0.20180  0.14435  0.67457  1.0000
  H   H634      1.0  0.20778  0.12326  0.71710  1.0000
  C   C400      1.0  0.31861  0.19237  0.95138  1.0000
  C   C401      1.0  0.31893  0.17504  0.94304  1.0000
  H   H635      1.0  0.23487  0.03196  0.75966  1.0000
  C   C402      1.0  0.18337  0.40553  0.68585  1.0000
  C   C403      1.0  0.23011  0.01714  0.80171  1.0000
  H   H636      1.0  0.17779  0.45808  0.66103  1.0000
  H   H637      1.0  0.22460  0.03245  0.79633  1.0000
  C   C404      1.0  0.20971  0.99969  0.76606  1.0000
  S   S157      1.0  0.23386  0.47096  0.68952  1.0000
  H   H638      1.0  0.22486  0.46616  0.79114  1.0000
  C   C405      1.0  0.22373  0.40330  0.67728  1.0000
  H   H639      1.0  0.22572  0.40651  0.69049  1.0000
  H   H640      1.0  0.27152  0.44166  0.78630  1.0000
  H   H641      1.0  0.29398  0.38744  0.75969  1.0000
  Fe  Fe78      1.0  0.23748  0.45028  0.72035  1.0000
  C   C406      1.0  0.21727  0.38855  0.68084  1.0000
  S   S158      1.0  0.22719  0.45299  0.75247  1.0000
  H   H642      1.0  0.21431  0.38042  0.69687  1.0000
  N   N40       1.0  0.26169  0.37864  0.65898  1.0000
  C   C407      1.0  0.22698  0.47777  0.75736  1.0000
  H   H643      1.0  0.30017  0.28002  0.92141  1.0000
  N   N41       1.0  0.31414  0.38848  0.88758  1.0000
  H   H644      1.0  0.18816  0.12683  0.73056  1.0000
  H   H645      1.0  0.24046  0.04957  0.78139  1.0000
  S   S159      1.0  0.31357  0.30035  0.93857  1.0000
  H   H646      1.0  0.24871  0.07920  0.87994  1.0000
  H   H647      1.0  0.23222  0.13268  0.86189  1.0000
  C   C408      1.0  0.31050  0.33163  0.87903  1.0000
  S   S160      1.0  0.25168  0.03571  0.87592  1.0000
  H   H648      1.0  0.30107  0.02779  0.94134  1.0000
  S   S161      1.0  0.29379  0.09034  0.96406  1.0000
  Fe  Fe79      1.0  0.28988  0.15171  0.94181  1.0000
  S   S162      1.0  0.29925  0.12810  0.92172  1.0000
  S   S163      1.0  0.28938  0.18717  0.93213  1.0000
  Fe  Fe80      1.0  0.28607  0.11007  0.93710  1.0000
  S   S164      1.0  0.28337  0.09220  0.91538  1.0000
  Fe  Fe81      1.0  0.30636  0.10983  0.94967  1.0000
  S   S165      1.0  0.27586  0.13565  0.95484  1.0000
  H   H649      1.0  0.19007  0.40557  0.69275  1.0000
  H   H650      1.0  0.24553  0.09025  0.94681  1.0000
  H   H651      1.0  0.15688  0.24494  0.67426  1.0000
  H   H652      1.0  0.26174  0.12497  0.85215  1.0000
  N   N42       1.0  0.24747  0.11276  0.86658  1.0000
  H   H653      1.0  0.19645  0.12297  0.69364  1.0000
  C   C409      1.0  0.25251  0.06979  0.92434  1.0000
  C   C410      1.0  0.26189  0.06170  0.91082  1.0000
  C   C411      1.0  0.27132  0.06853  0.90847  1.0000
  C   C412      1.0  0.27152  0.08308  0.91999  1.0000
  C   C413      1.0  0.26225  0.09060  0.93411  1.0000
  C   C414      1.0  0.25276  0.08402  0.93621  1.0000
  H   H654      1.0  0.26185  0.05042  0.90193  1.0000
  H   H655      1.0  0.27848  0.06255  0.89760  1.0000
  H   H656      1.0  0.26233  0.10180  0.94309  1.0000
  H   H657      1.0  0.21290  0.14520  0.69868  1.0000
  H   H658      1.0  0.25395  0.08551  0.85194  1.0000
  H   H659      1.0  0.23722  0.11150  0.84739  1.0000
  C   C415      1.0  0.27614  0.48548  0.66955  1.0000
  H   H660      1.0  0.30689  0.49431  0.73708  1.0000
  C   C416      1.0  0.31132  0.07139  0.91290  1.0000
  H   H661      1.0  0.30592  0.45584  0.74732  1.0000
  N   N43       1.0  0.30537  0.25967  0.89880  1.0000
  H   H662      1.0  0.30955  0.42287  0.87843  1.0000
  C   C417      1.0  0.31004  0.17394  0.93649  1.0000
  C   C418      1.0  0.30071  0.18989  0.93871  1.0000
  C   C419      1.0  0.30033  0.20722  0.94719  1.0000
  C   C420      1.0  0.30933  0.20851  0.95346  1.0000
  H   H663      1.0  0.31037  0.16048  0.93001  1.0000
  H   H664      1.0  0.29300  0.21922  0.94952  1.0000
  H   H665      1.0  0.30898  0.22162  0.96042  1.0000
  C   C421      1.0  0.30845  0.32380  0.90107  1.0000
  H   H666      1.0  0.31749  0.02828  0.95204  1.0000
  H   H667      1.0  0.29488  0.46319  0.80676  1.0000
  N   N44       1.0  0.24091  0.01576  0.78782  1.0000
  H   H668      1.0  0.31898  0.01724  0.91867  1.0000
  Fe  Fe82      1.0  0.25079  0.47474  0.68273  1.0000
  H   H669      1.0  0.23192  0.10535  0.87538  1.0000
  C   C422      1.0  0.23673  0.11578  0.86260  1.0000
  H   H670      1.0  0.25576  0.46113  0.80841  1.0000
  H   H671      1.0  0.18713  0.46795  0.96754  1.0000
  H   H672      1.0  0.29584  0.05537  0.94309  1.0000
  H   H673      1.0  0.20018  0.47414  0.95843  1.0000
  S   S166      1.0  0.24018  0.06395  0.92545  1.0000
  H   H674      1.0  0.29693  0.04756  0.91912  1.0000
  S   S167      1.0  0.29809  0.13496  0.96858  1.0000
  C   C423      1.0  0.25360  0.12692  0.84950  1.0000
  C   C424      1.0  0.17372  0.13431  0.66601  1.0000
  S   S168      1.0  0.24311  0.07336  0.82642  1.0000
  C   C425      1.0  0.24535  0.03384  0.78795  1.0000
  C   C426      1.0  0.30099  0.04461  0.93239  1.0000
  H   H675      1.0  0.26130  0.08722  0.86993  1.0000
  C   C427      1.0  0.25313  0.09020  0.86708  1.0000
  H   H676      1.0  0.24023  0.43582  0.78728  1.0000
  H   H677      1.0  0.30808  0.46376  0.79082  1.0000
  H   H678      1.0  0.20205  0.01044  0.76948  1.0000
  H   H679      1.0  0.23030  0.01636  0.81834  1.0000
  H   H680      1.0  0.32161  0.24162  0.89448  1.0000
  H   H681      1.0  0.18593  0.10549  0.66364  1.0000
  H   H682      1.0  0.17598  0.40598  0.69855  1.0000
  H   H683      1.0  0.31225  0.05587  0.95377  1.0000
  S   S169      1.0  0.24493  0.46705  0.85158  1.0000
  C   C428      1.0  0.29985  0.47367  0.79447  1.0000
  H   H684      1.0  0.30645  0.08266  0.92320  1.0000
  H   H685      1.0  0.25364  0.03285  0.77823  1.0000
  H   H686      1.0  0.26972  0.42575  0.77048  1.0000
  H   H687      1.0  0.28833  0.27103  0.90316  1.0000
  H   H688      1.0  0.30749  0.07499  0.89919  1.0000
  C   C429      1.0  0.24021  0.01676  0.76600  1.0000
  C   C430      1.0  0.31611  0.40927  0.87393  1.0000
  H   H689      1.0  0.24346  0.10586  0.78902  1.0000
  H   H690      1.0  0.16602  0.42150  0.66887  1.0000
  H   H691      1.0  0.31115  0.43214  0.69414  1.0000
  C   C431      1.0  0.30387  0.38540  0.88580  1.0000
  Fe  Fe83      1.0  0.23871  0.04534  0.90308  1.0000
  C   C432      1.0  0.19413  0.17356  0.69916  1.0000
  H   H692      1.0  0.25458  0.12319  0.83381  1.0000
  H   H693      1.0  0.20669  0.14712  0.72569  1.0000
  C   C433      1.0  0.22756  0.41387  0.65664  1.0000
  H   H694      1.0  0.24954  0.14412  0.84855  1.0000
  H   H695      1.0  0.30059  0.32877  0.91058  1.0000
  C   C434      1.0  0.29463  0.25658  0.90001  1.0000
  Fe  Fe84      1.0  0.23896  0.05000  0.85697  1.0000
  H   H696      1.0  0.30424  0.34249  0.87161  1.0000
  H   H697      1.0  0.19175  0.99939  0.89187  1.0000
  H   H698      1.0  0.24821  0.01571  0.75504  1.0000
  Fe  Fe85      1.0  0.25917  0.42751  0.69988  1.0000
  S   S170      1.0  0.27452  0.40352  0.70311  1.0000
  S   S171      1.0  0.25390  0.45626  0.71444  1.0000
  H   H699      1.0  0.26101  0.48760  0.85390  1.0000
  S   S172      1.0  0.27856  0.37686  0.79877  1.0000
  Fe  Fe86      1.0  0.29309  0.38328  0.80457  1.0000
  S   S173      1.0  0.31005  0.36870  0.79099  1.0000
  Fe  Fe87      1.0  0.29959  0.40881  0.82795  1.0000
  C   C435      1.0  0.31649  0.30956  0.91089  1.0000
  S   S174      1.0  0.29430  0.43323  0.84809  1.0000
  Fe  Fe88      1.0  0.31267  0.40211  0.78504  1.0000
  Fe  Fe89      1.0  0.31276  0.36463  0.82360  1.0000
  S   S175      1.0  0.29549  0.41700  0.79616  1.0000
  S   S176      1.0  0.29551  0.37640  0.83776  1.0000
  H   H700      1.0  0.24741  0.45136  0.76428  1.0000
  N   N45       1.0  0.18207  0.42360  0.66746  1.0000
  H   H701      1.0  0.30758  0.46055  0.69295  1.0000
  H   H702      1.0  0.32125  0.39061  0.91181  1.0000
  C   C436      1.0  0.25846  0.45737  0.85247  1.0000
  C   C437      1.0  0.26320  0.43593  0.85172  1.0000
  C   C438      1.0  0.27423  0.42848  0.85035  1.0000
  C   C439      1.0  0.28042  0.44216  0.85095  1.0000
  C   C440      1.0  0.27558  0.46330  0.85287  1.0000
  C   C441      1.0  0.26466  0.47108  0.85303  1.0000
  H   H703      1.0  0.25836  0.42517  0.85187  1.0000
  H   H704      1.0  0.27787  0.41205  0.84915  1.0000
  H   H705      1.0  0.30197  0.29301  0.88324  1.0000
  S   S177      1.0  0.18041  0.29820  0.66102  1.0000
  C   C442      1.0  0.27577  0.39567  0.72962  1.0000
  C   C443      1.0  0.28553  0.39408  0.73464  1.0000
  C   C444      1.0  0.28649  0.38819  0.75586  1.0000
  C   C445      1.0  0.27780  0.38311  0.77203  1.0000
  C   C446      1.0  0.26813  0.38419  0.76692  1.0000
  C   C447      1.0  0.26704  0.39092  0.74581  1.0000
  S   S178      1.0  0.23341  0.01395  0.91310  1.0000
  H   H706      1.0  0.26141  0.38008  0.77934  1.0000
  H   H707      1.0  0.25950  0.39199  0.74202  1.0000
  N   N46       1.0  0.25527  0.43927  0.79046  1.0000
  C   C448      1.0  0.31838  0.03440  0.91035  1.0000
  C   C449      1.0  0.19227  0.47726  0.95427  1.0000
  H   H708      1.0  0.24828  0.42039  0.82000  1.0000
  H   H709      1.0  0.24974  0.47358  0.78587  1.0000
  H   H710      1.0  0.26573  0.45437  0.76345  1.0000
  H   H711      1.0  0.25834  0.40516  0.80275  1.0000
  Fe  Fe90      1.0  0.24090  0.44065  0.67710  1.0000
  H   H712      1.0  0.26977  0.99783  0.80968  1.0000
  C   C450      1.0  0.30784  0.27777  0.88108  1.0000
  C   C451      1.0  0.31320  0.46041  0.74681  1.0000
  C   C452      1.0  0.25603  0.42044  0.80829  1.0000
  S   S179      1.0  0.24301  0.41950  0.70877  1.0000
  C   C453      1.0  0.26604  0.44039  0.77707  1.0000
  Fe  Fe91      1.0  0.28482  0.11724  0.98049  1.0000
  C   C454      1.0  0.20534  0.99623  0.90484  1.0000
  C   C455      1.0  0.22608  0.47963  0.77805  1.0000
  H   H713      1.0  0.25170  0.42279  0.77062  1.0000
  C   C456      1.0  0.25066  0.45904  0.79882  1.0000
  H   H714      1.0  0.27332  0.47076  0.67339  1.0000
  H   H715      1.0  0.26025  0.00286  0.84591  1.0000
  C   C457      1.0  0.31690  0.04509  0.94276  1.0000
  H   H716      1.0  0.20042  0.17827  0.68509  1.0000
  C   C458      1.0  0.24836  0.43724  0.77763  1.0000
  H   H717      1.0  0.17094  0.44507  0.68624  1.0000
  H   H718      1.0  0.29245  0.46927  0.67052  1.0000
  H   H719      1.0  0.18524  0.38979  0.68126  1.0000
  H   H720      1.0  0.24563  0.03409  0.80429  1.0000
  H   H721      1.0  0.24727  0.39413  0.67740  1.0000
  C   C459      1.0  0.17994  0.11458  0.67429  1.0000
  H   H722      1.0  0.32115  0.48140  0.68440  1.0000
  H   H723      1.0  0.31936  0.07536  0.90706  1.0000
  H   H724      1.0  0.30774  0.27483  0.86563  1.0000
  H   H725      1.0  0.19437  0.18106  0.71189  1.0000
  C   C460      1.0  0.31363  0.38836  0.90984  1.0000
  H   H726      1.0  0.29924  0.47584  0.83406  1.0000
  Fe  Fe92      1.0  0.24526  0.00588  0.88400  1.0000
  H   H727      1.0  0.31379  0.26556  0.91903  1.0000
  H   H728      1.0  0.23690  0.00334  0.76533  1.0000
  C   C461      1.0  0.31356  0.44558  0.69727  1.0000
  S   S180      1.0  0.18139  0.35604  0.66121  1.0000
  H   H729      1.0  0.32193  0.35507  0.89127  1.0000
  H   H730      1.0  0.19259  0.99789  0.85557  1.0000
  C   C462      1.0  0.21547  0.00052  0.74517  1.0000
  H   H731      1.0  0.17914  0.15057  0.72083  1.0000
  H   H732      1.0  0.29712  0.39879  0.89010  1.0000
  C   C463      1.0  0.31342  0.23989  0.89527  1.0000
  H   H733      1.0  0.18472  0.44600  0.68227  1.0000
  H   H734      1.0  0.18626  0.18067  0.69465  1.0000
  S   S181      1.0  0.31706  0.39678  0.81622  1.0000
  H   H735      1.0  0.30315  0.25189  0.93273  1.0000
  H   H736      1.0  0.30409  0.38488  0.86931  1.0000
  H   H737      1.0  0.22895  0.49413  0.72457  1.0000
  H   H738      1.0  0.15841  0.14678  0.71253  1.0000
  C   C464      1.0  0.25429  0.38068  0.67952  1.0000
  H   H739      1.0  0.31346  0.23584  0.88024  1.0000
  H   H740      1.0  0.25830  0.38386  0.69053  1.0000
  S   S182      1.0  0.31720  0.24773  0.97999  1.0000
  H   H741      1.0  0.16101  0.16096  0.67364  1.0000
  H   H742      1.0  0.19870  0.42507  0.65867  1.0000
  C   C465      1.0  0.28696  0.48465  0.66800  1.0000
  C   C466      1.0  0.21454  0.38436  0.66386  1.0000
  H   H743      1.0  0.31213  0.37283  0.92052  1.0000
  H   H744      1.0  0.29659  0.47828  0.77993  1.0000
  H   H745      1.0  0.31654  0.40978  0.85704  1.0000
  N   N47       1.0  0.29982  0.49279  0.80173  1.0000
  H   H746      1.0  0.26473  0.49393  0.73002  1.0000
  C   C467      1.0  0.22834  0.49539  0.74056  1.0000
  H   H747      1.0  0.17125  0.49560  0.95818  1.0000
  H   H748      1.0  0.28337  0.49567  0.81852  1.0000
  H   H749      1.0  0.31936  0.46472  0.65654  1.0000
  H   H750      1.0  0.19844  0.63845  0.02509  1.0000
  Fe  Fe93      1.0  0.19422  0.60740  0.09936  1.0000
  S   S183      1.0  0.18667  0.59862  0.13389  1.0000
  S   S184      1.0  0.19729  0.58675  0.07586  1.0000
  S   S185      1.0  0.19041  0.64443  0.13767  1.0000
  Fe  Fe94      1.0  0.19979  0.61059  0.13917  1.0000
  S   S186      1.0  0.20746  0.59143  0.16661  1.0000
  Fe  Fe95      1.0  0.17802  0.63310  0.12952  1.0000
  H   H751      1.0  0.19827  0.96728  0.23085  1.0000
  S   S187      1.0  0.20816  0.61647  0.10484  1.0000
  S   S188      1.0  0.18433  0.64090  0.09454  1.0000
  H   H752      1.0  0.28928  0.54396  0.19452  1.0000
  H   H753      1.0  0.23336  0.55579  0.14280  1.0000
  H   H754      1.0  0.19399  0.97549  0.18654  1.0000
  H   H755      1.0  0.28324  0.95737  0.26287  1.0000
  H   H756      1.0  0.16401  0.61224  0.12186  1.0000
  C   C468      1.0  0.21907  0.62112  0.16411  1.0000
  H   H757      1.0  0.21590  0.57733  0.20383  1.0000
  H   H758      1.0  0.21643  0.62982  0.14966  1.0000
  C   C469      1.0  0.17006  0.59482  0.04356  1.0000
  C   C470      1.0  0.16818  0.60416  0.06094  1.0000
  C   C471      1.0  0.17641  0.60116  0.07148  1.0000
  C   C472      1.0  0.18652  0.58883  0.06462  1.0000
  C   C473      1.0  0.18830  0.57913  0.04753  1.0000
  C   C474      1.0  0.18009  0.58211  0.03701  1.0000
  H   H759      1.0  0.17454  0.83920  0.01472  1.0000
  H   H760      1.0  0.17495  0.60850  0.08479  1.0000
  H   H761      1.0  0.19611  0.56955  0.04222  1.0000
  C   C475      1.0  0.22655  0.62788  0.17066  1.0000
  H   H762      1.0  0.18159  0.57481  0.02365  1.0000
  C   C476      1.0  0.26419  0.92310  0.24889  1.0000
  H   H763      1.0  0.22959  0.64191  0.16129  1.0000
  H   H764      1.0  0.15894  0.66375  0.09529  1.0000
  C   C477      1.0  0.23041  0.61608  0.18883  1.0000
  H   H765      1.0  0.22908  0.58923  0.21525  1.0000
  H   H766      1.0  0.28169  0.51957  0.27643  1.0000
  H   H767      1.0  0.29597  0.51324  0.23449  1.0000
  H   H768      1.0  0.24094  0.57595  0.12822  1.0000
  C   C478      1.0  0.21885  0.59147  0.19454  1.0000
  S   S189      1.0  0.16009  0.60058  0.02912  1.0000
  C   C479      1.0  0.22640  0.59806  0.20092  1.0000
  C   C480      1.0  0.16928  0.84034  0.00397  1.0000
  C   C481      1.0  0.26585  0.49917  0.23101  1.0000
  C   C482      1.0  0.21535  0.60267  0.17591  1.0000
  Fe  Fe96      1.0  0.19756  0.64937  0.10289  1.0000
  S   S190      1.0  0.27222  0.86943  0.31306  1.0000
  N   N48       1.0  0.16324  0.69376  0.17036  1.0000
  H   H769      1.0  0.16163  0.79353  0.02804  1.0000
  C   C483      1.0  0.27481  0.96258  0.26931  1.0000
  H   H770      1.0  0.29211  0.51095  0.18231  1.0000
  C   C484      1.0  0.26973  0.95027  0.28782  1.0000
  C   C485      1.0  0.23751  0.56754  0.14440  1.0000
  H   H771      1.0  0.23125  0.57977  0.15193  1.0000
  C   C486      1.0  0.27467  0.91388  0.21582  1.0000
  H   H772      1.0  0.20376  0.79399  0.12330  1.0000
  Fe  Fe97      1.0  0.20341  0.90569  0.20389  1.0000
  S   S191      1.0  0.18625  0.91199  0.20189  1.0000
  S   S192      1.0  0.21487  0.92043  0.17613  1.0000
  Fe  Fe98      1.0  0.19919  0.88528  0.25088  1.0000
  Fe  Fe99      1.0  0.18673  0.87834  0.22164  1.0000
  S   S193      1.0  0.17926  0.85195  0.21897  1.0000
  H   H773      1.0  0.19968  0.80200  0.17788  1.0000
  S   S194      1.0  0.20434  0.87135  0.22171  1.0000
  S   S195      1.0  0.19996  0.91870  0.23290  1.0000
  Fe  Fe100     1.0  0.17007  0.76546  0.13823  1.0000
  Fe  Fe101     1.0  0.25629  0.87153  0.30670  1.0000
  S   S196      1.0  0.18497  0.74336  0.14679  1.0000
  H   H774      1.0  0.20761  0.97543  0.17246  1.0000
  Fe  Fe102     1.0  0.30607  0.58165  0.31884  1.0000
  S   S197      1.0  0.16940  0.79916  0.11979  1.0000
  N   N49       1.0  0.30163  0.51587  0.20094  1.0000
  C   C487      1.0  0.19797  0.69854  0.10080  1.0000
  C   C488      1.0  0.23266  0.86716  0.29804  1.0000
  H   H775      1.0  0.23073  0.97393  0.27119  1.0000
  C   C489      1.0  0.21316  0.95708  0.28402  1.0000
  N   N50       1.0  0.19364  0.79570  0.15415  1.0000
  C   C490      1.0  0.22977  0.94314  0.17308  1.0000
  H   H776      1.0  0.25070  0.52890  0.14392  1.0000
  H   H777      1.0  0.16353  0.69979  0.08122  1.0000
  C   C491      1.0  0.19297  0.62591  0.99552  1.0000
  C   C492      1.0  0.17323  0.84806  0.20008  1.0000
  C   C493      1.0  0.17032  0.82832  0.20342  1.0000
  C   C494      1.0  0.16493  0.82477  0.18973  1.0000
  C   C495      1.0  0.17584  0.64863  0.00647  1.0000
  C   C496      1.0  0.16512  0.86083  0.16926  1.0000
  C   C497      1.0  0.17068  0.86427  0.18274  1.0000
  H   H778      1.0  0.17211  0.81575  0.21692  1.0000
  H   H779      1.0  0.16040  0.61383  0.06619  1.0000
  H   H780      1.0  0.30554  0.51254  0.16861  1.0000
  H   H781      1.0  0.17285  0.87955  0.17987  1.0000
  C   C498      1.0  0.22621  0.94621  0.25386  1.0000
  H   H782      1.0  0.22766  0.95235  0.15828  1.0000
  C   C499      1.0  0.22761  0.91421  0.20390  1.0000
  C   C500      1.0  0.22482  0.92615  0.18485  1.0000
  H   H783      1.0  0.24786  0.59047  0.31486  1.0000
  H   H784      1.0  0.23458  0.93812  0.24779  1.0000
  H   H785      1.0  0.22388  0.90095  0.21290  1.0000
  S   S198      1.0  0.16095  0.64641  0.14354  1.0000
  H   H786      1.0  0.20862  0.80322  0.15235  1.0000
  H   H787      1.0  0.18349  0.92658  0.27238  1.0000
  C   C501      1.0  0.20002  0.69181  0.12118  1.0000
  C   C502      1.0  0.19638  0.70593  0.13506  1.0000
  C   C503      1.0  0.19048  0.72662  0.12869  1.0000
  C   C504      1.0  0.18851  0.73344  0.10825  1.0000
  C   C505      1.0  0.19236  0.71947  0.09422  1.0000
  H   H788      1.0  0.19795  0.70064  0.15083  1.0000
  H   H789      1.0  0.18406  0.74950  0.10319  1.0000
  H   H790      1.0  0.19078  0.72469  0.07847  1.0000
  C   C506      1.0  0.22605  0.92342  0.28854  1.0000
  H   H791      1.0  0.29109  0.91522  0.23052  1.0000
  H   H792      1.0  0.31383  0.52815  0.29509  1.0000
  H   H793      1.0  0.31808  0.51734  0.18711  1.0000
  H   H794      1.0  0.16303  0.87360  0.15613  1.0000
  C   C507      1.0  0.27696  0.88935  0.24893  1.0000
  H   H795      1.0  0.25806  0.54956  0.13013  1.0000
  H   H796      1.0  0.29839  0.54697  0.20826  1.0000
  C   C508      1.0  0.23550  0.91889  0.21095  1.0000
  C   C509      1.0  0.28307  0.92255  0.23901  1.0000
  N   N51       1.0  0.22429  0.94593  0.27662  1.0000
  S   S199      1.0  0.23822  0.99555  0.22049  1.0000
  H   H797      1.0  0.28659  0.51062  0.22112  1.0000
  H   H798      1.0  0.21957  0.98783  0.18696  1.0000
  N   N52       1.0  0.26318  0.59748  0.31129  1.0000
  C   C510      1.0  0.25814  0.98869  0.26753  1.0000
  S   S200      1.0  0.25013  0.94167  0.20867  1.0000
  H   H799      1.0  0.26410  0.92265  0.26558  1.0000
  C   C511      1.0  0.25302  0.60165  0.30448  1.0000
  C   C512      1.0  0.20228  0.97322  0.18851  1.0000
  C   C513      1.0  0.29519  0.50680  0.22150  1.0000
  H   H800      1.0  0.24839  0.61834  0.30476  1.0000
  H   H801      1.0  0.20728  0.94932  0.28163  1.0000
  C   C514      1.0  0.17274  0.98017  0.26514  1.0000
  S   S201      1.0  0.20183  0.68050  0.08397  1.0000
  H   H802      1.0  0.21712  0.96752  0.21047  1.0000
  H   H803      1.0  0.31842  0.56178  0.27572  1.0000
  H   H804      1.0  0.31407  0.51703  0.21498  1.0000
  C   C515      1.0  0.24497  0.50036  0.29020  1.0000
  C   C516      1.0  0.24085  0.54575  0.17812  1.0000
  H   H805      1.0  0.18943  0.76666  0.17459  1.0000
  H   H806      1.0  0.20176  0.76848  0.14002  1.0000
  H   H807      1.0  0.20670  0.77764  0.16901  1.0000
  C   C517      1.0  0.18583  0.78405  0.16987  1.0000
  H   H808      1.0  0.17881  0.78516  0.16340  1.0000
  H   H809      1.0  0.19129  0.78618  0.12796  1.0000
  C   C518      1.0  0.19782  0.78571  0.13553  1.0000
  C   C519      1.0  0.20256  0.79458  0.16376  1.0000
  H   H810      1.0  0.18282  0.79059  0.18447  1.0000
  H   H811      1.0  0.26584  0.62925  0.29632  1.0000
  C   C520      1.0  0.18836  0.81841  0.14749  1.0000
  H   H812      1.0  0.18124  0.81986  0.14114  1.0000
  H   H813      1.0  0.18555  0.82665  0.16100  1.0000
  H   H814      1.0  0.16795  0.82397  0.00619  1.0000
  H   H815      1.0  0.19387  0.82751  0.13497  1.0000
  Fe  Fe103     1.0  0.18289  0.92243  0.23262  1.0000
  S   S202      1.0  0.18297  0.97158  0.31935  1.0000
  C   C521      1.0  0.23744  0.94828  0.18048  1.0000
  C   C522      1.0  0.23178  0.95689  0.28001  1.0000
  S   S203      1.0  0.18169  0.88966  0.25247  1.0000
  S   S204      1.0  0.20450  0.87537  0.28197  1.0000
  C   C523      1.0  0.25887  0.95722  0.29626  1.0000
  H   H816      1.0  0.22028  0.91489  0.28698  1.0000
  H   H817      1.0  0.23531  0.86474  0.31246  1.0000
  H   H818      1.0  0.28497  0.88070  0.24173  1.0000
  C   C524      1.0  0.15561  0.78566  0.03920  1.0000
  H   H819      1.0  0.27182  0.60976  0.28014  1.0000
  H   H820      1.0  0.20452  0.67576  0.12617  1.0000
  C   C525      1.0  0.21824  0.87227  0.28030  1.0000
  H   H821      1.0  0.29201  0.51608  0.29024  1.0000
  S   S205      1.0  0.17254  0.95373  0.23991  1.0000
  C   C526      1.0  0.22182  0.86914  0.29885  1.0000
  H   H822      1.0  0.27763  0.60951  0.30139  1.0000
  C   C527      1.0  0.18121  0.94277  0.27497  1.0000
  H   H823      1.0  0.22291  0.87525  0.24653  1.0000
  H   H824      1.0  0.26090  0.51302  0.23703  1.0000
  H   H825      1.0  0.23056  0.95692  0.29707  1.0000
  H   H826      1.0  0.24477  0.98228  0.29308  1.0000
  C   C528      1.0  0.22560  0.87311  0.26088  1.0000
  C   C529      1.0  0.17567  0.95928  0.26145  1.0000
  C   C530      1.0  0.26896  0.98156  0.25891  1.0000
  H   H827      1.0  0.16145  0.70778  0.19675  1.0000
  H   H828      1.0  0.25495  0.94789  0.31071  1.0000
  H   H829      1.0  0.24457  0.58551  0.16783  1.0000
  Fe  Fe104     1.0  0.25092  0.97637  0.19962  1.0000
  H   H830      1.0  0.21142  0.95707  0.30118  1.0000
  H   H831      1.0  0.20472  0.95619  0.19657  1.0000
  C   C531      1.0  0.28698  0.50744  0.28633  1.0000
  C   C532      1.0  0.24038  0.93599  0.19931  1.0000
  H   H832      1.0  0.22528  0.92239  0.30568  1.0000
  H   H833      1.0  0.25774  0.91533  0.24900  1.0000
  S   S206      1.0  0.16028  0.75774  0.12031  1.0000
  H   H834      1.0  0.23783  0.90924  0.22542  1.0000
  H   H835      1.0  0.24223  0.87076  0.24514  1.0000
  H   H836      1.0  0.18726  0.67884  0.99675  1.0000
  C   C533      1.0  0.24007  0.86763  0.27872  1.0000
  H   H837      1.0  0.16195  0.91801  0.22482  1.0000
  H   H838      1.0  0.22088  0.93760  0.25077  1.0000
  H   H839      1.0  0.25445  0.59934  0.28806  1.0000
  H   H840      1.0  0.19011  0.61135  0.00561  1.0000
  C   C534      1.0  0.31530  0.51151  0.29454  1.0000
  C   C535      1.0  0.23653  0.87053  0.26013  1.0000
  H   H841      1.0  0.16646  0.89425  0.21414  1.0000
  H   H842      1.0  0.26835  0.90647  0.21463  1.0000
  C   C536      1.0  0.16286  0.71211  0.17918  1.0000
  H   H843      1.0  0.24128  0.96133  0.17130  1.0000
  H   H844      1.0  0.26893  0.52515  0.30932  1.0000
  Fe  Fe105     1.0  0.25682  0.56577  0.25307  1.0000
  S   S207      1.0  0.25906  0.59943  0.23839  1.0000
  S   S208      1.0  0.25268  0.55582  0.28849  1.0000
  Fe  Fe106     1.0  0.26466  0.55176  0.21140  1.0000
  S   S209      1.0  0.26768  0.58392  0.19345  1.0000
  S   S210      1.0  0.26921  0.52650  0.19242  1.0000
  Fe  Fe107     1.0  0.27461  0.58326  0.22044  1.0000
  S   S211      1.0  0.29067  0.59143  0.21337  1.0000
  C   C537      1.0  0.18049  0.96766  0.29634  1.0000
  C   C538      1.0  0.29781  0.53944  0.19583  1.0000
  S   S212      1.0  0.27292  0.54986  0.23688  1.0000
  H   H845      1.0  0.21158  0.97417  0.27545  1.0000
  H   H846      1.0  0.31178  0.51850  0.26364  1.0000
  S   S213      1.0  0.30802  0.60398  0.28683  1.0000
  C   C539      1.0  0.25312  0.97665  0.28631  1.0000
  Fe  Fe108     1.0  0.16531  0.58618  0.00026  1.0000
  H   H847      1.0  0.26211  0.94029  0.24083  1.0000
  H   H848      1.0  0.28354  0.92095  0.25565  1.0000
  H   H849      1.0  0.27649  0.57119  0.31641  1.0000
  S   S214      1.0  0.24824  0.56413  0.22922  1.0000
  H   H850      1.0  0.16257  0.80965  0.19281  1.0000
  H   H851      1.0  0.28138  0.94003  0.23166  1.0000
  C   C540      1.0  0.26991  0.61214  0.29665  1.0000
  H   H852      1.0  0.26045  0.53329  0.15523  1.0000
  N   N53       1.0  0.24577  0.55711  0.15700  1.0000
  H   H853      1.0  0.15736  0.89600  0.26093  1.0000
  H   H854      1.0  0.15795  0.71293  0.14225  1.0000
  N   N54       1.0  0.27473  0.91222  0.23815  1.0000
  H   H855      1.0  0.28245  0.90566  0.20728  1.0000
  C   C541      1.0  0.29494  0.59486  0.23448  1.0000
  C   C542      1.0  0.30247  0.60750  0.22991  1.0000
  C   C543      1.0  0.30620  0.61048  0.24620  1.0000
  C   C544      1.0  0.30267  0.60034  0.26718  1.0000
  C   C545      1.0  0.29527  0.58730  0.27182  1.0000
  C   C546      1.0  0.29129  0.58476  0.25549  1.0000
  H   H856      1.0  0.30531  0.61534  0.21370  1.0000
  H   H857      1.0  0.21624  0.86805  0.31393  1.0000
  H   H858      1.0  0.29250  0.57945  0.28794  1.0000
  H   H859      1.0  0.28553  0.57485  0.25905  1.0000
  C   C547      1.0  0.17525  0.98442  0.28243  1.0000
  C   C548      1.0  0.25412  0.54153  0.14605  1.0000
  S   S215      1.0  0.27692  0.92577  0.29979  1.0000
  H   H860      1.0  0.23418  0.91424  0.28253  1.0000
  Fe  Fe109     1.0  0.25178  0.59663  0.21297  1.0000
  H   H861      1.0  0.25435  0.58264  0.14391  1.0000
  H   H862      1.0  0.24688  0.53763  0.18802  1.0000
  H   H863      1.0  0.23699  0.53337  0.17691  1.0000
  C   C549      1.0  0.25063  0.57357  0.15948  1.0000
  S   S216      1.0  0.17286  0.55197  0.99785  1.0000
  H   H864      1.0  0.23460  0.55704  0.18689  1.0000
  H   H865      1.0  0.24834  0.52837  0.26645  1.0000
  C   C550      1.0  0.31418  0.50598  0.27668  1.0000
  H   H866      1.0  0.24025  0.94888  0.27465  1.0000
  H   H867      1.0  0.27096  0.88099  0.24796  1.0000
  H   H868      1.0  0.31189  0.62061  0.24247  1.0000
  H   H869      1.0  0.27303  0.93095  0.20716  1.0000
  H   H870      1.0  0.27664  0.88749  0.26602  1.0000
  C   C551      1.0  0.16225  0.84104  0.17258  1.0000
  S   S217      1.0  0.26429  0.98794  0.20407  1.0000
  H   H871      1.0  0.20176  0.62248  0.99412  1.0000
  H   H872      1.0  0.17257  0.63487  0.01739  1.0000
  S   S218      1.0  0.25371  0.86488  0.27770  1.0000
  C   C552      1.0  0.15554  0.61867  0.12658  1.0000
  C   C553      1.0  0.24747  0.52072  0.28302  1.0000
  H   H873      1.0  0.16635  0.87751  0.01560  1.0000
  S   S219      1.0  0.24064  0.62336  0.19550  1.0000
  C   C554      1.0  0.24879  0.53111  0.29732  1.0000
  H   H874      1.0  0.25691  0.56624  0.16890  1.0000
  H   H875      1.0  0.17146  0.66337  0.01251  1.0000
  C   C555      1.0  0.19591  0.98405  0.22201  1.0000
  C   C556      1.0  0.15562  0.70627  0.07675  1.0000
  C   C557      1.0  0.18353  0.94693  0.29236  1.0000
  C   C558      1.0  0.19141  0.66403  0.99061  1.0000
  C   C559      1.0  0.18971  0.64158  0.02577  1.0000
  H   H876      1.0  0.26395  0.56355  0.32196  1.0000
  H   H877      1.0  0.16215  0.87227  0.25021  1.0000
  S   S220      1.0  0.25064  0.90629  0.30719  1.0000
  N   N55       1.0  0.18749  0.64504  0.00459  1.0000
  C   C560      1.0  0.21411  0.98445  0.20276  1.0000
  H   H878      1.0  0.27068  0.57168  0.29496  1.0000
  C   C561      1.0  0.16488  0.70050  0.14707  1.0000
  H   H879      1.0  0.18681  0.62747  0.03672  1.0000
  C   C562      1.0  0.30052  0.50660  0.18422  1.0000
  H   H880      1.0  0.16599  0.68668  0.13978  1.0000
  H   H881      1.0  0.17216  0.70733  0.14005  1.0000
  H   H882      1.0  0.17049  0.71776  0.17315  1.0000
  H   H883      1.0  0.30252  0.54697  0.18053  1.0000
  H   H884      1.0  0.22491  0.96286  0.24424  1.0000
  S   S221      1.0  0.15963  0.80186  0.06895  1.0000
  C   C563      1.0  0.31297  0.51059  0.20226  1.0000
  N   N56       1.0  0.20295  0.98805  0.20074  1.0000
  C   C564      1.0  0.15931  0.90676  0.21869  1.0000
  Fe  Fe110     1.0  0.26586  0.90340  0.31642  1.0000
  H   H885      1.0  0.18575  0.65569  0.03312  1.0000
  C   C565      1.0  0.24757  0.52116  0.31880  1.0000
  C   C566      1.0  0.27051  0.50123  0.20942  1.0000
  C   C567      1.0  0.26886  0.57499  0.31108  1.0000
  C   C568      1.0  0.27397  0.51172  0.31862  1.0000
  H   H886      1.0  0.17233  0.66155  0.17030  1.0000
  H   H887      1.0  0.17145  0.67096  0.19342  1.0000
  C   C569      1.0  0.17216  0.67595  0.17600  1.0000
  H   H888      1.0  0.18002  0.68056  0.16875  1.0000
  H   H889      1.0  0.21489  0.99526  0.21207  1.0000
  H   H890      1.0  0.19609  0.99508  0.23169  1.0000
  H   H891      1.0  0.20253  0.90420  0.31419  1.0000
  C   C570      1.0  0.16124  0.87742  0.00504  1.0000
  H   H892      1.0  0.18744  0.98642  0.22099  1.0000
  H   H893      1.0  0.18764  0.93393  0.30277  1.0000
  H   H894      1.0  0.17392  0.65056  0.99088  1.0000
  H   H895      1.0  0.26823  0.49751  0.29038  1.0000
  Fe  Fe111     1.0  0.15803  0.79255  0.10440  1.0000
  H   H896      1.0  0.29443  0.92046  0.32094  1.0000
  H   H897      1.0  0.16846  0.99305  0.25473  1.0000
  N   N57       1.0  0.15906  0.85589  0.00850  1.0000
  H   H898      1.0  0.15856  0.84771  0.04202  1.0000
  H   H899      1.0  0.15653  0.91589  0.20394  1.0000
  H   H900      1.0  0.15633  0.72592  0.17480  1.0000
  H   H901      1.0  0.27286  0.99098  0.24446  1.0000
  S   S222      1.0  0.15643  0.77359  0.16476  1.0000
  H   H902      1.0  0.15674  0.70599  0.05980  1.0000
  C   C571      1.0  0.32078  0.76209  0.41559  1.0000
  H   H903      1.0  0.29514  0.69816  0.40127  1.0000
  C   C572      1.0  0.18449  0.90673  0.34455  1.0000
  S   S223      1.0  0.22705  0.90929  0.35270  1.0000
  H   H904      1.0  0.20851  0.94157  0.34556  1.0000
  C   C573      1.0  0.22505  0.93729  0.34584  1.0000
  H   H905      1.0  0.20464  0.90269  0.36834  1.0000
  C   C574      1.0  0.21318  0.97176  0.33737  1.0000
  H   H906      1.0  0.19374  0.86833  0.36554  1.0000
  H   H907      1.0  0.19846  0.87028  0.33749  1.0000
  C   C575      1.0  0.21497  0.94940  0.34319  1.0000
  N   N58       1.0  0.19560  0.89986  0.34755  1.0000
  C   C576      1.0  0.23342  0.94763  0.34251  1.0000
  C   C577      1.0  0.19628  0.90706  0.36600  1.0000
  H   H908      1.0  0.21121  0.90464  0.33030  1.0000
  H   H909      1.0  0.29211  0.87641  0.38090  1.0000
  H   H910      1.0  0.31675  0.88533  0.56779  1.0000
  H   H911      1.0  0.25616  0.58977  0.34456  1.0000
  C   C578      1.0  0.19892  0.87620  0.35115  1.0000
  H   H912      1.0  0.20732  0.87054  0.35329  1.0000
  H   H913      1.0  0.17885  0.89977  0.35868  1.0000
  H   H914      1.0  0.19119  0.89972  0.38085  1.0000
  C   C579      1.0  0.30497  0.65685  0.40101  1.0000
  H   H915      1.0  0.31224  0.64401  0.39804  1.0000
  H   H916      1.0  0.31912  0.59145  0.42466  1.0000
  H   H917      1.0  0.23791  0.97822  0.33533  1.0000
  H   H918      1.0  0.29110  0.51722  0.36451  1.0000
  H   H919      1.0  0.25698  0.53206  0.37230  1.0000
  H   H920      1.0  0.20046  0.92731  0.32515  1.0000
  H   H921      1.0  0.30902  0.66741  0.44457  1.0000
  Fe  Fe112     1.0  0.31328  0.53531  0.33984  1.0000
  H   H922      1.0  0.26845  0.59840  0.33844  1.0000
  Fe  Fe113     1.0  0.29087  0.55976  0.35517  1.0000
  C   C580      1.0  0.31290  0.73227  0.49770  1.0000
  H   H923      1.0  0.24125  0.93829  0.34452  1.0000
  S   S224      1.0  0.30400  0.54085  0.37204  1.0000
  C   C581      1.0  0.28368  0.51214  0.36773  1.0000
  C   C582      1.0  0.27404  0.52730  0.36811  1.0000
  C   C583      1.0  0.26447  0.52040  0.37207  1.0000
  C   C584      1.0  0.23153  0.97018  0.33733  1.0000
  Fe  Fe114     1.0  0.24427  0.89468  0.34160  1.0000
  H   H924      1.0  0.31710  0.71996  0.64385  1.0000
  H   H925      1.0  0.32115  0.74458  0.42184  1.0000
  C   C585      1.0  0.26458  0.49836  0.37600  1.0000
  H   H926      1.0  0.28467  0.87175  0.35284  1.0000
  S   S225      1.0  0.27401  0.55477  0.36332  1.0000
  H   H927      1.0  0.19358  0.92482  0.36394  1.0000
  N   N59       1.0  0.30635  0.67058  0.41364  1.0000
  S   S226      1.0  0.29585  0.59113  0.34882  1.0000
  Fe  Fe115     1.0  0.31694  0.86506  0.61471  1.0000
  Fe  Fe116     1.0  0.30990  0.57184  0.36344  1.0000
  H   H928      1.0  0.31791  0.93602  0.62849  1.0000
  S   S227      1.0  0.32132  0.50231  0.33277  1.0000
  H   H929      1.0  0.31680  0.72674  0.51095  1.0000
  C   C586      1.0  0.24536  0.50059  0.32588  1.0000
  H   H930      1.0  0.30490  0.87730  0.36348  1.0000
  H   H931      1.0  0.29055  0.87301  0.51688  1.0000
  H   H932      1.0  0.28898  0.93039  0.49002  1.0000
  H   H933      1.0  0.30998  0.69859  0.65198  1.0000
  C   C587      1.0  0.28240  0.88232  0.51524  1.0000
  Fe  Fe117     1.0  0.26443  0.86142  0.34758  1.0000
  S   S228      1.0  0.27450  0.83588  0.36839  1.0000
  S   S229      1.0  0.31496  0.89223  0.63043  1.0000
  N   N60       1.0  0.28288  0.90164  0.49795  1.0000
  H   H934      1.0  0.31694  0.69078  0.41144  1.0000
  S   S230      1.0  0.30446  0.85883  0.60186  1.0000
  Fe  Fe118     1.0  0.31073  0.84668  0.48831  1.0000
  S   S231      1.0  0.31346  0.85561  0.45294  1.0000
  S   S232      1.0  0.31394  0.87053  0.50265  1.0000
  Fe  Fe119     1.0  0.30632  0.80345  0.49006  1.0000
  S   S233      1.0  0.30851  0.80913  0.45486  1.0000
  S   S234      1.0  0.30570  0.77060  0.51016  1.0000
  Fe  Fe120     1.0  0.29901  0.84240  0.45741  1.0000
  S   S235      1.0  0.28595  0.86369  0.44099  1.0000
  H   H935      1.0  0.27890  0.51886  0.32461  1.0000
  S   S236      1.0  0.29558  0.83569  0.49305  1.0000
  C   C588      1.0  0.28836  0.91574  0.50282  1.0000
  S   S237      1.0  0.25897  0.89567  0.35124  1.0000
  C   C589      1.0  0.28886  0.89515  0.47787  1.0000
  H   H936      1.0  0.20541  0.98078  0.33500  1.0000
  C   C590      1.0  0.30729  0.86173  0.57433  1.0000
  C   C591      1.0  0.31359  0.87596  0.56107  1.0000
  H   H937      1.0  0.30623  0.90230  0.32819  1.0000
  C   C592      1.0  0.31137  0.86664  0.53025  1.0000
  C   C593      1.0  0.30527  0.85203  0.54349  1.0000
  C   C594      1.0  0.30309  0.84984  0.56552  1.0000
  H   H938      1.0  0.27584  0.90172  0.37078  1.0000
  S   S238      1.0  0.31423  0.58222  0.38954  1.0000
  H   H939      1.0  0.30216  0.84253  0.53682  1.0000
  H   H940      1.0  0.29824  0.83876  0.57581  1.0000
  C   C595      1.0  0.27722  0.84293  0.38952  1.0000
  C   C596      1.0  0.27115  0.86128  0.39691  1.0000
  C   C597      1.0  0.27381  0.86726  0.41297  1.0000
  C   C598      1.0  0.28251  0.85487  0.42184  1.0000
  C   C599      1.0  0.28852  0.83634  0.41466  1.0000
  C   C600      1.0  0.28586  0.83038  0.39855  1.0000
  H   H941      1.0  0.26430  0.87070  0.39052  1.0000
  H   H942      1.0  0.26907  0.88149  0.41860  1.0000
  H   H943      1.0  0.29523  0.82668  0.42141  1.0000
  H   H944      1.0  0.29054  0.81610  0.39296  1.0000
  C   C601      1.0  0.30925  0.72578  0.46682  1.0000
  C   C602      1.0  0.29005  0.88184  0.34135  1.0000
  H   H945      1.0  0.31546  0.64459  0.43287  1.0000
  C   C603      1.0  0.30660  0.75305  0.49412  1.0000
  C   C604      1.0  0.30135  0.75993  0.47728  1.0000
  C   C605      1.0  0.30258  0.74623  0.46378  1.0000
  H   H946      1.0  0.32016  0.89006  0.52882  1.0000
  H   H947      1.0  0.31467  0.77061  0.42730  1.0000
  H   H948      1.0  0.29618  0.77571  0.47489  1.0000
  H   H949      1.0  0.28926  0.90922  0.46433  1.0000
  H   H950      1.0  0.27816  0.88655  0.53078  1.0000
  H   H951      1.0  0.28408  0.92091  0.51791  1.0000
  H   H952      1.0  0.28508  0.88412  0.47394  1.0000
  C   C606      1.0  0.30810  0.65745  0.43453  1.0000
  C   C607      1.0  0.31653  0.70412  0.65487  1.0000
  H   H953      1.0  0.25643  0.61771  0.33393  1.0000
  H   H954      1.0  0.28194  0.92416  0.36552  1.0000
  C   C608      1.0  0.26093  0.60107  0.33297  1.0000
  C   C609      1.0  0.29668  0.68781  0.41668  1.0000
  H   H955      1.0  0.26712  0.91819  0.51085  1.0000
  C   C610      1.0  0.31547  0.87867  0.53905  1.0000
  C   C611      1.0  0.29831  0.91190  0.33458  1.0000
  H   H956      1.0  0.29792  0.89903  0.37666  1.0000
  H   H957      1.0  0.29751  0.69838  0.42624  1.0000
  C   C612      1.0  0.29689  0.88729  0.36871  1.0000
  N   N61       1.0  0.29159  0.89815  0.35077  1.0000
  C   C613      1.0  0.31427  0.71869  0.48398  1.0000
  C   C614      1.0  0.27191  0.91326  0.49589  1.0000
  H   H958      1.0  0.27198  0.92800  0.48305  1.0000
  S   S239      1.0  0.24905  0.85971  0.34086  1.0000
  H   H959      1.0  0.18175  0.92456  0.34179  1.0000
  H   H960      1.0  0.26850  0.50405  0.33259  1.0000
  H   H961      1.0  0.26764  0.90304  0.49199  1.0000
  H   H962      1.0  0.27821  0.87139  0.51226  1.0000
  H   H963      1.0  0.29664  0.90734  0.50457  1.0000
  S   S240      1.0  0.32049  0.56426  0.33270  1.0000
  H   H964      1.0  0.29723  0.88664  0.47872  1.0000
  C   C615      1.0  0.28110  0.91156  0.35844  1.0000
  S   S241      1.0  0.31168  0.70970  0.44845  1.0000
  H   H965      1.0  0.31783  0.76671  0.40068  1.0000
  H   H966      1.0  0.29850  0.75163  0.45079  1.0000
  H   H967      1.0  0.30131  0.64956  0.44334  1.0000
  H   H968      1.0  0.29819  0.64876  0.40921  1.0000
  C   C616      1.0  0.20277  0.90945  0.32841  1.0000
  H   H969      1.0  0.29774  0.87088  0.33607  1.0000
  C   C617      1.0  0.31814  0.94780  0.63729  1.0000
  S   S242      1.0  0.32176  0.83922  0.64206  1.0000
  H   H970      1.0  0.31475  0.69005  0.38647  1.0000
  H   H971      1.0  0.31265  0.96311  0.63185  1.0000
  C   C618      1.0  0.22134  0.98227  0.33499  1.0000
  H   H972      1.0  0.24849  0.52922  0.32997  1.0000
  H   H973      1.0  0.29969  0.92434  0.34115  1.0000
  S   S243      1.0  0.32104  0.81389  0.48911  1.0000
  C   C619      1.0  0.31569  0.68024  0.40241  1.0000
  H   H974      1.0  0.31903  0.70258  0.48698  1.0000
  S   S244      1.0  0.29980  0.55241  0.32384  1.0000
  H   H975      1.0  0.18372  0.90165  0.33066  1.0000
  H   H976      1.0  0.30347  0.66627  0.38526  1.0000
  H   H977      1.0  0.28638  0.88940  0.32738  1.0000
  H   H978      1.0  0.27684  0.91983  0.34531  1.0000
  H   H979      1.0  0.28948  0.68109  0.42515  1.0000
  Fe  Fe121     1.0  0.32115  0.86641  0.65627  1.0000
  H   H980      1.0  0.22953  0.52857  0.73144  1.0000
  S   S245      1.0  0.21482  0.56970  0.85667  1.0000
  H   H981      1.0  0.20582  0.55874  0.79963  1.0000
  Fe  Fe122     1.0  0.18298  0.56616  0.96719  1.0000
  S   S246      1.0  0.20016  0.55026  0.95658  1.0000
  Fe  Fe123     1.0  0.16448  0.60055  0.95418  1.0000
  C   C620      1.0  0.30422  0.93587  0.66626  1.0000
  C   C621      1.0  0.29572  0.88626  0.68570  1.0000
  S   S247      1.0  0.17666  0.60001  0.97165  1.0000
  S   S248      1.0  0.17170  0.56808  0.94715  1.0000
  H   H982      1.0  0.17886  0.63594  0.93273  1.0000
  C   C622      1.0  0.22840  0.51635  0.76494  1.0000
  S   S249      1.0  0.23739  0.56186  0.80928  1.0000
  Fe  Fe124     1.0  0.22908  0.54717  0.84173  1.0000
  C   C623      1.0  0.27550  0.82677  0.77292  1.0000
  C   C624      1.0  0.21115  0.56444  0.88448  1.0000
  C   C625      1.0  0.21730  0.54791  0.89694  1.0000
  C   C626      1.0  0.21408  0.54406  0.91914  1.0000
  C   C627      1.0  0.20464  0.55649  0.92889  1.0000
  C   C628      1.0  0.19855  0.57308  0.91640  1.0000
  C   C629      1.0  0.20181  0.57707  0.89427  1.0000
  H   H983      1.0  0.22454  0.53817  0.88949  1.0000
  H   H984      1.0  0.21885  0.53127  0.92874  1.0000
  H   H985      1.0  0.19138  0.58302  0.92378  1.0000
  H   H986      1.0  0.19708  0.58998  0.88472  1.0000
  N   N62       1.0  0.27893  0.84638  0.75922  1.0000
  Fe  Fe125     1.0  0.16112  0.55626  0.97792  1.0000
  H   H987      1.0  0.29827  0.95068  0.66144  1.0000
  S   S250      1.0  0.23009  0.54003  0.76915  1.0000
  C   C630      1.0  0.22874  0.51484  0.74444  1.0000
  S   S251      1.0  0.16980  0.69781  0.96518  1.0000
  H   H988      1.0  0.29256  0.82940  0.73992  1.0000
  C   C631      1.0  0.16206  0.65047  0.93700  1.0000
  S   S252      1.0  0.22583  0.52057  0.83146  1.0000
  H   H989      1.0  0.18023  0.50026  0.98348  1.0000
  S   S253      1.0  0.26066  0.86333  0.81629  1.0000
  H   H990      1.0  0.30427  0.49994  0.82700  1.0000
  H   H991      1.0  0.28248  0.81333  0.77550  1.0000
  C   C632      1.0  0.17260  0.64891  0.93796  1.0000
  Fe  Fe126     1.0  0.23515  0.53397  0.79974  1.0000
  C   C633      1.0  0.19440  0.51224  0.93292  1.0000
  H   H992      1.0  0.30348  0.51178  0.77011  1.0000
  N   N63       1.0  0.20686  0.59134  0.79671  1.0000
  C   C634      1.0  0.19601  0.60071  0.79264  1.0000
  C   C635      1.0  0.20928  0.60390  0.80922  1.0000
  C   C636      1.0  0.21476  0.59175  0.77635  1.0000
  C   C637      1.0  0.20738  0.56891  0.80867  1.0000
  H   H993      1.0  0.19395  0.59151  0.78329  1.0000
  H   H994      1.0  0.19532  0.61765  0.78362  1.0000
  H   H995      1.0  0.18988  0.60059  0.80773  1.0000
  H   H996      1.0  0.21742  0.59723  0.81260  1.0000
  H   H997      1.0  0.20891  0.62096  0.80083  1.0000
  H   H998      1.0  0.20360  0.60356  0.82490  1.0000
  H   H999      1.0  0.22304  0.58477  0.77888  1.0000
  H   H1000     1.0  0.21459  0.60838  0.76679  1.0000
  H   H1001     1.0  0.21331  0.58207  0.76667  1.0000
  H   H1002     1.0  0.20160  0.56788  0.82424  1.0000
  H   H1003     1.0  0.21542  0.56156  0.81212  1.0000
  Fe  Fe127     1.0  0.31760  0.56750  0.66320  1.0000
  C   C638      1.0  0.30327  0.88253  0.69792  1.0000
  Fe  Fe128     1.0  0.24181  0.50246  0.83821  1.0000
  H   H1004     1.0  0.20227  0.51032  0.93675  1.0000
  S   S254      1.0  0.20701  0.92406  0.92111  1.0000
  H   H1005     1.0  0.20718  0.89424  0.79852  1.0000
  H   H1006     1.0  0.24254  0.93351  0.88555  1.0000
  H   H1007     1.0  0.27611  0.50417  0.72922  1.0000
  H   H1008     1.0  0.28838  0.51959  0.81250  1.0000
  H   H1009     1.0  0.16749  0.82235  0.96888  1.0000
  Fe  Fe129     1.0  0.18222  0.88260  0.91342  1.0000
  S   S255      1.0  0.18442  0.88433  0.87875  1.0000
  S   S256      1.0  0.17418  0.85973  0.94122  1.0000
  Fe  Fe130     1.0  0.19792  0.91159  0.90522  1.0000
  S   S257      1.0  0.20176  0.91502  0.87002  1.0000
  H   H1010     1.0  0.20459  0.77553  0.92290  1.0000
  Fe  Fe131     1.0  0.18402  0.91937  0.87446  1.0000
  S   S258      1.0  0.17594  0.94308  0.84948  1.0000
  Fe  Fe132     1.0  0.20188  0.88000  0.87708  1.0000
  S   S259      1.0  0.21315  0.85429  0.86099  1.0000
  S   S260      1.0  0.18010  0.91836  0.90948  1.0000
  S   S261      1.0  0.19981  0.87594  0.91191  1.0000
  C   C639      1.0  0.20981  0.93441  0.77856  1.0000
  H   H1011     1.0  0.18224  0.52579  0.96738  1.0000
  S   S262      1.0  0.22956  0.95547  0.79947  1.0000
  H   H1012     1.0  0.19772  0.93671  0.82950  1.0000
  H   H1013     1.0  0.18320  0.66269  0.94661  1.0000
  C   C640      1.0  0.19547  0.81237  0.93642  1.0000
  H   H1014     1.0  0.20225  0.78565  0.89652  1.0000
  C   C641      1.0  0.17978  0.96798  0.84127  1.0000
  N   N64       1.0  0.23166  0.94580  0.86442  1.0000
  H   H1015     1.0  0.21481  0.94752  0.87572  1.0000
  H   H1016     1.0  0.18733  0.96269  0.86727  1.0000
  H   H1017     1.0  0.30988  0.97142  0.66705  1.0000
  C   C642      1.0  0.19768  0.98841  0.90015  1.0000
  C   C643      1.0  0.27120  0.94546  0.83501  1.0000
  H   H1018     1.0  0.27149  0.54453  0.69504  1.0000
  H   H1019     1.0  0.23702  0.96290  0.83282  1.0000
  S   S263      1.0  0.25461  0.97217  0.88461  1.0000
  H   H1020     1.0  0.15639  0.79911  0.96641  1.0000
  S   S264      1.0  0.30139  0.56534  0.66073  1.0000
  N   N65       1.0  0.19946  0.80984  0.91426  1.0000
  H   H1021     1.0  0.18839  0.94762  0.79091  1.0000
  H   H1022     1.0  0.19086  0.52979  0.92964  1.0000
  H   H1023     1.0  0.23242  0.82349  0.85156  1.0000
  C   C644      1.0  0.19787  0.96627  0.90562  1.0000
  H   H1024     1.0  0.19559  0.82526  0.88385  1.0000
  C   C645      1.0  0.22886  0.87776  0.84234  1.0000
  H   H1025     1.0  0.18656  0.92527  0.81259  1.0000
  H   H1026     1.0  0.19215  0.96020  0.90143  1.0000
  H   H1027     1.0  0.23279  0.95709  0.89068  1.0000
  C   C646      1.0  0.22632  0.85747  0.84931  1.0000
  H   H1028     1.0  0.18420  0.82300  0.90563  1.0000
  H   H1029     1.0  0.22269  0.89194  0.84454  1.0000
  H   H1030     1.0  0.21869  0.94913  0.93043  1.0000
  H   H1031     1.0  0.19967  0.95850  0.80744  1.0000
  H   H1032     1.0  0.20225  0.89961  0.82466  1.0000
  C   C647      1.0  0.26901  0.50533  0.66607  1.0000
  C   C648      1.0  0.26622  0.94827  0.85560  1.0000
  C   C649      1.0  0.16690  0.68032  0.95330  1.0000
  C   C650      1.0  0.23884  0.95889  0.84877  1.0000
  C   C651      1.0  0.23406  0.94180  0.88553  1.0000
  C   C652      1.0  0.16667  0.84300  0.93816  1.0000
  C   C653      1.0  0.22392  0.97169  0.77846  1.0000
  C   C654      1.0  0.21049  0.81339  0.90658  1.0000
  C   C655      1.0  0.20715  0.90500  0.80865  1.0000
  S   S265      1.0  0.15547  0.75287  0.98048  1.0000
  C   C656      1.0  0.23330  0.92508  0.85847  1.0000
  H   H1033     1.0  0.19540  0.82878  0.93779  1.0000
  H   H1034     1.0  0.20694  0.95163  0.77139  1.0000
  H   H1035     1.0  0.27236  0.50552  0.70525  1.0000
  H   H1036     1.0  0.21378  0.81159  0.88988  1.0000
  H   H1037     1.0  0.21098  0.93954  0.81614  1.0000
  H   H1038     1.0  0.22890  0.93168  0.89777  1.0000
  C   C657      1.0  0.20286  0.94123  0.81371  1.0000
  H   H1039     1.0  0.24731  0.95017  0.84735  1.0000
  H   H1040     1.0  0.21820  0.93248  0.77985  1.0000
  H   H1041     1.0  0.21000  0.92475  0.76727  1.0000
  C   C658      1.0  0.21282  0.96003  0.92192  1.0000
  C   C659      1.0  0.19937  0.78796  0.91310  1.0000
  H   H1042     1.0  0.18713  0.81002  0.94262  1.0000
  H   H1043     1.0  0.21080  0.82992  0.90687  1.0000
  H   H1044     1.0  0.21550  0.90242  0.81044  1.0000
  H   H1045     1.0  0.19194  0.84227  0.90236  1.0000
  N   N66       1.0  0.20294  0.92775  0.79947  1.0000
  H   H1046     1.0  0.21598  0.80190  0.91639  1.0000
  H   H1047     1.0  0.19162  0.92093  0.78610  1.0000
  H   H1048     1.0  0.20051  0.80065  0.94702  1.0000
  H   H1049     1.0  0.19115  0.78478  0.91889  1.0000
  C   C660      1.0  0.20555  0.95203  0.91632  1.0000
  C   C661      1.0  0.19191  0.93047  0.79710  1.0000
  C   C662      1.0  0.19249  0.82572  0.90091  1.0000
  C   C663      1.0  0.22937  0.97130  0.75752  1.0000
  H   H1050     1.0  0.23158  0.92754  0.84259  1.0000
  C   C664      1.0  0.18546  0.97353  0.85289  1.0000
  H   H1051     1.0  0.23818  0.97412  0.85347  1.0000
  C   C665      1.0  0.17745  0.98212  0.82256  1.0000
  H   H1052     1.0  0.21874  0.97265  0.87038  1.0000
  C   C666      1.0  0.23435  0.83919  0.84628  1.0000
  H   H1053     1.0  0.23696  0.96029  0.75416  1.0000
  H   H1054     1.0  0.17769  0.49817  0.93057  1.0000
  C   C667      1.0  0.22045  0.95743  0.86486  1.0000
  H   H1055     1.0  0.24168  0.91580  0.85797  1.0000
  C   C668      1.0  0.17504  0.66396  0.94593  1.0000
  H   H1056     1.0  0.26428  0.86673  0.77167  1.0000
  C   C669      1.0  0.26877  0.98401  0.82248  1.0000
  C   C670      1.0  0.26338  0.98686  0.84293  1.0000
  S   S266      1.0  0.25086  0.51324  0.80528  1.0000
  H   H1057     1.0  0.30657  0.52094  0.78992  1.0000
  Fe  Fe133     1.0  0.25234  0.54001  0.81777  1.0000
  S   S267      1.0  0.26849  0.54832  0.80746  1.0000
  C   C671      1.0  0.29062  0.50365  0.66360  1.0000
  H   H1058     1.0  0.26327  0.56151  0.71258  1.0000
  S   S268      1.0  0.30009  0.53134  0.70659  1.0000
  S   S269      1.0  0.31222  0.57155  0.69698  1.0000
  C   C672      1.0  0.16277  0.84681  0.91989  1.0000
  Fe  Fe134     1.0  0.29648  0.56695  0.69502  1.0000
  S   S270      1.0  0.28040  0.58525  0.70887  1.0000
  C   C673      1.0  0.24744  0.86132  0.82924  1.0000
  S   S271      1.0  0.25532  0.50676  0.66934  1.0000
  C   C674      1.0  0.26827  0.54512  0.71202  1.0000
  H   H1059     1.0  0.15608  0.86196  0.97732  1.0000
  Fe  Fe135     1.0  0.24623  0.93917  0.78715  1.0000
  C   C675      1.0  0.27175  0.55923  0.78016  1.0000
  C   C676      1.0  0.28250  0.55747  0.76959  1.0000
  C   C677      1.0  0.28520  0.56536  0.74765  1.0000
  C   C678      1.0  0.27716  0.57588  0.73639  1.0000
  C   C679      1.0  0.26642  0.57811  0.74703  1.0000
  C   C680      1.0  0.26373  0.56943  0.76880  1.0000
  H   H1060     1.0  0.28875  0.54998  0.77831  1.0000
  H   H1061     1.0  0.29351  0.56372  0.73952  1.0000
  H   H1062     1.0  0.26019  0.58634  0.73838  1.0000
  H   H1063     1.0  0.25544  0.57110  0.77684  1.0000
  C   C681      1.0  0.17687  0.50398  0.94507  1.0000
  C   C682      1.0  0.28876  0.50533  0.80640  1.0000
  H   H1064     1.0  0.25285  0.54585  0.74735  1.0000
  Fe  Fe136     1.0  0.31627  0.53535  0.70583  1.0000
  S   S272      1.0  0.31626  0.86778  0.69064  1.0000
  Fe  Fe137     1.0  0.30659  0.52994  0.67256  1.0000
  H   H1065     1.0  0.31492  0.49740  0.78107  1.0000
  H   H1066     1.0  0.19346  0.50597  0.97460  1.0000
  S   S273      1.0  0.24437  0.52781  0.85150  1.0000
  C   C683      1.0  0.16441  0.82559  0.95479  1.0000
  H   H1067     1.0  0.26476  0.52764  0.75372  1.0000
  H   H1068     1.0  0.25328  0.51762  0.75473  1.0000
  H   H1069     1.0  0.19592  0.50663  0.91802  1.0000
  S   S274      1.0  0.30408  0.50231  0.66256  1.0000
  H   H1070     1.0  0.29783  0.87978  0.67162  1.0000
  C   C684      1.0  0.22707  0.49873  0.78177  1.0000
  H   H1071     1.0  0.21854  0.96151  0.84893  1.0000
  H   H1072     1.0  0.25107  0.82685  0.83450  1.0000
  C   C685      1.0  0.25811  0.52984  0.74579  1.0000
  C   C686      1.0  0.15818  0.81226  0.95336  1.0000
  C   C687      1.0  0.21285  0.98198  0.91587  1.0000
  N   N67       1.0  0.26212  0.52836  0.72334  1.0000
  H   H1073     1.0  0.25560  0.53293  0.69613  1.0000
  H   H1074     1.0  0.16441  0.86024  0.90701  1.0000
  C   C688      1.0  0.26208  0.96896  0.85946  1.0000
  H   H1075     1.0  0.17293  0.52134  0.94222  1.0000
  C   C689      1.0  0.25300  0.53150  0.71353  1.0000
  H   H1076     1.0  0.27522  0.54324  0.71900  1.0000
  H   H1077     1.0  0.25622  0.99367  0.78564  1.0000
  H   H1078     1.0  0.27410  0.92945  0.83194  1.0000
  Fe  Fe138     1.0  0.26888  0.93838  0.78686  1.0000
  C   C690      1.0  0.24490  0.84108  0.83658  1.0000
  S   S275      1.0  0.27765  0.95988  0.79245  1.0000
  Fe  Fe139     1.0  0.26446  0.92266  0.75283  1.0000
  C   C691      1.0  0.26939  0.86362  0.75624  1.0000
  S   S276      1.0  0.26927  0.91972  0.71871  1.0000
  H   H1079     1.0  0.28843  0.86778  0.75938  1.0000
  S   S277      1.0  0.25580  0.92579  0.81202  1.0000
  S   S278      1.0  0.25883  0.95423  0.76282  1.0000
  S   S279      1.0  0.27544  0.90765  0.77540  1.0000
  H   H1080     1.0  0.27083  0.82966  0.78881  1.0000
  H   H1081     1.0  0.28106  0.85695  0.78500  1.0000
  H   H1082     1.0  0.27943  0.90058  0.68272  1.0000
  H   H1083     1.0  0.27031  0.82136  0.76590  1.0000
  H   H1084     1.0  0.28769  0.85671  0.72765  1.0000
  S   S280      1.0  0.25051  0.90946  0.77450  1.0000
  H   H1085     1.0  0.22797  0.91486  0.87006  1.0000
  H   H1086     1.0  0.26525  0.93443  0.86840  1.0000
  H   H1087     1.0  0.24128  0.89538  0.82612  1.0000
  C   C692      1.0  0.23938  0.87970  0.83195  1.0000
  H   H1088     1.0  0.27164  0.87894  0.74680  1.0000
  C   C693      1.0  0.26914  0.50701  0.72199  1.0000
  H   H1089     1.0  0.30165  0.93009  0.68365  1.0000
  H   H1090     1.0  0.24895  0.51773  0.71985  1.0000
  C   C694      1.0  0.28560  0.85316  0.76939  1.0000
  H   H1091     1.0  0.28043  0.83672  0.73031  1.0000
  H   H1092     1.0  0.29279  0.84040  0.77221  1.0000
  Fe  Fe140     1.0  0.26105  0.89686  0.79783  1.0000
  H   H1093     1.0  0.24694  0.54635  0.71629  1.0000
  C   C695      1.0  0.28249  0.90617  0.71038  1.0000
  C   C696      1.0  0.28532  0.89803  0.69198  1.0000
  H   H1094     1.0  0.26436  0.85952  0.74782  1.0000
  C   C697      1.0  0.30048  0.89087  0.71615  1.0000
  C   C698      1.0  0.29016  0.90292  0.72217  1.0000
  C   C699      1.0  0.28518  0.84204  0.73839  1.0000
  H   H1095     1.0  0.30635  0.88829  0.72545  1.0000
  H   H1096     1.0  0.28822  0.91001  0.73573  1.0000
  C   C700      1.0  0.27245  0.96332  0.81845  1.0000
  H   H1097     1.0  0.28530  0.51130  0.79204  1.0000
  H   H1098     1.0  0.30367  0.92346  0.65857  1.0000
  H   H1099     1.0  0.17310  0.97786  0.81347  1.0000
  C   C701      1.0  0.27274  0.52431  0.66111  1.0000
  C   C702      1.0  0.28349  0.52348  0.66025  1.0000
  H   H1100     1.0  0.22669  0.49983  0.79769  1.0000
  C   C703      1.0  0.15647  0.83351  0.91851  1.0000
  N   N68       1.0  0.31517  0.93980  0.66044  1.0000
  H   H1101     1.0  0.31336  0.95038  0.68895  1.0000
  C   C704      1.0  0.18576  0.50833  0.96990  1.0000
  H   H1102     1.0  0.19150  0.62799  0.97949  1.0000
  C   C705      1.0  0.30649  0.50628  0.78502  1.0000
  H   H1103     1.0  0.17374  0.84502  0.98737  1.0000
  N   N69       1.0  0.18732  0.50043  0.95052  1.0000
  H   H1104     1.0  0.26727  0.53969  0.65824  1.0000
  H   H1105     1.0  0.20014  0.66199  0.98904  1.0000
  H   H1106     1.0  0.32075  0.91295  0.68418  1.0000
  H   H1107     1.0  0.18993  0.66702  0.97445  1.0000
  C   C706      1.0  0.31555  0.95597  0.67143  1.0000
  H   H1108     1.0  0.20979  0.98600  0.79890  1.0000
  H   H1109     1.0  0.31970  0.66061  0.66356  1.0000
  S   S281      1.0  0.15877  0.62960  0.93076  1.0000
  H   H1110     1.0  0.24857  0.99391  0.81210  1.0000
  C   C707      1.0  0.18843  0.99347  0.84625  1.0000
  C   C708      1.0  0.24795  0.99526  0.79561  1.0000
  C   C709      1.0  0.15638  0.68207  0.95199  1.0000
  H   H1111     1.0  0.24492  0.98128  0.79546  1.0000
  C   C710      1.0  0.21403  0.98560  0.78273  1.0000
  H   H1112     1.0  0.31411  0.70679  0.67131  1.0000
  H   H1113     1.0  0.21863  0.98784  0.91997  1.0000
  H   H1114     1.0  0.22960  0.98645  0.72462  1.0000
  C   C711      1.0  0.22516  0.98588  0.74080  1.0000
  H   H1115     1.0  0.16548  0.88280  0.98837  1.0000
  H   H1116     1.0  0.28629  0.53819  0.65663  1.0000
  H   H1117     1.0  0.34111  0.19700  0.16006  1.0000
  S   S282      1.0  0.34155  0.24731  0.14048  1.0000
  S   S283      1.0  0.33922  0.29803  0.14070  1.0000
  H   H1118     1.0  0.38117  0.28416  0.06823  1.0000
  Fe  Fe141     1.0  0.33549  0.27948  0.12116  1.0000
  S   S284      1.0  0.34268  0.28399  0.08606  1.0000
  Fe  Fe142     1.0  0.34383  0.26583  0.16145  1.0000
  S   S285      1.0  0.35804  0.25873  0.17587  1.0000
  H   H1119     1.0  0.35099  0.17230  0.16132  1.0000
  H   H1120     1.0  0.33652  0.34552  0.25566  1.0000
  H   H1121     1.0  0.43217  0.01736  0.23105  1.0000
  Fe  Fe143     1.0  0.33145  0.11467  0.10812  1.0000
  S   S286      1.0  0.34929  0.11111  0.09921  1.0000
  H   H1122     1.0  0.35506  0.19725  0.15508  1.0000
  Fe  Fe144     1.0  0.40408  0.14476  0.09937  1.0000
  S   S287      1.0  0.40080  0.11763  0.12698  1.0000
  S   S288      1.0  0.40947  0.14273  0.06488  1.0000
  Fe  Fe145     1.0  0.40111  0.17541  0.12790  1.0000
  S   S289      1.0  0.39794  0.15066  0.15787  1.0000
  S   S290      1.0  0.40144  0.20884  0.12834  1.0000
  Fe  Fe146     1.0  0.41149  0.12811  0.14127  1.0000
  S   S291      1.0  0.42560  0.10311  0.15205  1.0000
  Fe  Fe147     1.0  0.38769  0.14269  0.14081  1.0000
  S   S292      1.0  0.37080  0.13965  0.15665  1.0000
  S   S293      1.0  0.41549  0.15383  0.11268  1.0000
  S   S294      1.0  0.39002  0.16897  0.11190  1.0000
  Fe  Fe148     1.0  0.45863  0.08277  0.23943  1.0000
  S   S295      1.0  0.47100  0.06183  0.21926  1.0000
  S   S296      1.0  0.44391  0.10568  0.22909  1.0000
  Fe  Fe149     1.0  0.46920  0.06289  0.27786  1.0000
  C   C712      1.0  0.36744  0.26636  0.10129  1.0000
  S   S297      1.0  0.39174  0.08195  0.03138  1.0000
  C   C713      1.0  0.33050  0.34694  0.24643  1.0000
  Fe  Fe150     1.0  0.46907  0.03570  0.24839  1.0000
  C   C714      1.0  0.42580  0.06039  0.22347  1.0000
  S   S298      1.0  0.47061  0.09202  0.25157  1.0000
  S   S299      1.0  0.45597  0.05588  0.26787  1.0000
  H   H1123     1.0  0.43384  0.04600  0.27008  1.0000
  Fe  Fe151     1.0  0.39004  0.09360  0.99747  1.0000
  H   H1124     1.0  0.33224  0.16573  0.11349  1.0000
  S   S300      1.0  0.32746  0.39156  0.20477  1.0000
  C   C715      1.0  0.43500  0.11538  0.08905  1.0000
  H   H1125     1.0  0.32708  0.29558  0.26307  1.0000
  C   C716      1.0  0.43963  0.10666  0.20601  1.0000
  C   C717      1.0  0.44538  0.09332  0.19189  1.0000
  C   C718      1.0  0.44104  0.09260  0.17527  1.0000
  C   C719      1.0  0.43108  0.10564  0.17221  1.0000
  C   C720      1.0  0.42554  0.11961  0.18580  1.0000
  C   C721      1.0  0.42978  0.12002  0.20267  1.0000
  H   H1126     1.0  0.45309  0.08333  0.19392  1.0000
  H   H1127     1.0  0.44544  0.08191  0.16472  1.0000
  H   H1128     1.0  0.41788  0.12979  0.18359  1.0000
  H   H1129     1.0  0.42530  0.13050  0.21340  1.0000
  C   C722      1.0  0.39671  0.09872  0.04075  1.0000
  C   C723      1.0  0.39353  0.09973  0.06221  1.0000
  C   C724      1.0  0.39739  0.11319  0.06987  1.0000
  C   C725      1.0  0.40462  0.12529  0.05615  1.0000
  C   C726      1.0  0.40799  0.12388  0.03483  1.0000
  C   C727      1.0  0.40391  0.11090  0.02705  1.0000
  H   H1130     1.0  0.38797  0.09029  0.07287  1.0000
  H   H1131     1.0  0.39473  0.11419  0.08634  1.0000
  H   H1132     1.0  0.41371  0.13299  0.02423  1.0000
  H   H1133     1.0  0.40650  0.10994  0.01055  1.0000
  C   C728      1.0  0.35502  0.11958  0.11518  1.0000
  C   C729      1.0  0.36568  0.12163  0.10818  1.0000
  C   C730      1.0  0.37050  0.12812  0.12075  1.0000
  C   C731      1.0  0.36472  0.13229  0.14048  1.0000
  C   C732      1.0  0.35400  0.13054  0.14736  1.0000
  C   C733      1.0  0.34913  0.12429  0.13466  1.0000
  H   H1134     1.0  0.37026  0.11795  0.09313  1.0000
  H   H1135     1.0  0.37876  0.12950  0.11534  1.0000
  H   H1136     1.0  0.34952  0.13359  0.16268  1.0000
  H   H1137     1.0  0.34092  0.12257  0.14020  1.0000
  C   C734      1.0  0.36995  0.24382  0.16331  1.0000
  C   C735      1.0  0.37968  0.24623  0.16542  1.0000
  C   C736      1.0  0.38933  0.23551  0.15454  1.0000
  C   C737      1.0  0.38930  0.22158  0.14230  1.0000
  C   C738      1.0  0.37957  0.21857  0.14074  1.0000
  C   C739      1.0  0.36989  0.23007  0.15087  1.0000
  H   H1138     1.0  0.37977  0.25681  0.17506  1.0000
  H   H1139     1.0  0.39685  0.23778  0.15584  1.0000
  H   H1140     1.0  0.37952  0.20787  0.13122  1.0000
  H   H1141     1.0  0.36243  0.22826  0.14905  1.0000
  N   N70       1.0  0.32424  0.33005  0.25575  1.0000
  H   H1142     1.0  0.42691  0.07716  0.21932  1.0000
  N   N71       1.0  0.38874  0.17963  0.00990  1.0000
  H   H1143     1.0  0.35067  0.21848  0.18320  1.0000
  C   C740      1.0  0.33715  0.27281  0.07170  1.0000
  C   C741      1.0  0.34173  0.27307  0.05020  1.0000
  H   H1144     1.0  0.44396  0.09636  0.05604  1.0000
  H   H1145     1.0  0.35537  0.16701  0.08729  1.0000
  H   H1146     1.0  0.34855  0.28033  0.04250  1.0000
  H   H1147     1.0  0.37760  0.17436  0.03980  1.0000
  H   H1148     1.0  0.36440  0.28746  0.13171  1.0000
  H   H1149     1.0  0.33367  0.20424  0.06183  1.0000
  H   H1150     1.0  0.34162  0.15820  0.19726  1.0000
  H   H1151     1.0  0.33774  0.07669  0.06399  1.0000
  H   H1152     1.0  0.42137  0.02507  0.25228  1.0000
  N   N72       1.0  0.43217  0.04660  0.23900  1.0000
  C   C742      1.0  0.42997  0.02480  0.24504  1.0000
  C   C743      1.0  0.42923  0.05592  0.25796  1.0000
  C   C744      1.0  0.44368  0.04534  0.22951  1.0000
  Fe  Fe152     1.0  0.32857  0.24820  0.99901  1.0000
  H   H1153     1.0  0.33685  0.21760  0.18792  1.0000
  H   H1154     1.0  0.44602  0.04048  0.21402  1.0000
  H   H1155     1.0  0.36577  0.32029  0.08862  1.0000
  C   C745      1.0  0.32338  0.16430  0.02090  1.0000
  H   H1156     1.0  0.36057  0.15920  0.19129  1.0000
  C   C746      1.0  0.38233  0.16588  0.02693  1.0000
  H   H1157     1.0  0.37452  0.30279  0.11887  1.0000
  N   N73       1.0  0.43437  0.09391  0.08772  1.0000
  C   C747      1.0  0.33745  0.26413  0.03852  1.0000
  N   N74       1.0  0.35277  0.08514  0.04729  1.0000
  C   C748      1.0  0.34598  0.07433  0.06629  1.0000
  C   C749      1.0  0.34792  0.10833  0.04254  1.0000
  C   C750      1.0  0.35362  0.07584  0.02914  1.0000
  C   C751      1.0  0.36353  0.08214  0.05119  1.0000
  H   H1158     1.0  0.37670  0.16074  0.02077  1.0000
  H   H1159     1.0  0.34531  0.08073  0.08036  1.0000
  H   H1160     1.0  0.33996  0.11123  0.03873  1.0000
  H   H1161     1.0  0.34680  0.11567  0.05622  1.0000
  H   H1162     1.0  0.35301  0.11707  0.02867  1.0000
  H   H1163     1.0  0.35899  0.08309  0.01474  1.0000
  C   C752      1.0  0.38163  0.28540  0.08410  1.0000
  H   H1164     1.0  0.38467  0.30006  0.08202  1.0000
  H   H1165     1.0  0.36316  0.08883  0.06493  1.0000
  H   H1166     1.0  0.36880  0.09035  0.03722  1.0000
  H   H1167     1.0  0.36755  0.06488  0.05457  1.0000
  H   H1168     1.0  0.34568  0.07874  0.02517  1.0000
  S   S301      1.0  0.46940  0.05694  0.31240  1.0000
  H   H1169     1.0  0.33851  0.17319  0.21759  1.0000
  H   H1170     1.0  0.43465  0.01395  0.25677  1.0000
  H   H1171     1.0  0.44585  0.06102  0.22689  1.0000
  H   H1172     1.0  0.33748  0.30631  0.26603  1.0000
  H   H1173     1.0  0.35692  0.05823  0.03241  1.0000
  H   H1174     1.0  0.33881  0.35802  0.18230  1.0000
  C   C753      1.0  0.39616  0.18587  0.01871  1.0000
  H   H1175     1.0  0.32464  0.20861  0.08609  1.0000
  H   H1176     1.0  0.37332  0.25177  0.10687  1.0000
  H   H1177     1.0  0.36221  0.30417  0.07506  1.0000
  C   C754      1.0  0.42373  0.08969  0.09918  1.0000
  Fe  Fe153     1.0  0.48276  0.06868  0.23362  1.0000
  H   H1178     1.0  0.42813  0.05462  0.20843  1.0000
  H   H1179     1.0  0.43922  0.99790  0.31031  1.0000
  H   H1180     1.0  0.44876  0.03353  0.23993  1.0000
  H   H1181     1.0  0.42890  0.12820  0.08172  1.0000
  H   H1182     1.0  0.33483  0.34626  0.22982  1.0000
  C   C755      1.0  0.34847  0.17308  0.07936  1.0000
  H   H1183     1.0  0.36463  0.18435  0.18381  1.0000
  H   H1184     1.0  0.32743  0.18314  0.07939  1.0000
  C   C756      1.0  0.33110  0.19651  0.07876  1.0000
  H   H1185     1.0  0.32394  0.33099  0.28767  1.0000
  N   N75       1.0  0.34776  0.18698  0.18781  1.0000
  C   C757      1.0  0.35814  0.17597  0.19365  1.0000
  H   H1186     1.0  0.34369  0.20824  0.20930  1.0000
  C   C758      1.0  0.34876  0.18850  0.16504  1.0000
  C   C759      1.0  0.34461  0.20876  0.19224  1.0000
  H   H1187     1.0  0.33284  0.33156  0.17067  1.0000
  H   H1188     1.0  0.35780  0.17522  0.21053  1.0000
  H   H1189     1.0  0.42058  0.05733  0.26543  1.0000
  H   H1190     1.0  0.34293  0.17192  0.12058  1.0000
  H   H1191     1.0  0.32527  0.36324  0.24600  1.0000
  C   C760      1.0  0.33626  0.17889  0.11212  1.0000
  C   C761      1.0  0.33038  0.35823  0.18542  1.0000
  H   H1192     1.0  0.47691  0.09682  0.29684  1.0000
  S   S302      1.0  0.32757  0.26633  0.18238  1.0000
  H   H1193     1.0  0.38752  0.15101  0.03424  1.0000
  H   H1194     1.0  0.42293  0.07364  0.09852  1.0000
  H   H1195     1.0  0.33159  0.18267  0.19623  1.0000
  H   H1196     1.0  0.35969  0.26611  0.11291  1.0000
  C   C762      1.0  0.38153  0.19909  0.00058  1.0000
  H   H1197     1.0  0.40117  0.19612  0.00624  1.0000
  C   C763      1.0  0.33952  0.17469  0.20032  1.0000
  H   H1198     1.0  0.33829  0.21956  0.09702  1.0000
  C   C764      1.0  0.47877  0.06660  0.31931  1.0000
  H   H1199     1.0  0.39180  0.19493  0.03134  1.0000
  H   H1200     1.0  0.34705  0.21611  0.07220  1.0000
  C   C765      1.0  0.34445  0.20756  0.08884  1.0000
  N   N76       1.0  0.34008  0.18901  0.08976  1.0000
  H   H1201     1.0  0.35137  0.20254  0.09660  1.0000
  H   H1202     1.0  0.40168  0.17153  0.02595  1.0000
  H   H1203     1.0  0.43090  0.07235  0.25387  1.0000
  H   H1204     1.0  0.44838  0.01591  0.27544  1.0000
  H   H1205     1.0  0.37566  0.19489  0.99426  1.0000
  H   H1206     1.0  0.36617  0.26505  0.08605  1.0000
  H   H1207     1.0  0.44295  0.11908  0.08075  1.0000
  H   H1208     1.0  0.34932  0.05676  0.07023  1.0000
  C   C766      1.0  0.32701  0.34322  0.17882  1.0000
  H   H1209     1.0  0.33607  0.30682  0.24007  1.0000
  H   H1210     1.0  0.43554  0.07720  0.06364  1.0000
  H   H1211     1.0  0.41728  0.10181  0.09226  1.0000
  H   H1212     1.0  0.37692  0.20896  0.01243  1.0000
  H   H1213     1.0  0.33040  0.19075  0.12077  1.0000
  H   H1214     1.0  0.37819  0.27406  0.12617  1.0000
  H   H1215     1.0  0.35149  0.18006  0.06242  1.0000
  H   H1216     1.0  0.41710  0.06109  0.22979  1.0000
  H   H1217     1.0  0.45081  0.08019  0.08929  1.0000
  H   H1218     1.0  0.34100  0.26444  0.02194  1.0000
  H   H1219     1.0  0.44239  0.06105  0.09692  1.0000
  H   H1220     1.0  0.43364  0.11662  0.10582  1.0000
  C   C767      1.0  0.37210  0.28772  0.11981  1.0000
  N   N77       1.0  0.37111  0.28615  0.09896  1.0000
  H   H1221     1.0  0.35526  0.30597  0.10146  1.0000
  C   C768      1.0  0.36329  0.30501  0.09064  1.0000
  C   C769      1.0  0.44266  0.07750  0.09748  1.0000
  H   H1222     1.0  0.44152  0.07792  0.11445  1.0000
  C   C770      1.0  0.43603  0.09314  0.06526  1.0000
  H   H1223     1.0  0.42981  0.10542  0.05766  1.0000
  H   H1224     1.0  0.38770  0.27127  0.08996  1.0000
  C   C771      1.0  0.32831  0.26351  0.08149  1.0000
  H   H1225     1.0  0.42219  0.09022  0.11619  1.0000
  S   S303      1.0  0.48208  0.04027  0.26060  1.0000
  C   C772      1.0  0.32855  0.25496  0.04832  1.0000
  H   H1226     1.0  0.34536  0.15884  0.08009  1.0000
  C   C773      1.0  0.45224  0.00035  0.28306  1.0000
  S   S304      1.0  0.32314  0.24292  0.03453  1.0000
  C   C774      1.0  0.48082  0.08700  0.30947  1.0000
  C   C775      1.0  0.39491  0.16763  0.99328  1.0000
  S   S305      1.0  0.46839  0.00256  0.24780  1.0000
  H   H1227     1.0  0.40064  0.15312  0.99943  1.0000
  H   H1228     1.0  0.32349  0.46150  0.32286  1.0000
  C   C776      1.0  0.33154  0.30873  0.25630  1.0000
  S   S306      1.0  0.32426  0.41308  0.25484  1.0000
  Fe  Fe154     1.0  0.32475  0.25052  0.15945  1.0000
  H   H1229     1.0  0.32466  0.26337  0.09800  1.0000
  H   H1230     1.0  0.32674  0.17101  0.03046  1.0000
  C   C777      1.0  0.32401  0.25470  0.06979  1.0000
  H   H1231     1.0  0.32796  0.16760  0.00421  1.0000
  H   H1232     1.0  0.48704  0.01132  0.21751  1.0000
  H   H1233     1.0  0.32489  0.14654  0.02665  1.0000
  S   S307      1.0  0.32440  0.13902  0.08266  1.0000
  C   C778      1.0  0.32290  0.37344  0.19608  1.0000
  S   S308      1.0  0.32332  0.08937  0.10767  1.0000
  Fe  Fe155     1.0  0.32263  0.29746  0.16016  1.0000
  C   C779      1.0  0.48757  0.09514  0.31665  1.0000
  H   H1234     1.0  0.33100  0.13013  0.98981  1.0000
  H   H1235     1.0  0.48211  0.03843  0.34371  1.0000
  N   N78       1.0  0.45352  0.01312  0.35476  1.0000
  H   H1236     1.0  0.46146  0.01600  0.37733  1.0000
  H   H1237     1.0  0.48042  0.00992  0.37988  1.0000
  H   H1238     1.0  0.46123  0.03775  0.35460  1.0000
  H   H1239     1.0  0.44933  0.03574  0.37487  1.0000
  H   H1240     1.0  0.44001  0.00630  0.37972  1.0000
  C   C780      1.0  0.45650  0.02625  0.36588  1.0000
  C   C781      1.0  0.46329  0.00113  0.34278  1.0000
  H   H1241     1.0  0.43940  0.03662  0.34841  1.0000
  C   C782      1.0  0.44681  0.02718  0.33997  1.0000
  C   C783      1.0  0.48372  0.05416  0.33593  1.0000
  H   H1242     1.0  0.33325  0.45190  0.65298  1.0000
  C   C784      1.0  0.44746  0.99785  0.37044  1.0000
  H   H1243     1.0  0.44443  0.01764  0.33148  1.0000
  H   H1244     1.0  0.46794  0.01220  0.33049  1.0000
  H   H1245     1.0  0.45116  0.03880  0.32779  1.0000
  C   C785      1.0  0.48648  0.99708  0.38616  1.0000
  Fe  Fe156     1.0  0.33059  0.22407  0.96526  1.0000
  S   S309      1.0  0.33744  0.24855  0.93861  1.0000
  Fe  Fe157     1.0  0.45919  0.99853  0.84586  1.0000
  C   C786      1.0  0.32707  0.46640  0.68890  1.0000
  H   H1246     1.0  0.48732  0.00771  0.85529  1.0000
  H   H1247     1.0  0.41670  0.10865  0.78913  1.0000
  H   H1248     1.0  0.34055  0.42871  0.68393  1.0000
  Fe  Fe158     1.0  0.34712  0.24880  0.96105  1.0000
  S   S310      1.0  0.36469  0.24827  0.95036  1.0000
  H   H1249     1.0  0.32600  0.16223  0.94187  1.0000
  C   C787      1.0  0.33158  0.45055  0.75039  1.0000
  S   S311      1.0  0.44393  0.01897  0.83690  1.0000
  Fe  Fe159     1.0  0.44949  0.04595  0.84170  1.0000
  Fe  Fe160     1.0  0.47254  0.03055  0.81914  1.0000
  H   H1250     1.0  0.39958  0.17765  0.97974  1.0000
  N   N79       1.0  0.32450  0.44752  0.68535  1.0000
  Fe  Fe161     1.0  0.39256  0.08461  0.95402  1.0000
  S   S312      1.0  0.39928  0.05998  0.93340  1.0000
  Fe  Fe162     1.0  0.39120  0.12940  0.95817  1.0000
  S   S313      1.0  0.39713  0.15972  0.94257  1.0000
  H   H1251     1.0  0.43628  0.09673  0.77684  1.0000
  C   C788      1.0  0.42726  0.07827  0.81624  1.0000
  H   H1252     1.0  0.42846  0.09452  0.81522  1.0000
  S   S314      1.0  0.40248  0.09803  0.96726  1.0000
  S   S315      1.0  0.38214  0.11649  0.94275  1.0000
  C   C789      1.0  0.40997  0.06454  0.91162  1.0000
  C   C790      1.0  0.42408  0.08359  0.89195  1.0000
  C   C791      1.0  0.41520  0.08106  0.90878  1.0000
  H   H1253     1.0  0.42813  0.09634  0.88995  1.0000
  H   H1254     1.0  0.41248  0.09178  0.91966  1.0000
  C   C792      1.0  0.33210  0.10118  0.95431  1.0000
  H   H1255     1.0  0.48572  0.02829  0.70182  1.0000
  C   C793      1.0  0.34998  0.10016  0.95784  1.0000
  C   C794      1.0  0.34324  0.09418  0.94867  1.0000
  H   H1256     1.0  0.41714  0.05060  0.81085  1.0000
  H   H1257     1.0  0.35855  0.09459  0.95355  1.0000
  H   H1258     1.0  0.34665  0.08402  0.93729  1.0000
  C   C795      1.0  0.47705  0.01720  0.74390  1.0000
  C   C796      1.0  0.33222  0.42794  0.69272  1.0000
  C   C797      1.0  0.37332  0.22335  0.94785  1.0000
  C   C798      1.0  0.38418  0.22276  0.93902  1.0000
  C   C799      1.0  0.39135  0.20318  0.93715  1.0000
  C   C800      1.0  0.38777  0.18398  0.94437  1.0000
  C   C801      1.0  0.37693  0.18441  0.95344  1.0000
  C   C802      1.0  0.36968  0.20414  0.95494  1.0000
  H   H1259     1.0  0.38704  0.23755  0.93350  1.0000
  H   H1260     1.0  0.39973  0.20292  0.93019  1.0000
  H   H1261     1.0  0.37416  0.16957  0.95932  1.0000
  H   H1262     1.0  0.36133  0.20448  0.96187  1.0000
  H   H1263     1.0  0.47774  0.05738  0.77680  1.0000
  N   N80       1.0  0.42560  0.07618  0.79612  1.0000
  C   C803      1.0  0.32775  0.11420  0.96912  1.0000
  Fe  Fe163     1.0  0.45428  0.02516  0.80421  1.0000
  H   H1264     1.0  0.45336  0.00947  0.73677  1.0000
  H   H1265     1.0  0.42336  0.05176  0.78324  1.0000
  H   H1266     1.0  0.33284  0.29202  0.90594  1.0000
  H   H1267     1.0  0.40942  0.03824  0.89926  1.0000
  C   C804      1.0  0.32515  0.45014  0.66252  1.0000
  C   C805      1.0  0.41355  0.05084  0.89727  1.0000
  H   H1268     1.0  0.43133  0.04193  0.80269  1.0000
  H   H1269     1.0  0.38605  0.20949  0.98712  1.0000
  C   C806      1.0  0.32864  0.31084  0.87647  1.0000
  C   C807      1.0  0.42786  0.06952  0.87800  1.0000
  C   C808      1.0  0.41593  0.09191  0.79093  1.0000
  S   S316      1.0  0.46398  0.02502  0.85324  1.0000
  C   C809      1.0  0.42249  0.05328  0.88052  1.0000
  C   C810      1.0  0.45057  0.00057  0.77084  1.0000
  S   S317      1.0  0.33518  0.27522  0.97533  1.0000
  H   H1270     1.0  0.40871  0.08928  0.80359  1.0000
  C   C811      1.0  0.42425  0.05421  0.79834  1.0000
  S   S318      1.0  0.35364  0.12087  0.98465  1.0000
  H   H1271     1.0  0.47100  0.02182  0.73397  1.0000
  S   S319      1.0  0.43921  0.07289  0.85752  1.0000
  S   S320      1.0  0.38099  0.07733  0.98526  1.0000
  C   C812      1.0  0.34556  0.11310  0.97271  1.0000
  H   H1272     1.0  0.48368  0.07210  0.73853  1.0000
  H   H1273     1.0  0.44241  0.06875  0.78239  1.0000
  H   H1274     1.0  0.42038  0.07529  0.82964  1.0000
  H   H1275     1.0  0.41443  0.09073  0.77583  1.0000
  H   H1276     1.0  0.33651  0.30590  0.86698  1.0000
  H   H1277     1.0  0.42520  0.04270  0.86954  1.0000
  H   H1278     1.0  0.43447  0.06658  0.82064  1.0000
  C   C813      1.0  0.43497  0.08033  0.77898  1.0000
  H   H1279     1.0  0.43409  0.07858  0.76358  1.0000
  S   S321      1.0  0.45026  0.02632  0.77362  1.0000
  C   C814      1.0  0.33204  0.47230  0.74511  1.0000
  S   S322      1.0  0.34131  0.22219  0.98633  1.0000
  N   N81       1.0  0.35741  0.16837  0.92190  1.0000
  C   C815      1.0  0.36782  0.17471  0.91276  1.0000
  C   C816      1.0  0.34890  0.18545  0.91353  1.0000
  C   C817      1.0  0.35513  0.16522  0.94516  1.0000
  C   C818      1.0  0.35773  0.14810  0.91632  1.0000
  H   H1280     1.0  0.37442  0.16239  0.91904  1.0000
  H   H1281     1.0  0.36774  0.19007  0.91662  1.0000
  H   H1282     1.0  0.36992  0.17696  0.89523  1.0000
  H   H1283     1.0  0.35050  0.18871  0.89596  1.0000
  H   H1284     1.0  0.34100  0.18089  0.91978  1.0000
  H   H1285     1.0  0.34812  0.20073  0.91829  1.0000
  H   H1286     1.0  0.34766  0.15917  0.95272  1.0000
  H   H1287     1.0  0.35409  0.18043  0.95018  1.0000
  H   H1288     1.0  0.36167  0.15329  0.95192  1.0000
  H   H1289     1.0  0.34996  0.14296  0.92312  1.0000
  H   H1290     1.0  0.36393  0.13477  0.92271  1.0000
  H   H1291     1.0  0.35948  0.14971  0.89889  1.0000
  Fe  Fe164     1.0  0.32488  0.27263  0.95493  1.0000
  Fe  Fe165     1.0  0.37151  0.11038  0.97508  1.0000
  S   S323      1.0  0.45855  0.05407  0.80808  1.0000
  S   S324      1.0  0.32365  0.33543  0.83913  1.0000
  C   C819      1.0  0.33446  0.12015  0.97828  1.0000
  H   H1292     1.0  0.33038  0.41329  0.69077  1.0000
  H   H1293     1.0  0.33510  0.46889  0.67954  1.0000
  S   S325      1.0  0.32981  0.19287  0.95978  1.0000
  H   H1294     1.0  0.43402  0.01212  0.94413  1.0000
  H   H1295     1.0  0.44940  0.01562  0.91337  1.0000
  H   H1296     1.0  0.32708  0.46457  0.70580  1.0000
  H   H1297     1.0  0.44053  0.02701  0.89552  1.0000
  H   H1298     1.0  0.42681  0.00790  0.89596  1.0000
  C   C820      1.0  0.42986  0.00870  0.93356  1.0000
  H   H1299     1.0  0.33935  0.47681  0.74450  1.0000
  H   H1300     1.0  0.47425  0.00540  0.75833  1.0000
  H   H1301     1.0  0.33859  0.43834  0.75353  1.0000
  C   C821      1.0  0.32325  0.48815  0.73975  1.0000
  N   N82       1.0  0.48778  0.00827  0.73219  1.0000
  C   C822      1.0  0.32658  0.30294  0.89851  1.0000
  H   H1302     1.0  0.42522  0.02439  0.92627  1.0000
  H   H1303     1.0  0.47700  0.03179  0.74909  1.0000
  C   C823      1.0  0.45223  0.99668  0.75063  1.0000
  H   H1304     1.0  0.33203  0.42570  0.70984  1.0000
  S   S326      1.0  0.32234  0.41730  0.75424  1.0000
  S   S327      1.0  0.37974  0.12615  0.98948  1.0000
  C   C824      1.0  0.44488  0.01158  0.90388  1.0000
  H   H1305     1.0  0.45080  0.00358  0.89162  1.0000
  C   C825      1.0  0.48616  0.05530  0.76973  1.0000
  H   H1306     1.0  0.32375  0.41230  0.87492  1.0000
  H   H1307     1.0  0.33083  0.37318  0.88100  1.0000
  N   N83       1.0  0.43751  0.99766  0.91730  1.0000
  S   S328      1.0  0.46897  0.00217  0.81271  1.0000
  H   H1308     1.0  0.38957  0.16213  0.98677  1.0000
  H   H1309     1.0  0.32664  0.03724  0.90418  1.0000
  H   H1310     1.0  0.32327  0.43618  0.65925  1.0000
  H   H1311     1.0  0.42397  0.99895  0.94366  1.0000
  S   S329      1.0  0.32379  0.09331  0.94284  1.0000
  H   H1312     1.0  0.32509  0.04845  0.93747  1.0000
  H   H1313     1.0  0.32322  0.36981  0.86431  1.0000
  C   C826      1.0  0.32291  0.37091  0.88073  1.0000
  C   C827      1.0  0.32218  0.44453  0.75123  1.0000
  C   C828      1.0  0.34448  0.55214  0.25014  1.0000
  H   H1314     1.0  0.34389  0.56596  0.23635  1.0000
  H   H1315     1.0  0.34337  0.57393  0.27932  1.0000
  C   C829      1.0  0.46724  0.96992  0.28311  1.0000
  H   H1316     1.0  0.33671  0.52212  0.28199  1.0000
  H   H1317     1.0  0.34412  0.53481  0.29176  1.0000
  C   C830      1.0  0.33664  0.53723  0.28627  1.0000
  H   H1318     1.0  0.32988  0.53925  0.30012  1.0000
  H   H1319     1.0  0.32485  0.54457  0.25731  1.0000
  C   C831      1.0  0.33576  0.57544  0.27468  1.0000
  H   H1320     1.0  0.33472  0.58995  0.26169  1.0000
  N   N84       1.0  0.33555  0.55592  0.26835  1.0000
  H   H1321     1.0  0.47497  0.96193  0.27540  1.0000
  H   H1322     1.0  0.34454  0.53754  0.24493  1.0000
  H   H1323     1.0  0.35234  0.54981  0.25420  1.0000
  C   C832      1.0  0.45213  0.97020  0.31312  1.0000
  H   H1324     1.0  0.46616  0.94459  0.31127  1.0000
  H   H1325     1.0  0.32915  0.57874  0.28841  1.0000
  C   C833      1.0  0.46227  0.96013  0.30339  1.0000
  H   H1326     1.0  0.48350  0.91725  0.31755  1.0000
  C   C834      1.0  0.44708  0.99019  0.30283  1.0000
  C   C835      1.0  0.46223  0.99012  0.27302  1.0000
  H   H1327     1.0  0.48500  0.97317  0.22807  1.0000
  C   C836      1.0  0.32531  0.55890  0.26228  1.0000
  H   H1328     1.0  0.32413  0.57303  0.24898  1.0000
  C   C837      1.0  0.35296  0.65101  0.53048  1.0000
  C   C838      1.0  0.33439  0.60474  0.63654  1.0000
  C   C839      1.0  0.33492  0.62296  0.37408  1.0000
  H   H1329     1.0  0.33477  0.62334  0.60465  1.0000
  H   H1330     1.0  0.32316  0.66770  0.40013  1.0000
  H   H1331     1.0  0.33940  0.63158  0.35987  1.0000
  S   S330      1.0  0.32606  0.58902  0.63451  1.0000
  N   N85       1.0  0.33718  0.59072  0.56843  1.0000
  Fe  Fe166     1.0  0.34385  0.65664  0.42212  1.0000
  C   C840      1.0  0.34014  0.84264  0.52626  1.0000
  S   S331      1.0  0.35717  0.64455  0.63898  1.0000
  H   H1332     1.0  0.36850  0.92991  0.63266  1.0000
  C   C841      1.0  0.35414  0.65267  0.50875  1.0000
  C   C842      1.0  0.33770  0.62040  0.61883  1.0000
  H   H1333     1.0  0.32507  0.60869  0.58936  1.0000
  C   C843      1.0  0.32964  0.68543  0.62965  1.0000
  H   H1334     1.0  0.32777  0.79600  0.38860  1.0000
  H   H1335     1.0  0.34304  0.68459  0.65353  1.0000
  C   C844      1.0  0.35837  0.66229  0.53751  1.0000
  H   H1336     1.0  0.32908  0.76947  0.44442  1.0000
  C   C845      1.0  0.37475  0.83339  0.57506  1.0000
  H   H1337     1.0  0.40430  0.90493  0.63202  1.0000
  H   H1338     1.0  0.32643  0.95061  0.63225  1.0000
  C   C846      1.0  0.33569  0.62472  0.39400  1.0000
  H   H1339     1.0  0.34521  0.60680  0.53835  1.0000
  N   N86       1.0  0.33132  0.76724  0.41212  1.0000
  C   C847      1.0  0.32992  0.61326  0.41219  1.0000
  H   H1340     1.0  0.35347  0.80706  0.51464  1.0000
  C   C848      1.0  0.34482  0.63235  0.61927  1.0000
  C   C849      1.0  0.34859  0.62905  0.63759  1.0000
  C   C850      1.0  0.34805  0.79673  0.61357  1.0000
  C   C851      1.0  0.33809  0.60152  0.65495  1.0000
  H   H1341     1.0  0.34744  0.64403  0.60538  1.0000
  H   H1342     1.0  0.33189  0.62482  0.56613  1.0000
  S   S332      1.0  0.33195  0.65310  0.45318  1.0000
  H   H1343     1.0  0.35259  0.57524  0.57569  1.0000
  C   C852      1.0  0.44319  0.88904  0.64612  1.0000
  H   H1344     1.0  0.34548  0.78853  0.53177  1.0000
  C   C853      1.0  0.34149  0.59259  0.54541  1.0000
  S   S333      1.0  0.34715  0.63907  0.49987  1.0000
  H   H1345     1.0  0.39633  0.82308  0.56774  1.0000
  S   S334      1.0  0.34399  0.64130  0.39523  1.0000
  H   H1346     1.0  0.34775  0.64130  0.54187  1.0000
  H   H1347     1.0  0.32663  0.78804  0.60129  1.0000
  H   H1348     1.0  0.37154  0.80969  0.63937  1.0000
  Fe  Fe167     1.0  0.34502  0.65604  0.46683  1.0000
  S   S335      1.0  0.35750  0.65695  0.43628  1.0000
  N   N87       1.0  0.44671  0.86284  0.49197  1.0000
  H   H1349     1.0  0.44534  0.90136  0.63239  1.0000
  C   C854      1.0  0.44295  0.88522  0.48109  1.0000
  S   S336      1.0  0.35943  0.72215  0.42143  1.0000
  N   N88       1.0  0.34761  0.74096  0.49480  1.0000
  C   C855      1.0  0.35163  0.76100  0.60745  1.0000
  C   C856      1.0  0.41037  0.72319  0.51675  1.0000
  H   H1350     1.0  0.40468  0.68606  0.53890  1.0000
  S   S337      1.0  0.33367  0.86690  0.59642  1.0000
  Fe  Fe168     1.0  0.33232  0.89116  0.61512  1.0000
  S   S338      1.0  0.34022  0.91908  0.60600  1.0000
  C   C857      1.0  0.41052  0.79977  0.38734  1.0000
  H   H1351     1.0  0.33061  0.61395  0.42762  1.0000
  S   S339      1.0  0.33913  0.80974  0.43720  1.0000
  S   S340      1.0  0.47446  0.90730  0.39934  1.0000
  S   S341      1.0  0.46178  0.90108  0.36584  1.0000
  Fe  Fe169     1.0  0.45789  0.90418  0.39972  1.0000
  S   S342      1.0  0.44791  0.88426  0.42742  1.0000
  Fe  Fe170     1.0  0.47784  0.90679  0.36477  1.0000
  Fe  Fe171     1.0  0.40295  0.81402  0.63058  1.0000
  S   S343      1.0  0.39755  0.84142  0.60505  1.0000
  H   H1352     1.0  0.37842  0.84758  0.56718  1.0000
  S   S344      1.0  0.41425  0.86625  0.61199  1.0000
  H   H1353     1.0  0.36170  0.75083  0.47418  1.0000
  H   H1354     1.0  0.38942  0.80065  0.54144  1.0000
  H   H1355     1.0  0.43761  0.88609  0.47062  1.0000
  Fe  Fe172     1.0  0.41500  0.84178  0.59385  1.0000
  S   S345      1.0  0.42143  0.84602  0.55866  1.0000
  N   N89       1.0  0.39986  0.72050  0.53054  1.0000
  S   S346      1.0  0.42058  0.81321  0.61847  1.0000
  Fe  Fe173     1.0  0.40731  0.81165  0.44596  1.0000
  S   S347      1.0  0.39968  0.82437  0.47557  1.0000
  S   S348      1.0  0.41891  0.82652  0.41760  1.0000
  Fe  Fe174     1.0  0.39644  0.77285  0.46188  1.0000
  S   S349      1.0  0.38853  0.78224  0.49293  1.0000
  S   S350      1.0  0.39461  0.74088  0.45837  1.0000
  Fe  Fe175     1.0  0.38496  0.81543  0.47365  1.0000
  S   S351      1.0  0.36819  0.83338  0.48342  1.0000
  Fe  Fe176     1.0  0.40396  0.78999  0.49235  1.0000
  S   S352      1.0  0.41046  0.77808  0.52212  1.0000
  S   S353      1.0  0.39201  0.80595  0.44226  1.0000
  S   S354      1.0  0.41242  0.77747  0.46297  1.0000
  C   C858      1.0  0.41863  0.82698  0.54838  1.0000
  C   C859      1.0  0.41529  0.83338  0.52917  1.0000
  C   C860      1.0  0.41298  0.81841  0.52078  1.0000
  C   C861      1.0  0.41405  0.79690  0.53147  1.0000
  C   C862      1.0  0.41760  0.79041  0.55050  1.0000
  C   C863      1.0  0.41974  0.80546  0.55911  1.0000
  H   H1356     1.0  0.41428  0.85005  0.52093  1.0000
  H   H1357     1.0  0.41038  0.82359  0.50604  1.0000
  H   H1358     1.0  0.41847  0.77378  0.55888  1.0000
  H   H1359     1.0  0.42235  0.80036  0.57392  1.0000
  C   C864      1.0  0.43957  0.86915  0.42395  1.0000
  C   C865      1.0  0.43209  0.86100  0.44154  1.0000
  C   C866      1.0  0.42574  0.84799  0.43979  1.0000
  C   C867      1.0  0.42670  0.84310  0.42032  1.0000
  C   C868      1.0  0.43405  0.85150  0.40262  1.0000
  C   C869      1.0  0.44045  0.86444  0.40441  1.0000
  H   H1360     1.0  0.43109  0.86484  0.45660  1.0000
  H   H1361     1.0  0.42008  0.84180  0.45351  1.0000
  H   H1362     1.0  0.43484  0.84791  0.38745  1.0000
  H   H1363     1.0  0.44615  0.87056  0.39071  1.0000
  H   H1364     1.0  0.41741  0.89497  0.63748  1.0000
  H   H1365     1.0  0.32449  0.82044  0.53909  1.0000
  H   H1366     1.0  0.40962  0.73853  0.50467  1.0000
  H   H1367     1.0  0.41591  0.81026  0.37643  1.0000
  C   C870      1.0  0.34734  0.81650  0.44955  1.0000
  C   C871      1.0  0.34354  0.83422  0.45910  1.0000
  C   C872      1.0  0.34996  0.83937  0.46953  1.0000
  C   C873      1.0  0.36014  0.82665  0.47065  1.0000
  C   C874      1.0  0.36379  0.80847  0.46176  1.0000
  C   C875      1.0  0.35745  0.80356  0.45096  1.0000
  H   H1368     1.0  0.33575  0.84432  0.45805  1.0000
  H   H1369     1.0  0.34710  0.85348  0.47629  1.0000
  H   H1370     1.0  0.37147  0.79811  0.46324  1.0000
  H   H1371     1.0  0.36031  0.78966  0.44392  1.0000
  C   C876      1.0  0.35282  0.91111  0.61278  1.0000
  S   S355      1.0  0.35238  0.81631  0.61987  1.0000
  Fe  Fe177     1.0  0.35166  0.69298  0.43165  1.0000
  C   C877      1.0  0.36931  0.88464  0.61729  1.0000
  C   C878      1.0  0.36601  0.91894  0.62666  1.0000
  C   C879      1.0  0.35625  0.92523  0.62021  1.0000
  C   C880      1.0  0.37025  0.82576  0.64295  1.0000
  C   C881      1.0  0.33481  0.76080  0.43242  1.0000
  C   C882      1.0  0.45320  0.85003  0.47616  1.0000
  C   C883      1.0  0.36886  0.72721  0.43279  1.0000
  C   C884      1.0  0.37062  0.74817  0.42814  1.0000
  C   C885      1.0  0.37825  0.75276  0.43629  1.0000
  C   C886      1.0  0.38433  0.73635  0.44899  1.0000
  C   C887      1.0  0.38251  0.71545  0.45375  1.0000
  C   C888      1.0  0.37475  0.71093  0.44590  1.0000
  H   H1372     1.0  0.36611  0.76093  0.41802  1.0000
  H   H1373     1.0  0.37957  0.76891  0.43239  1.0000
  H   H1374     1.0  0.38719  0.70257  0.46346  1.0000
  H   H1375     1.0  0.37356  0.69471  0.44950  1.0000
  C   C889      1.0  0.32844  0.61009  0.37233  1.0000
  C   C890      1.0  0.39204  0.80982  0.57595  1.0000
  H   H1376     1.0  0.40720  0.77112  0.60532  1.0000
  H   H1377     1.0  0.41407  0.70989  0.50819  1.0000
  H   H1378     1.0  0.34851  0.79845  0.56249  1.0000
  C   C891      1.0  0.40116  0.70012  0.54647  1.0000
  C   C892      1.0  0.35485  0.77670  0.61289  1.0000
  C   C893      1.0  0.32871  0.60989  0.57216  1.0000
  C   C894      1.0  0.33794  0.80101  0.60901  1.0000
  S   S356      1.0  0.45208  0.94001  0.39230  1.0000
  C   C895      1.0  0.32996  0.81712  0.55002  1.0000
  S   S357      1.0  0.44567  0.95847  0.33828  1.0000
  H   H1379     1.0  0.34011  0.73784  0.40256  1.0000
  H   H1380     1.0  0.34921  0.60383  0.57327  1.0000
  H   H1381     1.0  0.32357  0.67899  0.62619  1.0000
  H   H1382     1.0  0.33643  0.71179  0.64420  1.0000
  S   S358      1.0  0.33827  0.86732  0.64202  1.0000
  C   C896      1.0  0.36509  0.67498  0.52281  1.0000
  H   H1383     1.0  0.33549  0.74326  0.43908  1.0000
  H   H1384     1.0  0.33040  0.70085  0.61802  1.0000
  H   H1385     1.0  0.47684  0.83854  0.64928  1.0000
  H   H1386     1.0  0.33879  0.55650  0.57501  1.0000
  H   H1387     1.0  0.43238  0.85282  0.49371  1.0000
  C   C897      1.0  0.40991  0.90725  0.64039  1.0000
  H   H1388     1.0  0.33512  0.59454  0.53683  1.0000
  H   H1389     1.0  0.34727  0.75891  0.39387  1.0000
  H   H1390     1.0  0.41600  0.72371  0.52607  1.0000
  H   H1391     1.0  0.34928  0.73602  0.46369  1.0000
  H   H1392     1.0  0.37296  0.83225  0.59246  1.0000
  C   C898      1.0  0.43739  0.85346  0.50420  1.0000
  S   S359      1.0  0.37747  0.67373  0.58907  1.0000
  C   C899      1.0  0.33920  0.75549  0.39669  1.0000
  H   H1393     1.0  0.33741  0.67389  0.62671  1.0000
  H   H1394     1.0  0.36695  0.83660  0.57049  1.0000
  N   N90       1.0  0.38191  0.81350  0.56932  1.0000
  H   H1395     1.0  0.35708  0.74583  0.60657  1.0000
  C   C900      1.0  0.48450  0.97631  0.39440  1.0000
  H   H1396     1.0  0.36491  0.83734  0.63287  1.0000
  H   H1397     1.0  0.34487  0.73888  0.52830  1.0000
  H   H1398     1.0  0.39070  0.80839  0.59330  1.0000
  H   H1399     1.0  0.45227  0.98703  0.38188  1.0000
  C   C901      1.0  0.33454  0.78493  0.60432  1.0000
  H   H1400     1.0  0.36427  0.72631  0.49340  1.0000
  H   H1401     1.0  0.36001  0.75155  0.50140  1.0000
  H   H1402     1.0  0.36189  0.66661  0.47734  1.0000
  Fe  Fe178     1.0  0.37551  0.70612  0.59632  1.0000
  H   H1403     1.0  0.43612  0.87471  0.62947  1.0000
  C   C902      1.0  0.34662  0.72846  0.48062  1.0000
  H   H1404     1.0  0.44974  0.89249  0.47078  1.0000
  Fe  Fe179     1.0  0.46897  0.94291  0.38840  1.0000
  H   H1405     1.0  0.39422  0.75417  0.53008  1.0000
  C   C903      1.0  0.34589  0.58906  0.57886  1.0000
  H   H1406     1.0  0.37665  0.81862  0.54042  1.0000
  H   H1407     1.0  0.38448  0.71910  0.52735  1.0000
  H   H1408     1.0  0.33684  0.75979  0.38119  1.0000
  C   C904      1.0  0.35888  0.74252  0.49079  1.0000
  C   C905      1.0  0.38335  0.76019  0.63471  1.0000
  H   H1409     1.0  0.34304  0.58665  0.59636  1.0000
  H   H1410     1.0  0.38825  0.82894  0.53745  1.0000
  Fe  Fe180     1.0  0.36742  0.69149  0.56515  1.0000
  Fe  Fe181     1.0  0.45697  0.93710  0.35848  1.0000
  N   N91       1.0  0.34077  0.82018  0.53825  1.0000
  C   C906      1.0  0.34520  0.80558  0.52334  1.0000
  H   H1411     1.0  0.41182  0.92329  0.63279  1.0000
  H   H1412     1.0  0.37720  0.76422  0.64819  1.0000
  H   H1413     1.0  0.34030  0.80941  0.51123  1.0000
  C   C907      1.0  0.42522  0.77622  0.40226  1.0000
  H   H1414     1.0  0.46007  0.85713  0.46604  1.0000
  S   S360      1.0  0.47336  0.94250  0.35394  1.0000
  H   H1415     1.0  0.40639  0.70001  0.55691  1.0000
  C   C908      1.0  0.33262  0.57133  0.57735  1.0000
  C   C909      1.0  0.34777  0.81537  0.55333  1.0000
  H   H1416     1.0  0.37812  0.83044  0.63798  1.0000
  C   C910      1.0  0.38236  0.74518  0.62439  1.0000
  C   C911      1.0  0.34142  0.76487  0.60359  1.0000
  H   H1417     1.0  0.43076  0.78652  0.39164  1.0000
  H   H1418     1.0  0.33567  0.72860  0.52062  1.0000
  H   H1419     1.0  0.33014  0.80039  0.55944  1.0000
  H   H1420     1.0  0.39334  0.69765  0.55697  1.0000
  C   C912      1.0  0.34076  0.76269  0.49063  1.0000
  Fe  Fe182     1.0  0.36158  0.67201  0.61197  1.0000
  H   H1421     1.0  0.45627  0.84601  0.51496  1.0000
  C   C913      1.0  0.34415  0.73006  0.51706  1.0000
  H   H1422     1.0  0.34911  0.71353  0.52061  1.0000
  H   H1423     1.0  0.32632  0.82805  0.56129  1.0000
  H   H1424     1.0  0.37533  0.79296  0.59778  1.0000
  S   S361      1.0  0.38459  0.89145  0.63418  1.0000
  Fe  Fe183     1.0  0.41851  0.83795  0.63778  1.0000
  H   H1425     1.0  0.38195  0.77979  0.57627  1.0000
  H   H1426     1.0  0.40058  0.73924  0.55143  1.0000
  H   H1427     1.0  0.42220  0.78212  0.41722  1.0000
  S   S362      1.0  0.33744  0.74453  0.59774  1.0000
  H   H1428     1.0  0.42512  0.75181  0.37639  1.0000
  H   H1429     1.0  0.39176  0.73484  0.50479  1.0000
  C   C914      1.0  0.45327  0.86266  0.50652  1.0000
  H   H1430     1.0  0.40381  0.80128  0.37984  1.0000
  H   H1431     1.0  0.39554  0.70618  0.50980  1.0000
  H   H1432     1.0  0.35682  0.87984  0.60533  1.0000
  H   H1433     1.0  0.42993  0.75953  0.40609  1.0000
  H   H1434     1.0  0.36255  0.77313  0.61687  1.0000
  H   H1435     1.0  0.44843  0.84935  0.46524  1.0000
  C   C915      1.0  0.39260  0.72016  0.51756  1.0000
  H   H1436     1.0  0.40708  0.80660  0.40174  1.0000
  C   C916      1.0  0.40021  0.76416  0.61057  1.0000
  C   C917      1.0  0.39529  0.73855  0.54147  1.0000
  H   H1437     1.0  0.42628  0.77835  0.36133  1.0000
  N   N92       1.0  0.41634  0.77723  0.39257  1.0000
  S   S363      1.0  0.34002  0.69171  0.46271  1.0000
  C   C918      1.0  0.36084  0.66543  0.49412  1.0000
  H   H1438     1.0  0.33836  0.79492  0.40090  1.0000
  H   H1439     1.0  0.45638  0.83319  0.48382  1.0000
  H   H1440     1.0  0.44855  0.87195  0.51883  1.0000
  C   C919      1.0  0.39230  0.76969  0.62794  1.0000
  H   H1441     1.0  0.40564  0.76990  0.42266  1.0000
  H   H1442     1.0  0.37440  0.86912  0.61585  1.0000
  H   H1443     1.0  0.40203  0.76470  0.40111  1.0000
  H   H1444     1.0  0.40558  0.74443  0.58733  1.0000
  H   H1445     1.0  0.39746  0.79463  0.57235  1.0000
  H   H1446     1.0  0.34813  0.84541  0.51682  1.0000
  C   C920      1.0  0.38411  0.81553  0.54616  1.0000
  H   H1447     1.0  0.37553  0.73772  0.63002  1.0000
  H   H1448     1.0  0.38737  0.73709  0.55202  1.0000
  C   C921      1.0  0.39927  0.74896  0.60042  1.0000
  H   H1449     1.0  0.41418  0.76934  0.36532  1.0000
  H   H1450     1.0  0.41301  0.74698  0.41198  1.0000
  H   H1451     1.0  0.33820  0.72703  0.48316  1.0000
  S   S364      1.0  0.35178  0.68753  0.58726  1.0000
  C   C922      1.0  0.40895  0.76414  0.40765  1.0000
  H   H1452     1.0  0.44516  0.98751  0.36268  1.0000
  S   S365      1.0  0.33930  0.69277  0.41461  1.0000
  H   H1453     1.0  0.35129  0.94099  0.62126  1.0000
  C   C923      1.0  0.42067  0.76880  0.37302  1.0000
  C   C924      1.0  0.37258  0.89870  0.62518  1.0000
  S   S366      1.0  0.39338  0.78768  0.64221  1.0000
  H   H1454     1.0  0.34136  0.77273  0.50085  1.0000
  S   S367      1.0  0.37169  0.69007  0.53075  1.0000
  S   S368      1.0  0.36658  0.72372  0.57066  1.0000
  Fe  Fe184     1.0  0.35193  0.71796  0.59518  1.0000
  C   C925      1.0  0.43790  0.87398  0.64443  1.0000
  H   H1455     1.0  0.34308  0.77124  0.47387  1.0000
  C   C926      1.0  0.33524  0.69636  0.65548  1.0000
  Fe  Fe185     1.0  0.32820  0.68899  0.44628  1.0000
  C   C927      1.0  0.39039  0.73925  0.60736  1.0000
  C   C928      1.0  0.35936  0.89073  0.61135  1.0000
  H   H1456     1.0  0.37166  0.68593  0.48978  1.0000
  H   H1457     1.0  0.46032  0.86982  0.49783  1.0000
  H   H1458     1.0  0.35163  0.71191  0.48332  1.0000
  S   S369      1.0  0.47173  0.97199  0.39612  1.0000
  S   S370      1.0  0.38992  0.71934  0.59472  1.0000
  H   H1459     1.0  0.35739  0.66105  0.55426  1.0000
  H   H1460     1.0  0.34455  0.82593  0.56500  1.0000
  S   S371      1.0  0.36064  0.70255  0.62155  1.0000
  C   C929      1.0  0.36638  0.67634  0.50116  1.0000
  H   H1461     1.0  0.33218  0.76204  0.49366  1.0000
  Fe  Fe186     1.0  0.33828  0.84312  0.62479  1.0000
  H   H1462     1.0  0.36898  0.79737  0.57619  1.0000
  N   N93       1.0  0.32678  0.68836  0.65165  1.0000
  H   H1463     1.0  0.43218  0.86305  0.51592  1.0000
  H   H1464     1.0  0.34278  0.76437  0.43034  1.0000
  Fe  Fe187     1.0  0.39727  0.86284  0.62575  1.0000
  H   H1465     1.0  0.33269  0.81662  0.60912  1.0000
  H   H1466     1.0  0.43987  0.83678  0.51318  1.0000
  H   H1467     1.0  0.43837  0.89554  0.49255  1.0000
  C   C930      1.0  0.37680  0.79510  0.58029  1.0000
  H   H1468     1.0  0.33478  0.84692  0.51492  1.0000
  H   H1469     1.0  0.35594  0.81780  0.54494  1.0000
  H   H1470     1.0  0.32603  0.57200  0.56985  1.0000
  H   H1471     1.0  0.32477  0.79995  0.41517  1.0000
  H   H1472     1.0  0.34774  0.57823  0.54190  1.0000
  H   H1473     1.0  0.33695  0.85413  0.53699  1.0000
  C   C931      1.0  0.33050  0.79055  0.40378  1.0000
  H   H1474     1.0  0.46865  0.99072  0.35339  1.0000
  Fe  Fe188     1.0  0.32256  0.82172  0.45417  1.0000
  C   C932      1.0  0.34517  0.61365  0.65545  1.0000
  C   C933      1.0  0.32346  0.60037  0.41045  1.0000
  H   H1475     1.0  0.32927  0.56961  0.59473  1.0000
  H   H1476     1.0  0.32796  0.60895  0.35690  1.0000
  H   H1477     1.0  0.46135  0.99063  0.33463  1.0000
  C   C934      1.0  0.32267  0.59862  0.39054  1.0000
  S   S372      1.0  0.40135  0.83569  0.65244  1.0000
  H   H1478     1.0  0.32214  0.61187  0.56407  1.0000
  H   H1479     1.0  0.48855  0.86299  0.64735  1.0000
  C   C935      1.0  0.48562  0.91031  0.85390  1.0000
  C   C936      1.0  0.47678  0.89321  0.78008  1.0000
  H   H1480     1.0  0.42052  0.89742  0.67173  1.0000
  C   C937      1.0  0.36346  0.84730  0.66929  1.0000
  C   C938      1.0  0.35556  0.81761  0.67184  1.0000
  H   H1481     1.0  0.47624  0.87725  0.79077  1.0000
  S   S373      1.0  0.47788  0.91580  0.67915  1.0000
  H   H1482     1.0  0.48296  0.89040  0.76558  1.0000
  H   H1483     1.0  0.39623  0.93792  0.65925  1.0000
  H   H1484     1.0  0.47251  0.93616  0.77032  1.0000
  Fe  Fe189     1.0  0.47357  0.94634  0.69101  1.0000
  H   H1485     1.0  0.35779  0.85876  0.65983  1.0000
  S   S374      1.0  0.45286  0.90735  0.66599  1.0000
  H   H1486     1.0  0.35993  0.84775  0.68623  1.0000
  S   S375      1.0  0.45588  0.94739  0.69877  1.0000
  Fe  Fe190     1.0  0.45858  0.92866  0.73089  1.0000
  S   S376      1.0  0.45022  0.93437  0.76341  1.0000
  S   S377      1.0  0.46137  0.89668  0.72266  1.0000
  H   H1487     1.0  0.33113  0.92188  0.66244  1.0000
  C   C939      1.0  0.47645  0.90727  0.86958  1.0000
  H   H1488     1.0  0.47905  0.96473  0.83843  1.0000
  C   C940      1.0  0.48321  0.86725  0.66220  1.0000
  H   H1489     1.0  0.47252  0.92192  0.81760  1.0000
  C   C941      1.0  0.41278  0.90932  0.67361  1.0000
  H   H1490     1.0  0.41461  0.92553  0.66669  1.0000
  H   H1491     1.0  0.34972  0.82785  0.66221  1.0000
  S   S378      1.0  0.45894  0.96750  0.86982  1.0000
  H   H1492     1.0  0.47568  0.89121  0.87827  1.0000
  H   H1493     1.0  0.48165  0.99256  0.71545  1.0000
  H   H1494     1.0  0.43584  0.84432  0.69467  1.0000
  C   C942      1.0  0.44312  0.87195  0.68276  1.0000
  H   H1495     1.0  0.44501  0.87105  0.69766  1.0000
  C   C943      1.0  0.45052  0.95980  0.76610  1.0000
  C   C944      1.0  0.45239  0.97621  0.74824  1.0000
  H   H1496     1.0  0.48495  0.97630  0.73981  1.0000
  C   C945      1.0  0.47087  0.91103  0.80944  1.0000
  H   H1497     1.0  0.34806  0.61097  0.66970  1.0000
  C   C946      1.0  0.44890  0.96369  0.78632  1.0000
  H   H1498     1.0  0.45366  0.97331  0.73258  1.0000
  H   H1499     1.0  0.44952  0.96854  0.91576  1.0000
  H   H1500     1.0  0.44743  0.95106  0.80017  1.0000
  C   C947      1.0  0.47830  0.94879  0.84716  1.0000
  C   C948      1.0  0.46922  0.94571  0.86316  1.0000
  C   C949      1.0  0.46834  0.92492  0.87437  1.0000
  H   H1501     1.0  0.46134  0.92239  0.88672  1.0000
  C   C950      1.0  0.48660  0.83046  0.68152  1.0000
  C   C951      1.0  0.40327  0.88350  0.67274  1.0000
  H   H1502     1.0  0.37493  0.79403  0.67607  1.0000
  C   C952      1.0  0.48017  0.92827  0.77558  1.0000
  H   H1503     1.0  0.40952  0.90810  0.69090  1.0000
  H   H1504     1.0  0.46900  0.90026  0.77514  1.0000
  H   H1505     1.0  0.39128  0.92028  0.68343  1.0000
  Fe  Fe191     1.0  0.47854  0.89934  0.71283  1.0000
  N   N94       1.0  0.47820  0.84936  0.67561  1.0000
  H   H1506     1.0  0.47018  0.89568  0.82120  1.0000
  H   H1507     1.0  0.33331  0.69913  0.67182  1.0000
  C   C953      1.0  0.48744  0.98885  0.72585  1.0000
  H   H1508     1.0  0.48656  0.92610  0.76115  1.0000
  H   H1509     1.0  0.48204  0.93949  0.78298  1.0000
  H   H1510     1.0  0.35169  0.81743  0.68878  1.0000
  H   H1511     1.0  0.37004  0.81027  0.69559  1.0000
  S   S379      1.0  0.47581  0.92969  0.72366  1.0000
  Fe  Fe192     1.0  0.46027  0.91514  0.68953  1.0000
  C   C954      1.0  0.43787  0.85681  0.68103  1.0000
  N   N95       1.0  0.36561  0.82537  0.66564  1.0000
  H   H1512     1.0  0.39976  0.88140  0.69001  1.0000
  H   H1513     1.0  0.39769  0.87988  0.66520  1.0000
  S   S380      1.0  0.47934  0.97739  0.67623  1.0000
  C   C955      1.0  0.43162  0.99298  0.90400  1.0000
  H   H1514     1.0  0.46295  0.91834  0.80517  1.0000
  H   H1515     1.0  0.38101  0.81570  0.67379  1.0000
  N   N96       1.0  0.47938  0.90747  0.79051  1.0000
  H   H1516     1.0  0.44838  0.98015  0.93769  1.0000
  H   H1517     1.0  0.35698  0.80106  0.66927  1.0000
  C   C956      1.0  0.37320  0.81075  0.67839  1.0000
  C   C957      1.0  0.48654  0.93112  0.84265  1.0000
  C   C958      1.0  0.47178  0.84396  0.66382  1.0000
  H   H1518     1.0  0.33563  0.58948  0.66868  1.0000
  H   H1519     1.0  0.46711  0.84298  0.70545  1.0000
  H   H1520     1.0  0.46758  0.83099  0.67367  1.0000
  H   H1521     1.0  0.42604  0.98236  0.91357  1.0000
  H   H1522     1.0  0.48445  0.98124  0.86516  1.0000
  C   C959      1.0  0.39504  0.92125  0.66634  1.0000
  S   S381      1.0  0.42852  0.83820  0.66072  1.0000
  H   H1523     1.0  0.43842  0.96638  0.93799  1.0000
  C   C960      1.0  0.44372  0.97729  0.92768  1.0000
  H   H1524     1.0  0.47581  0.85987  0.70440  1.0000
  H   H1525     1.0  0.43718  0.98480  0.89144  1.0000
  C   C961      1.0  0.44911  0.98395  0.78868  1.0000
  H   H1526     1.0  0.46487  0.87034  0.69110  1.0000
  H   H1527     1.0  0.37093  0.85357  0.66457  1.0000
  S   S382      1.0  0.32424  0.51525  0.73250  1.0000
  C   C962      1.0  0.43517  0.85775  0.66191  1.0000
  H   H1528     1.0  0.41079  0.87107  0.67068  1.0000
  H   H1529     1.0  0.48308  0.81666  0.69167  1.0000
  H   H1530     1.0  0.44784  0.98684  0.80433  1.0000
  H   H1531     1.0  0.33348  0.65552  0.66460  1.0000
  C   C963      1.0  0.47119  0.85590  0.69500  1.0000
  C   C964      1.0  0.32577  0.66755  0.66643  1.0000
  C   C965      1.0  0.44586  0.88818  0.66525  1.0000
  N   N97       1.0  0.40525  0.90534  0.66329  1.0000
  H   H1532     1.0  0.38922  0.91856  0.65870  1.0000
  H   H1533     1.0  0.48811  0.87175  0.67066  1.0000
  H   H1534     1.0  0.46555  0.85814  0.65875  1.0000
  S   S383      1.0  0.32320  0.53157  0.67228  1.0000
  H   H1535     1.0  0.32369  0.95936  0.66735  1.0000
  H   H1536     1.0  0.47706  0.88185  0.65760  1.0000
  H   H1537     1.0  0.48863  0.99137  0.83720  1.0000
  C   C966      1.0  0.32277  0.91959  0.66681  1.0000
  H   H1538     1.0  0.32343  0.66916  0.68321  1.0000
  H   H1539     1.0  0.32268  0.90701  0.65890  1.0000
  H   H1540     1.0  0.50903  0.08918  0.25671  1.0000
  H   H1541     1.0  0.51315  0.03190  0.28491  1.0000
  H   H1542     1.0  0.49609  0.00569  0.19348  1.0000
  H   H1543     1.0  0.54798  0.01816  0.27267  1.0000
  H   H1544     1.0  0.53306  0.04242  0.17775  1.0000
  S   S384      1.0  0.49844  0.07678  0.21478  1.0000
  C   C967      1.0  0.51482  0.04289  0.29287  1.0000
  C   C968      1.0  0.51904  0.07704  0.28916  1.0000
  H   H1545     1.0  0.52829  0.07228  0.24913  1.0000
  N   N98       1.0  0.51702  0.06288  0.27778  1.0000
  C   C969      1.0  0.54446  0.01097  0.30678  1.0000
  H   H1546     1.0  0.53375  0.04977  0.26786  1.0000
  C   C970      1.0  0.51058  0.03679  0.22845  1.0000
  H   H1547     1.0  0.50440  0.03528  0.24266  1.0000
  S   S385      1.0  0.54486  0.03659  0.30871  1.0000
  H   H1548     1.0  0.52595  0.06909  0.29688  1.0000
  C   C971      1.0  0.52768  0.02188  0.20756  1.0000
  H   H1549     1.0  0.50598  0.06382  0.25923  1.0000
  C   C972      1.0  0.52654  0.05761  0.26106  1.0000
  C   C973      1.0  0.50770  0.07394  0.26809  1.0000
  H   H1550     1.0  0.52178  0.03406  0.30023  1.0000
  H   H1551     1.0  0.51728  0.07221  0.18237  1.0000
  C   C974      1.0  0.52684  0.04081  0.19198  1.0000
  C   C975      1.0  0.51966  0.02006  0.22604  1.0000
  H   H1552     1.0  0.52542  0.04649  0.25247  1.0000
  C   C976      1.0  0.51790  0.05765  0.19457  1.0000
  H   H1553     1.0  0.50778  0.04635  0.30592  1.0000
  C   C977      1.0  0.50965  0.05553  0.21257  1.0000
  H   H1554     1.0  0.50010  0.01699  0.21065  1.0000
  H   H1555     1.0  0.52080  0.09224  0.27832  1.0000
  H   H1556     1.0  0.51201  0.08142  0.30185  1.0000
  H   H1557     1.0  0.50037  0.07797  0.28029  1.0000
  H   H1558     1.0  0.52044  0.00580  0.23841  1.0000
  H   H1559     1.0  0.48890  0.11116  0.30939  1.0000
  C   C978      1.0  0.54607  0.00626  0.28692  1.0000
  H   H1560     1.0  0.56344  0.99999  0.15533  1.0000
  C   C979      1.0  0.49556  0.00531  0.21035  1.0000
  S   S386      1.0  0.53870  0.00067  0.20303  1.0000
  H   H1561     1.0  0.57602  0.99690  0.16210  1.0000
  H   H1562     1.0  0.56388  0.99736  0.18228  1.0000
  S   S387      1.0  0.59468  0.17517  0.54605  1.0000
  Fe  Fe193     1.0  0.57978  0.11726  0.48241  1.0000
  S   S388      1.0  0.57598  0.14563  0.45608  1.0000
  S   S389      1.0  0.57340  0.11652  0.51723  1.0000
  Fe  Fe194     1.0  0.59593  0.09105  0.45279  1.0000
  S   S390      1.0  0.59366  0.11751  0.42451  1.0000
  S   S391      1.0  0.60605  0.05897  0.44758  1.0000
  Fe  Fe195     1.0  0.59388  0.13957  0.44454  1.0000
  S   S392      1.0  0.60477  0.16356  0.43081  1.0000
  Fe  Fe196     1.0  0.57605  0.12069  0.43860  1.0000
  S   S393      1.0  0.56598  0.12397  0.41461  1.0000
  S   S394      1.0  0.59759  0.11246  0.47166  1.0000
  S   S395      1.0  0.57836  0.09301  0.46609  1.0000
  Fe  Fe197     1.0  0.52030  0.02248  0.37963  1.0000
  S   S396      1.0  0.51411  0.05353  0.39073  1.0000
  H   H1563     1.0  0.57071  0.08709  0.61067  1.0000
  Fe  Fe198     1.0  0.53513  0.04236  0.34043  1.0000
  S   S397      1.0  0.53042  0.07473  0.34878  1.0000
  Fe  Fe199     1.0  0.53141  0.05660  0.38223  1.0000
  S   S398      1.0  0.53823  0.06096  0.40854  1.0000
  Fe  Fe200     1.0  0.51380  0.06868  0.35657  1.0000
  C   C980      1.0  0.62280  0.24319  0.63324  1.0000
  S   S399      1.0  0.53755  0.02446  0.37284  1.0000
  S   S400      1.0  0.51856  0.03743  0.34643  1.0000
  N   N99       1.0  0.58351  0.18711  0.39095  1.0000
  C   C981      1.0  0.64933  0.20976  0.60663  1.0000
  C   C982      1.0  0.62059  0.20092  0.63918  1.0000
  C   C983      1.0  0.62880  0.22656  0.64590  1.0000
  H   H1564     1.0  0.64235  0.28801  0.51939  1.0000
  Fe  Fe201     1.0  0.62690  0.24188  0.47252  1.0000
  S   S401      1.0  0.63679  0.22268  0.49615  1.0000
  C   C984      1.0  0.59446  0.17441  0.38512  1.0000
  H   H1565     1.0  0.58298  0.08777  0.40558  1.0000
  S   S402      1.0  0.65044  0.02274  0.47537  1.0000
  Fe  Fe202     1.0  0.63632  0.25387  0.50360  1.0000
  H   H1566     1.0  0.59621  0.16000  0.39779  1.0000
  C   C985      1.0  0.62767  0.20542  0.64876  1.0000
  C   C986      1.0  0.63844  0.27823  0.58043  1.0000
  C   C987      1.0  0.63505  0.26508  0.57155  1.0000
  C   C988      1.0  0.63653  0.26843  0.54951  1.0000
  H   H1567     1.0  0.63728  0.27551  0.59743  1.0000
  H   H1568     1.0  0.63135  0.25219  0.58179  1.0000
  S   S403      1.0  0.65146  0.25930  0.47988  1.0000
  C   C989      1.0  0.57071  0.11556  0.64587  1.0000
  C   C990      1.0  0.49251  0.08270  0.33330  1.0000
  H   H1569     1.0  0.63916  0.16880  0.45878  1.0000
  H   H1570     1.0  0.52843  0.99989  0.47204  1.0000
  H   H1571     1.0  0.62598  0.20700  0.44368  1.0000
  H   H1572     1.0  0.63177  0.10861  0.50419  1.0000
  H   H1573     1.0  0.54507  0.13838  0.58811  1.0000
  H   H1574     1.0  0.61057  0.25189  0.61517  1.0000
  C   C991      1.0  0.59556  0.03518  0.41100  1.0000
  H   H1575     1.0  0.62670  0.12558  0.52310  1.0000
  C   C992      1.0  0.55827  0.10626  0.41323  1.0000
  C   C993      1.0  0.55481  0.09067  0.43072  1.0000
  C   C994      1.0  0.54876  0.07701  0.42890  1.0000
  C   C995      1.0  0.54596  0.07875  0.40965  1.0000
  C   C996      1.0  0.54941  0.09437  0.39216  1.0000
  C   C997      1.0  0.55547  0.10803  0.39399  1.0000
  H   H1576     1.0  0.55662  0.08938  0.44579  1.0000
  H   H1577     1.0  0.54609  0.06517  0.44262  1.0000
  H   H1578     1.0  0.54732  0.09605  0.37725  1.0000
  H   H1579     1.0  0.55798  0.12011  0.38035  1.0000
  C   C998      1.0  0.60675  0.18133  0.44424  1.0000
  C   C999      1.0  0.59856  0.19028  0.45946  1.0000
  C   C1000     1.0  0.60020  0.20552  0.46867  1.0000
  C   C1001     1.0  0.61008  0.21170  0.46308  1.0000
  H   H1580     1.0  0.62420  0.11587  0.47333  1.0000
  C   C1002     1.0  0.61664  0.18746  0.43868  1.0000
  H   H1581     1.0  0.59089  0.18583  0.46385  1.0000
  H   H1582     1.0  0.59375  0.21264  0.48015  1.0000
  S   S404      1.0  0.64120  0.24659  0.44599  1.0000
  H   H1583     1.0  0.62303  0.18070  0.42685  1.0000
  C   C1003     1.0  0.61835  0.04989  0.45554  1.0000
  C   C1004     1.0  0.62361  0.02848  0.45577  1.0000
  C   C1005     1.0  0.63340  0.02042  0.46198  1.0000
  C   C1006     1.0  0.63810  0.03374  0.46779  1.0000
  C   C1007     1.0  0.63294  0.05532  0.46734  1.0000
  C   C1008     1.0  0.62301  0.06338  0.46133  1.0000
  H   H1584     1.0  0.62006  0.01799  0.45133  1.0000
  C   C1009     1.0  0.65178  0.39677  0.39910  1.0000
  H   H1585     1.0  0.63658  0.06573  0.47167  1.0000
  H   H1586     1.0  0.61904  0.07999  0.46096  1.0000
  C   C1010     1.0  0.58819  0.15930  0.53882  1.0000
  C   C1011     1.0  0.58614  0.16498  0.51844  1.0000
  C   C1012     1.0  0.58165  0.15185  0.51173  1.0000
  C   C1013     1.0  0.57894  0.13320  0.52558  1.0000
  C   C1014     1.0  0.58073  0.12779  0.54616  1.0000
  C   C1015     1.0  0.58539  0.14077  0.55275  1.0000
  H   H1587     1.0  0.58814  0.17948  0.50773  1.0000
  H   H1588     1.0  0.58023  0.15624  0.49587  1.0000
  H   H1589     1.0  0.57885  0.11324  0.55688  1.0000
  H   H1590     1.0  0.58686  0.13632  0.56854  1.0000
  H   H1591     1.0  0.60170  0.22207  0.57386  1.0000
  H   H1592     1.0  0.62047  0.16702  0.48911  1.0000
  H   H1593     1.0  0.60060  0.18387  0.38272  1.0000
  H   H1594     1.0  0.59568  0.16869  0.37038  1.0000
  C   C1016     1.0  0.61835  0.20238  0.44820  1.0000
  H   H1595     1.0  0.65096  0.10362  0.53724  1.0000
  C   C1017     1.0  0.60306  0.23719  0.56229  1.0000
  H   H1596     1.0  0.61353  0.13876  0.46857  1.0000
  H   H1597     1.0  0.62359  0.25954  0.63084  1.0000
  H   H1598     1.0  0.56494  0.09579  0.56328  1.0000
  H   H1599     1.0  0.61044  0.20217  0.54460  1.0000
  C   C1018     1.0  0.63623  0.14373  0.61810  1.0000
  H   H1600     1.0  0.57419  0.06595  0.43771  1.0000
  H   H1601     1.0  0.49434  0.05251  0.35571  1.0000
  H   H1602     1.0  0.64538  0.19971  0.46089  1.0000
  C   C1019     1.0  0.52805  0.00673  0.43107  1.0000
  H   H1603     1.0  0.59563  0.07504  0.41259  1.0000
  S   S405      1.0  0.63805  0.29459  0.64110  1.0000
  H   H1604     1.0  0.63733  0.00376  0.46233  1.0000
  H   H1605     1.0  0.59977  0.03561  0.39418  1.0000
  H   H1606     1.0  0.51423  0.00312  0.48206  1.0000
  S   S406      1.0  0.50087  0.09327  0.34216  1.0000
  H   H1607     1.0  0.64795  0.31186  0.53517  1.0000
  H   H1608     1.0  0.61994  0.18453  0.64135  1.0000
  H   H1609     1.0  0.49753  0.01766  0.38032  1.0000
  H   H1610     1.0  0.58227  0.05303  0.38407  1.0000
  H   H1611     1.0  0.59317  0.01944  0.41763  1.0000
  S   S407      1.0  0.64930  0.12474  0.46091  1.0000
  S   S408      1.0  0.57805  0.13170  0.65066  1.0000
  H   H1612     1.0  0.57776  0.03715  0.44255  1.0000
  C   C1020     1.0  0.51833  0.03555  0.44892  1.0000
  C   C1021     1.0  0.64938  0.14565  0.51953  1.0000
  H   H1613     1.0  0.63679  0.42970  0.41222  1.0000
  H   H1614     1.0  0.51165  0.04097  0.46173  1.0000
  C   C1022     1.0  0.61541  0.23879  0.62437  1.0000
  C   C1023     1.0  0.61419  0.21768  0.62740  1.0000
  H   H1615     1.0  0.65280  0.16012  0.51139  1.0000
  H   H1616     1.0  0.59377  0.07535  0.38709  1.0000
  H   H1617     1.0  0.52587  0.03768  0.45142  1.0000
  H   H1618     1.0  0.60147  0.03567  0.41973  1.0000
  H   H1619     1.0  0.64855  0.22375  0.61347  1.0000
  C   C1024     1.0  0.55899  0.08869  0.63992  1.0000
  S   S409      1.0  0.60393  0.21332  0.61789  1.0000
  Fe  Fe203     1.0  0.65056  0.29611  0.61071  1.0000
  C   C1025     1.0  0.57572  0.17347  0.39513  1.0000
  H   H1620     1.0  0.56735  0.18238  0.39973  1.0000
  H   H1621     1.0  0.57710  0.15929  0.40827  1.0000
  C   C1026     1.0  0.58094  0.05200  0.43554  1.0000
  H   H1622     1.0  0.50741  0.02146  0.42902  1.0000
  S   S410      1.0  0.55173  0.07223  0.63536  1.0000
  H   H1623     1.0  0.51699  0.04673  0.43373  1.0000
  C   C1027     1.0  0.64384  0.42409  0.41966  1.0000
  H   H1624     1.0  0.59104  0.21772  0.55135  1.0000
  N   N100      1.0  0.58621  0.05327  0.41295  1.0000
  C   C1028     1.0  0.64308  0.29517  0.56736  1.0000
  H   H1625     1.0  0.65190  0.22937  0.56507  1.0000
  H   H1626     1.0  0.65264  0.19039  0.57470  1.0000
  H   H1627     1.0  0.58663  0.19271  0.64392  1.0000
  C   C1029     1.0  0.58980  0.07376  0.40414  1.0000
  C   C1030     1.0  0.57856  0.05219  0.40118  1.0000
  Fe  Fe204     1.0  0.64585  0.25946  0.64669  1.0000
  H   H1628     1.0  0.58372  0.18138  0.42386  1.0000
  S   S411      1.0  0.63257  0.25096  0.53903  1.0000
  H   H1629     1.0  0.61294  0.15909  0.51555  1.0000
  Fe  Fe205     1.0  0.59838  0.16412  0.57854  1.0000
  S   S412      1.0  0.60572  0.14888  0.63351  1.0000
  C   C1031     1.0  0.58244  0.19493  0.41017  1.0000
  H   H1630     1.0  0.61075  0.23995  0.56350  1.0000
  H   H1631     1.0  0.57629  0.16715  0.38105  1.0000
  H   H1632     1.0  0.58848  0.20458  0.40791  1.0000
  S   S413      1.0  0.60094  0.13007  0.59692  1.0000
  H   H1633     1.0  0.64037  0.11885  0.55385  1.0000
  H   H1634     1.0  0.57322  0.21559  0.37722  1.0000
  H   H1635     1.0  0.64494  0.43802  0.42444  1.0000
  C   C1032     1.0  0.62084  0.13274  0.47521  1.0000
  H   H1636     1.0  0.59659  0.25055  0.56749  1.0000
  H   H1637     1.0  0.64189  0.41181  0.43435  1.0000
  H   H1638     1.0  0.58216  0.20033  0.35859  1.0000
  C   C1033     1.0  0.50899  0.01110  0.44441  1.0000
  S   S414      1.0  0.61320  0.17068  0.58283  1.0000
  C   C1034     1.0  0.65048  0.11421  0.60831  1.0000
  N   N101      1.0  0.51905  0.01306  0.44828  1.0000
  C   C1035     1.0  0.55734  0.09117  0.57284  1.0000
  S   S415      1.0  0.63133  0.11706  0.59908  1.0000
  H   H1639     1.0  0.62810  0.15272  0.61867  1.0000
  H   H1640     1.0  0.61296  0.10481  0.50954  1.0000
  H   H1641     1.0  0.58091  0.11072  0.61587  1.0000
  H   H1642     1.0  0.57147  0.06575  0.40224  1.0000
  H   H1643     1.0  0.57437  0.20502  0.41479  1.0000
  C   C1036     1.0  0.58142  0.20564  0.37336  1.0000
  H   H1644     1.0  0.52683  0.01709  0.41555  1.0000
  C   C1037     1.0  0.64122  0.28527  0.53639  1.0000
  Fe  Fe206     1.0  0.61490  0.13785  0.60361  1.0000
  C   C1038     1.0  0.49068  0.06207  0.34270  1.0000
  C   C1039     1.0  0.56810  0.09367  0.62474  1.0000
  N   N102      1.0  0.60336  0.23585  0.54055  1.0000
  H   H1645     1.0  0.60705  0.16412  0.49332  1.0000
  C   C1040     1.0  0.63987  0.12550  0.60933  1.0000
  H   H1646     1.0  0.58718  0.21622  0.36984  1.0000
  C   C1041     1.0  0.57390  0.10710  0.62765  1.0000
  H   H1647     1.0  0.60275  0.12833  0.50419  1.0000
  H   H1648     1.0  0.63450  0.13493  0.49735  1.0000
  S   S416      1.0  0.58794  0.17811  0.60593  1.0000
  C   C1042     1.0  0.61024  0.12211  0.51019  1.0000
  H   H1649     1.0  0.60814  0.12326  0.52710  1.0000
  H   H1650     1.0  0.62675  0.14242  0.46507  1.0000
  Fe  Fe207     1.0  0.64073  0.27617  0.45694  1.0000
  N   N103      1.0  0.61849  0.13435  0.49759  1.0000
  C   C1043     1.0  0.62830  0.12547  0.50600  1.0000
  C   C1044     1.0  0.61459  0.15713  0.49899  1.0000
  H   H1651     1.0  0.65245  0.10492  0.56248  1.0000
  H   H1652     1.0  0.57556  0.03707  0.40751  1.0000
  S   S417      1.0  0.61157  0.23135  0.47487  1.0000
  H   H1653     1.0  0.64199  0.21241  0.60058  1.0000
  H   H1654     1.0  0.64022  0.16413  0.63345  1.0000
  Fe  Fe208     1.0  0.59138  0.14427  0.62492  1.0000
  Fe  Fe209     1.0  0.60312  0.18156  0.61214  1.0000
  H   H1655     1.0  0.54606  0.11361  0.54412  1.0000
  H   H1656     1.0  0.60564  0.25554  0.50912  1.0000
  H   H1657     1.0  0.55548  0.08064  0.56461  1.0000
  S   S418      1.0  0.62547  0.27313  0.48150  1.0000
  H   H1658     1.0  0.55882  0.08134  0.58850  1.0000
  H   H1659     1.0  0.55908  0.12779  0.57914  1.0000
  C   C1045     1.0  0.64724  0.16667  0.46053  1.0000
  C   C1046     1.0  0.54724  0.12332  0.55408  1.0000
  H   H1660     1.0  0.54029  0.13713  0.55521  1.0000
  C   C1047     1.0  0.64310  0.15028  0.62633  1.0000
  H   H1661     1.0  0.58658  0.05200  0.44504  1.0000
  N   N104      1.0  0.54859  0.11026  0.57523  1.0000
  C   C1048     1.0  0.55122  0.12330  0.58695  1.0000
  H   H1662     1.0  0.61309  0.25918  0.52594  1.0000
  C   C1049     1.0  0.53857  0.10324  0.58706  1.0000
  H   H1663     1.0  0.55168  0.11438  0.60339  1.0000
  S   S419      1.0  0.64363  0.30535  0.43061  1.0000
  H   H1664     1.0  0.55442  0.13004  0.54537  1.0000
  H   H1665     1.0  0.59901  0.27010  0.52976  1.0000
  Fe  Fe210     1.0  0.65090  0.22976  0.47058  1.0000
  H   H1666     1.0  0.53183  0.11717  0.58963  1.0000
  H   H1667     1.0  0.53626  0.09361  0.57851  1.0000
  H   H1668     1.0  0.50199  0.01579  0.45701  1.0000
  H   H1669     1.0  0.53941  0.09302  0.60296  1.0000
  C   C1050     1.0  0.60535  0.25607  0.52569  1.0000
  H   H1670     1.0  0.61286  0.21691  0.51791  1.0000
  H   H1671     1.0  0.59331  0.22989  0.52365  1.0000
  C   C1051     1.0  0.64438  0.29876  0.54533  1.0000
  C   C1052     1.0  0.59305  0.23229  0.53958  1.0000
  H   H1672     1.0  0.58638  0.24609  0.54291  1.0000
  C   C1053     1.0  0.61204  0.21779  0.53457  1.0000
  H   H1673     1.0  0.61986  0.21941  0.53620  1.0000
  C   C1054     1.0  0.52088  0.99882  0.46869  1.0000
  S   S420      1.0  0.64726  0.31193  0.57836  1.0000
  H   H1674     1.0  0.64943  0.19536  0.61992  1.0000
  H   H1675     1.0  0.53578  0.00832  0.43315  1.0000
  C   C1055     1.0  0.65359  0.31937  0.42831  1.0000
  H   H1676     1.0  0.64055  0.15116  0.52391  1.0000
  H   H1677     1.0  0.64238  0.15200  0.55987  1.0000
  S   S421      1.0  0.65017  0.07135  0.50021  1.0000
  H   H1678     1.0  0.64489  0.40147  0.39127  1.0000
  H   H1679     1.0  0.65022  0.38361  0.41321  1.0000
  H   H1680     1.0  0.65123  0.13548  0.50774  1.0000
  C   C1056     1.0  0.49617  0.00154  0.38644  1.0000
  Fe  Fe211     1.0  0.65063  0.29947  0.65530  1.0000
  C   C1057     1.0  0.65077  0.18419  0.46177  1.0000
  C   C1058     1.0  0.65371  0.13896  0.62535  1.0000
  H   H1681     1.0  0.65331  0.10006  0.60163  1.0000
  H   H1682     1.0  0.65417  0.16263  0.54649  1.0000
  H   H1683     1.0  0.64912  0.43810  0.37745  1.0000
  C   C1059     1.0  0.64919  0.11450  0.54834  1.0000
  N   N105      1.0  0.65352  0.41524  0.40501  1.0000
  C   C1060     1.0  0.65118  0.14758  0.55371  1.0000
  N   N106      1.0  0.65382  0.13369  0.53834  1.0000
  C   C1061     1.0  0.65414  0.14650  0.46147  1.0000
  H   H1684     1.0  0.65419  0.30997  0.46129  1.0000
  H   H1685     1.0  0.65484  0.33171  0.39475  1.0000
  H   H1686     1.0  0.65480  0.13922  0.56767  1.0000
  H   H1687     1.0  0.54102  0.99882  0.34051  1.0000
  H   H1688     1.0  0.54861  0.09402  0.66961  1.0000
  H   H1689     1.0  0.61714  0.28449  0.74089  1.0000
  H   H1690     1.0  0.63909  0.25679  0.72708  1.0000
  N   N107      1.0  0.58603  0.18819  0.67701  1.0000
  C   C1062     1.0  0.58120  0.05743  0.67801  1.0000
  C   C1063     1.0  0.62756  0.26145  0.69822  1.0000
  H   H1691     1.0  0.50039  0.99849  0.87811  1.0000
  S   S422      1.0  0.63729  0.23165  0.65938  1.0000
  H   H1692     1.0  0.50564  0.01225  0.83907  1.0000
  H   H1693     1.0  0.56021  0.06879  0.69489  1.0000
  H   H1694     1.0  0.57661  0.02645  0.66596  1.0000
  S   S423      1.0  0.48960  0.03404  0.80937  1.0000
  S   S424      1.0  0.50446  0.07017  0.71117  1.0000
  H   H1695     1.0  0.60235  0.18148  0.66021  1.0000
  C   C1064     1.0  0.50540  0.00159  0.66822  1.0000
  H   H1696     1.0  0.62003  0.26356  0.69299  1.0000
  Fe  Fe212     1.0  0.54083  0.05388  0.66248  1.0000
  H   H1697     1.0  0.64346  0.27547  0.70345  1.0000
  H   H1698     1.0  0.61987  0.25656  0.74018  1.0000
  S   S425      1.0  0.52520  0.01723  0.70957  1.0000
  C   C1065     1.0  0.58574  0.21108  0.67508  1.0000
  H   H1699     1.0  0.56760  0.06119  0.71539  1.0000
  N   N108      1.0  0.57398  0.04299  0.69097  1.0000
  C   C1066     1.0  0.50460  0.04243  0.77283  1.0000
  C   C1067     1.0  0.62385  0.29894  0.69917  1.0000
  H   H1700     1.0  0.57930  0.16262  0.69919  1.0000
  H   H1701     1.0  0.56513  0.04824  0.66699  1.0000
  Fe  Fe213     1.0  0.54157  0.02297  0.70466  1.0000
  H   H1702     1.0  0.63393  0.26366  0.68365  1.0000
  C   C1068     1.0  0.49369  0.04473  0.78219  1.0000
  C   C1069     1.0  0.57932  0.17981  0.69752  1.0000
  C   C1070     1.0  0.49107  0.02444  0.71309  1.0000
  H   H1703     1.0  0.63653  0.28498  0.72699  1.0000
  C   C1071     1.0  0.50045  0.06082  0.73858  1.0000
  H   H1704     1.0  0.49937  0.01873  0.70452  1.0000
  H   H1705     1.0  0.55925  0.04450  0.71445  1.0000
  H   H1706     1.0  0.63003  0.30201  0.68441  1.0000
  N   N109      1.0  0.62657  0.27672  0.71140  1.0000
  S   S426      1.0  0.55292  0.00432  0.72569  1.0000
  H   H1707     1.0  0.58228  0.18091  0.71105  1.0000
  Fe  Fe214     1.0  0.52978  0.01512  0.67559  1.0000
  C   C1072     1.0  0.48953  0.06366  0.74805  1.0000
  H   H1708     1.0  0.62338  0.31096  0.70833  1.0000
  H   H1709     1.0  0.51642  0.04818  0.74381  1.0000
  C   C1073     1.0  0.61806  0.27320  0.73061  1.0000
  H   H1710     1.0  0.61021  0.27566  0.72649  1.0000
  H   H1711     1.0  0.57087  0.18889  0.69908  1.0000
  C   C1074     1.0  0.56488  0.05491  0.70451  1.0000
  C   C1075     1.0  0.63684  0.27329  0.71759  1.0000
  H   H1712     1.0  0.58417  0.06433  0.68805  1.0000
  H   H1713     1.0  0.62969  0.24445  0.70675  1.0000
  C   C1076     1.0  0.50799  0.05011  0.75098  1.0000
  H   H1714     1.0  0.59771  0.15841  0.67742  1.0000
  Fe  Fe215     1.0  0.52073  0.05264  0.69711  1.0000
  S   S427      1.0  0.53674  0.05883  0.69573  1.0000
  H   H1715     1.0  0.55902  0.11714  0.67513  1.0000
  C   C1077     1.0  0.56160  0.11057  0.66104  1.0000
  H   H1716     1.0  0.58671  0.01510  0.69485  1.0000
  S   S428      1.0  0.64864  0.31637  0.68225  1.0000
  H   H1717     1.0  0.49090  0.03971  0.71714  1.0000
  H   H1718     1.0  0.51045  0.03468  0.78248  1.0000
  H   H1719     1.0  0.49610  0.01698  0.75071  1.0000
  H   H1720     1.0  0.57749  0.22100  0.67562  1.0000
  H   H1721     1.0  0.52074  0.99984  0.78152  1.0000
  H   H1722     1.0  0.50731  0.01731  0.66334  1.0000
  S   S429      1.0  0.54665  0.01814  0.67152  1.0000
  H   H1723     1.0  0.58306  0.03011  0.71529  1.0000
  C   C1078     1.0  0.57987  0.02465  0.70450  1.0000
  H   H1724     1.0  0.57458  0.01357  0.71460  1.0000
  H   H1725     1.0  0.60067  0.17754  0.68825  1.0000
  C   C1079     1.0  0.59717  0.17584  0.67573  1.0000
  H   H1726     1.0  0.56477  0.02348  0.68612  1.0000
  C   C1080     1.0  0.53495  0.00205  0.75695  1.0000
  H   H1727     1.0  0.65285  0.32836  0.71682  1.0000
  H   H1728     1.0  0.61610  0.30225  0.69442  1.0000
  H   H1729     1.0  0.53154  0.01773  0.74856  1.0000
  H   H1730     1.0  0.58876  0.21340  0.68798  1.0000
  C   C1081     1.0  0.56996  0.03494  0.67688  1.0000
  C   C1082     1.0  0.49504  0.99948  0.66919  1.0000
  H   H1731     1.0  0.58827  0.04886  0.66790  1.0000
  S   S430      1.0  0.52431  0.05046  0.66297  1.0000
  C   C1083     1.0  0.49555  0.00261  0.74589  1.0000
  H   H1732     1.0  0.57706  0.07110  0.66723  1.0000
  H   H1733     1.0  0.48899  0.01365  0.66518  1.0000
  H   H1734     1.0  0.63236  0.19240  0.65835  1.0000
  C   C1084     1.0  0.55574  0.09730  0.65804  1.0000
  H   H1735     1.0  0.59084  0.21773  0.65979  1.0000
  H   H1736     1.0  0.57344  0.19461  0.66030  1.0000
  H   H1737     1.0  0.58235  0.16884  0.66008  1.0000
  C   C1085     1.0  0.58192  0.18598  0.65960  1.0000
  H   H1738     1.0  0.65394  0.89596  0.06493  1.0000
  H   H1739     1.0  0.64774  0.67670  0.14934  1.0000
  N   N110      1.0  0.64445  0.65944  0.18163  1.0000
  H   H1740     1.0  0.61085  0.91209  0.01898  1.0000
  S   S431      1.0  0.64346  0.72338  0.15003  1.0000
  C   C1086     1.0  0.64962  0.90522  0.11428  1.0000
  H   H1741     1.0  0.57239  0.96248  0.20255  1.0000
  H   H1742     1.0  0.64219  0.87329  0.00429  1.0000
  C   C1087     1.0  0.65082  0.81140  0.14795  1.0000
  Fe  Fe216     1.0  0.61906  0.87746  0.08742  1.0000
  S   S432      1.0  0.61021  0.87484  0.12122  1.0000
  S   S433      1.0  0.63189  0.89556  0.06959  1.0000
  Fe  Fe217     1.0  0.60986  0.84407  0.07988  1.0000
  S   S434      1.0  0.59999  0.83812  0.11304  1.0000
  S   S435      1.0  0.61369  0.82504  0.05467  1.0000
  Fe  Fe218     1.0  0.59624  0.87402  0.10924  1.0000
  S   S436      1.0  0.57941  0.89087  0.12229  1.0000
  Fe  Fe219     1.0  0.61444  0.83944  0.12308  1.0000
  S   S437      1.0  0.61894  0.81882  0.15318  1.0000
  S   S438      1.0  0.60476  0.87992  0.07480  1.0000
  S   S439      1.0  0.62468  0.84205  0.09051  1.0000
  S   S440      1.0  0.51187  0.92374  0.25324  1.0000
  Fe  Fe220     1.0  0.55200  0.92352  0.23121  1.0000
  S   S441      1.0  0.56779  0.90409  0.21647  1.0000
  S   S442      1.0  0.54155  0.91214  0.26277  1.0000
  H   H1743     1.0  0.64239  0.85638  0.11259  1.0000
  N   N111      1.0  0.49974  0.98347  0.22185  1.0000
  H   H1744     1.0  0.62614  0.85853  0.00937  1.0000
  H   H1745     1.0  0.50181  0.96748  0.25338  1.0000
  C   C1088     1.0  0.51112  0.97640  0.21202  1.0000
  C   C1089     1.0  0.57555  0.96095  0.15102  1.0000
  C   C1090     1.0  0.50685  0.91400  0.28026  1.0000
  C   C1091     1.0  0.49593  0.92004  0.28911  1.0000
  C   C1092     1.0  0.63688  0.67821  0.18898  1.0000
  H   H1746     1.0  0.63497  0.84572  0.13814  1.0000
  C   C1093     1.0  0.57617  0.89563  0.14809  1.0000
  C   C1094     1.0  0.58415  0.89479  0.15831  1.0000
  C   C1095     1.0  0.58143  0.89775  0.17915  1.0000
  C   C1096     1.0  0.57071  0.90167  0.18995  1.0000
  C   C1097     1.0  0.56269  0.90295  0.17966  1.0000
  C   C1098     1.0  0.56542  0.90003  0.15873  1.0000
  H   H1747     1.0  0.59242  0.89191  0.15018  1.0000
  H   H1748     1.0  0.58767  0.89689  0.18698  1.0000
  H   H1749     1.0  0.55439  0.90583  0.18792  1.0000
  H   H1750     1.0  0.55920  0.90076  0.15089  1.0000
  C   C1099     1.0  0.62599  0.79259  0.15159  1.0000
  C   C1100     1.0  0.62718  0.77744  0.17033  1.0000
  C   C1101     1.0  0.63258  0.75625  0.16964  1.0000
  C   C1102     1.0  0.63711  0.75026  0.15018  1.0000
  C   C1103     1.0  0.63614  0.76551  0.13133  1.0000
  C   C1104     1.0  0.63044  0.78665  0.13206  1.0000
  H   H1751     1.0  0.62380  0.78199  0.18545  1.0000
  H   H1752     1.0  0.63332  0.74451  0.18422  1.0000
  H   H1753     1.0  0.63948  0.76077  0.11632  1.0000
  H   H1754     1.0  0.62939  0.79828  0.11761  1.0000
  C   C1105     1.0  0.63863  0.89969  0.08669  1.0000
  H   H1755     1.0  0.64026  0.77271  0.07494  1.0000
  H   H1756     1.0  0.49424  0.96772  0.20414  1.0000
  C   C1106     1.0  0.63858  0.90638  0.12043  1.0000
  C   C1107     1.0  0.63311  0.90339  0.10674  1.0000
  N   N112      1.0  0.65182  0.83182  0.13246  1.0000
  H   H1757     1.0  0.63429  0.90937  0.13588  1.0000
  H   H1758     1.0  0.62459  0.90443  0.11153  1.0000
  C   C1108     1.0  0.59295  0.84812  0.00543  1.0000
  C   C1109     1.0  0.58988  0.85671  0.02362  1.0000
  C   C1110     1.0  0.59623  0.84985  0.03877  1.0000
  C   C1111     1.0  0.60566  0.83424  0.03583  1.0000
  C   C1112     1.0  0.60885  0.82593  0.01747  1.0000
  H   H1759     1.0  0.58248  0.86851  0.02611  1.0000
  H   H1760     1.0  0.59371  0.85635  0.05289  1.0000
  H   H1761     1.0  0.55526  0.96635  0.19379  1.0000
  H   H1762     1.0  0.64392  0.81383  0.16149  1.0000
  H   H1763     1.0  0.62099  0.86557  0.03475  1.0000
  H   H1764     1.0  0.63127  0.78491  0.00212  1.0000
  H   H1765     1.0  0.51221  0.97614  0.19509  1.0000
  H   H1766     1.0  0.64405  0.63166  0.17158  1.0000
  C   C1113     1.0  0.63958  0.79039  0.07143  1.0000
  H   H1767     1.0  0.63846  0.74531  0.00672  1.0000
  C   C1114     1.0  0.60254  0.83290  0.00225  1.0000
  H   H1768     1.0  0.58353  0.96520  0.14492  1.0000
  H   H1769     1.0  0.61621  0.81410  0.01503  1.0000
  H   H1770     1.0  0.57086  0.96841  0.13848  1.0000
  H   H1771     1.0  0.64768  0.82612  0.05808  1.0000
  H   H1772     1.0  0.56032  0.94440  0.18085  1.0000
  Fe  Fe221     1.0  0.53873  0.96904  0.22633  1.0000
  S   S443      1.0  0.55319  0.95297  0.24002  1.0000
  H   H1773     1.0  0.63962  0.83005  0.11825  1.0000
  H   H1774     1.0  0.63380  0.79993  0.03436  1.0000
  H   H1775     1.0  0.61305  0.87505  0.01507  1.0000
  H   H1776     1.0  0.50698  0.93766  0.31536  1.0000
  H   H1777     1.0  0.57773  0.93981  0.19044  1.0000
  C   C1115     1.0  0.55948  0.96195  0.17841  1.0000
  C   C1116     1.0  0.63692  0.88587  0.01280  1.0000
  C   C1117     1.0  0.57642  0.95761  0.18721  1.0000
  H   H1778     1.0  0.49018  0.98871  0.25220  1.0000
  H   H1779     1.0  0.63398  0.65503  0.16466  1.0000
  N   N113      1.0  0.56996  0.96803  0.17100  1.0000
  H   H1780     1.0  0.54618  0.98272  0.27016  1.0000
  H   H1781     1.0  0.62886  0.74467  0.99270  1.0000
  H   H1782     1.0  0.64498  0.64045  0.21311  1.0000
  H   H1783     1.0  0.63270  0.63998  0.19158  1.0000
  H   H1784     1.0  0.64696  0.79854  0.01780  1.0000
  H   H1785     1.0  0.64219  0.79410  0.08412  1.0000
  H   H1786     1.0  0.65083  0.77019  0.99089  1.0000
  C   C1118     1.0  0.49868  0.98368  0.24427  1.0000
  H   H1787     1.0  0.63706  0.87986  0.02991  1.0000
  C   C1119     1.0  0.54512  0.98615  0.28550  1.0000
  N   N114      1.0  0.58756  0.82892  0.19078  1.0000
  C   C1120     1.0  0.59716  0.81576  0.19866  1.0000
  C   C1121     1.0  0.59084  0.83968  0.16843  1.0000
  C   C1122     1.0  0.58198  0.84521  0.20362  1.0000
  C   C1123     1.0  0.58030  0.81500  0.19227  1.0000
  H   H1788     1.0  0.60292  0.82577  0.19722  1.0000
  H   H1789     1.0  0.60153  0.80323  0.18933  1.0000
  H   H1790     1.0  0.59507  0.80756  0.21557  1.0000
  H   H1791     1.0  0.59516  0.82775  0.15847  1.0000
  H   H1792     1.0  0.58384  0.84965  0.16171  1.0000
  H   H1793     1.0  0.59634  0.85034  0.16661  1.0000
  H   H1794     1.0  0.57479  0.85565  0.19785  1.0000
  H   H1795     1.0  0.58726  0.85587  0.20304  1.0000
  H   H1796     1.0  0.57925  0.83771  0.22055  1.0000
  H   H1797     1.0  0.57300  0.82452  0.18635  1.0000
  H   H1798     1.0  0.57766  0.80655  0.20892  1.0000
  H   H1799     1.0  0.58426  0.80259  0.18265  1.0000
  C   C1124     1.0  0.63851  0.64592  0.17719  1.0000
  H   H1800     1.0  0.49655  0.95183  0.22943  1.0000
  N   N115      1.0  0.62591  0.89112  0.00937  1.0000
  H   H1801     1.0  0.63109  0.67327  0.20385  1.0000
  C   C1125     1.0  0.64964  0.89882  0.08042  1.0000
  N   N116      1.0  0.64606  0.79792  0.05034  1.0000
  H   H1802     1.0  0.63096  0.79811  0.07257  1.0000
  C   C1126     1.0  0.51370  0.90019  0.29304  1.0000
  C   C1127     1.0  0.64242  0.79252  0.03396  1.0000
  C   C1128     1.0  0.64176  0.84142  0.12499  1.0000
  H   H1803     1.0  0.52209  0.89518  0.28627  1.0000
  S   S444      1.0  0.52711  0.96196  0.25704  1.0000
  Fe  Fe222     1.0  0.54150  0.94327  0.26995  1.0000
  H   H1804     1.0  0.63645  0.82998  0.04642  1.0000
  C   C1129     1.0  0.49362  0.96842  0.22077  1.0000
  C   C1130     1.0  0.56829  0.99161  0.16748  1.0000
  Fe  Fe223     1.0  0.52790  0.93163  0.24762  1.0000
  H   H1805     1.0  0.63225  0.68816  0.17683  1.0000
  C   C1131     1.0  0.63707  0.74700  0.99070  1.0000
  H   H1806     1.0  0.55418  0.97010  0.16702  1.0000
  H   H1807     1.0  0.64058  0.90018  0.00707  1.0000
  S   S445      1.0  0.54159  0.94532  0.30263  1.0000
  C   C1132     1.0  0.54296  0.97048  0.30391  1.0000
  C   C1133     1.0  0.50963  0.89211  0.31448  1.0000
  C   C1134     1.0  0.64492  0.82143  0.04614  1.0000
  S   S446      1.0  0.53827  0.94035  0.21533  1.0000
  C   C1135     1.0  0.49192  0.91252  0.31077  1.0000
  H   H1808     1.0  0.57684  0.94320  0.15325  1.0000
  H   H1809     1.0  0.64739  0.85046  0.15639  1.0000
  C   C1136     1.0  0.61928  0.90806  0.02076  1.0000
  H   H1810     1.0  0.62243  0.92302  0.01487  1.0000
  C   C1137     1.0  0.62133  0.87174  0.01750  1.0000
  H   H1811     1.0  0.49059  0.93058  0.27925  1.0000
  H   H1812     1.0  0.61918  0.90291  0.03800  1.0000
  H   H1813     1.0  0.51766  0.95148  0.30890  1.0000
  H   H1814     1.0  0.51449  0.95994  0.22019  1.0000
  H   H1815     1.0  0.50406  0.96532  0.31702  1.0000
  C   C1138     1.0  0.50984  0.94971  0.31988  1.0000
  H   H1816     1.0  0.64347  0.77482  0.03630  1.0000
  H   H1817     1.0  0.64956  0.79938  0.14064  1.0000
  C   C1139     1.0  0.65396  0.84682  0.14268  1.0000
  H   H1818     1.0  0.58441  0.96179  0.18218  1.0000
  H   H1819     1.0  0.51605  0.98717  0.21270  1.0000
  H   H1820     1.0  0.50311  0.99494  0.24576  1.0000
  H   H1821     1.0  0.64116  0.68897  0.19200  1.0000
  C   C1140     1.0  0.65515  0.90134  0.09430  1.0000
  C   C1141     1.0  0.65201  0.66697  0.16206  1.0000
  C   C1142     1.0  0.65039  0.64672  0.19819  1.0000
  H   H1822     1.0  0.64976  0.82753  0.03029  1.0000
  H   H1823     1.0  0.65483  0.65652  0.20219  1.0000
  H   H1824     1.0  0.65478  0.86236  0.13144  1.0000
  H   H1825     1.0  0.54022  0.96285  0.33797  1.0000
  S   S447      1.0  0.51572  0.99084  0.39774  1.0000
  H   H1826     1.0  0.50784  0.95194  0.41060  1.0000
  H   H1827     1.0  0.51597  0.95452  0.36397  1.0000
  H   H1828     1.0  0.51986  0.91690  0.36169  1.0000
  C   C1143     1.0  0.50195  0.96453  0.40350  1.0000
  C   C1144     1.0  0.50387  0.98536  0.39544  1.0000
  H   H1829     1.0  0.49080  0.94403  0.40969  1.0000
  C   C1145     1.0  0.49233  0.95997  0.40285  1.0000
  H   H1830     1.0  0.49443  0.95604  0.35511  1.0000
  H   H1831     1.0  0.50103  0.93438  0.37301  1.0000
  H   H1832     1.0  0.50886  0.97511  0.34617  1.0000
  C   C1146     1.0  0.50040  0.94053  0.35619  1.0000
  S   S448      1.0  0.49406  0.88893  0.35065  1.0000
  H   H1833     1.0  0.52150  0.98174  0.46864  1.0000
  C   C1147     1.0  0.51468  0.95941  0.34750  1.0000
  H   H1834     1.0  0.49714  0.92889  0.35201  1.0000
  H   H1835     1.0  0.52883  0.98991  0.42989  1.0000
  C   C1148     1.0  0.51863  0.92223  0.34519  1.0000
  N   N117      1.0  0.51089  0.94299  0.34219  1.0000
  H   H1836     1.0  0.52240  0.96209  0.33671  1.0000
  H   H1837     1.0  0.52658  0.92327  0.33442  1.0000
  C   C1149     1.0  0.54219  0.99537  0.32515  1.0000
  H   H1838     1.0  0.50933  0.99436  0.44358  1.0000
  H   H1839     1.0  0.51583  0.90937  0.34192  1.0000
  C   C1150     1.0  0.54167  0.97502  0.32370  1.0000
  H   H1840     1.0  0.51493  0.88100  0.32416  1.0000
  C   C1151     1.0  0.49876  0.89842  0.32345  1.0000
  C   C1152     1.0  0.63711  0.76902  0.95559  1.0000
  C   C1153     1.0  0.52886  0.99202  0.77564  1.0000
  C   C1154     1.0  0.48969  0.89745  0.79691  1.0000
  S   S449      1.0  0.64688  0.65767  0.94703  1.0000
  C   C1155     1.0  0.63056  0.78537  0.98592  1.0000
  H   H1841     1.0  0.55812  0.96417  0.75493  1.0000
  H   H1842     1.0  0.63454  0.75246  0.91638  1.0000
  H   H1843     1.0  0.63099  0.88641  0.97743  1.0000
  Fe  Fe224     1.0  0.60735  0.82902  0.92261  1.0000
  C   C1156     1.0  0.55709  0.80263  0.94359  1.0000
  S   S450      1.0  0.62522  0.82272  0.91213  1.0000
  Fe  Fe225     1.0  0.58532  0.85168  0.91353  1.0000
  Fe  Fe226     1.0  0.63724  0.68966  0.93389  1.0000
  S   S451      1.0  0.57472  0.87653  0.89307  1.0000
  H   H1844     1.0  0.63159  0.80139  0.97603  1.0000
  C   C1157     1.0  0.54031  0.93203  0.70318  1.0000
  S   S452      1.0  0.59678  0.86099  0.92679  1.0000
  S   S453      1.0  0.59671  0.82139  0.90614  1.0000
  Fe  Fe227     1.0  0.53586  0.87874  0.82442  1.0000
  S   S454      1.0  0.52357  0.90159  0.84278  1.0000
  S   S455      1.0  0.54937  0.85397  0.83746  1.0000
  Fe  Fe228     1.0  0.52578  0.89566  0.78560  1.0000
  S   S456      1.0  0.51295  0.91995  0.80066  1.0000
  S   S457      1.0  0.52595  0.89824  0.75146  1.0000
  Fe  Fe229     1.0  0.52595  0.92568  0.81206  1.0000
  S   S458      1.0  0.52550  0.95999  0.81025  1.0000
  Fe  Fe230     1.0  0.51171  0.89368  0.82960  1.0000
  S   S459      1.0  0.62042  0.69250  0.93169  1.0000
  S   S460      1.0  0.53907  0.90374  0.79446  1.0000
  S   S461      1.0  0.52369  0.86851  0.81376  1.0000
  H   H1845     1.0  0.62615  0.79319  0.85944  1.0000
  C   C1158     1.0  0.62608  0.89883  0.98650  1.0000
  C   C1159     1.0  0.50037  0.96092  0.68010  1.0000
  H   H1846     1.0  0.64452  0.74390  0.88186  1.0000
  C   C1160     1.0  0.54838  0.96006  0.70406  1.0000
  H   H1847     1.0  0.49939  0.90879  0.70996  1.0000
  C   C1161     1.0  0.51080  0.96299  0.67870  1.0000
  H   H1848     1.0  0.65142  0.51257  0.90892  1.0000
  H   H1849     1.0  0.63551  0.55014  0.88800  1.0000
  C   C1162     1.0  0.49248  0.97917  0.67509  1.0000
  H   H1850     1.0  0.62100  0.73296  0.94061  1.0000
  H   H1851     1.0  0.63258  0.80234  0.87456  1.0000
  H   H1852     1.0  0.62574  0.73956  0.89580  1.0000
  H   H1853     1.0  0.49327  0.99069  0.76063  1.0000
  H   H1854     1.0  0.61790  0.90281  0.98338  1.0000
  H   H1855     1.0  0.49849  0.94519  0.68459  1.0000
  H   H1856     1.0  0.55622  0.95248  0.69516  1.0000
  H   H1857     1.0  0.53550  0.91987  0.71236  1.0000
  H   H1858     1.0  0.64676  0.63297  0.86162  1.0000
  N   N118      1.0  0.55710  0.81166  0.92090  1.0000
  H   H1859     1.0  0.54371  0.91625  0.74265  1.0000
  S   S462      1.0  0.64456  0.84566  0.97690  1.0000
  H   H1860     1.0  0.55948  0.78477  0.94696  1.0000
  H   H1861     1.0  0.64275  0.73356  0.98394  1.0000
  H   H1862     1.0  0.50281  0.84989  0.75675  1.0000
  H   H1863     1.0  0.65230  0.56672  0.91418  1.0000
  H   H1864     1.0  0.54997  0.96919  0.71403  1.0000
  H   H1865     1.0  0.57389  0.81156  0.91152  1.0000
  S   S463      1.0  0.57718  0.83562  0.94544  1.0000
  C   C1163     1.0  0.61062  0.71576  0.93579  1.0000
  H   H1866     1.0  0.54910  0.80728  0.95381  1.0000
  H   H1867     1.0  0.54948  0.93722  0.74360  1.0000
  H   H1868     1.0  0.54717  0.94605  0.78777  1.0000
  H   H1869     1.0  0.61504  0.76288  0.89672  1.0000
  H   H1870     1.0  0.57065  0.78708  0.91157  1.0000
  C   C1164     1.0  0.54930  0.80370  0.91475  1.0000
  H   H1871     1.0  0.49633  0.89466  0.78304  1.0000
  H   H1872     1.0  0.54403  0.97186  0.69231  1.0000
  H   H1873     1.0  0.64740  0.77009  0.87332  1.0000
  H   H1874     1.0  0.65190  0.64935  0.88541  1.0000
  H   H1875     1.0  0.59831  0.70272  0.93203  1.0000
  C   C1165     1.0  0.53322  0.97179  0.78666  1.0000
  H   H1876     1.0  0.51691  0.94875  0.68208  1.0000
  C   C1166     1.0  0.55412  0.83537  0.91710  1.0000
  H   H1877     1.0  0.49185  0.90772  0.80499  1.0000
  C   C1167     1.0  0.56788  0.80487  0.90813  1.0000
  C   C1168     1.0  0.54373  0.96158  0.77907  1.0000
  H   H1878     1.0  0.64113  0.76108  0.85777  1.0000
  S   S464      1.0  0.58405  0.77533  0.94389  1.0000
  H   H1879     1.0  0.49761  0.97202  0.88818  1.0000
  C   C1169     1.0  0.51552  0.89110  0.74551  1.0000
  C   C1170     1.0  0.51072  0.90453  0.72906  1.0000
  C   C1171     1.0  0.50294  0.89847  0.72285  1.0000
  C   C1172     1.0  0.50017  0.87864  0.73260  1.0000
  C   C1173     1.0  0.50493  0.86523  0.74914  1.0000
  C   C1174     1.0  0.51251  0.87157  0.75578  1.0000
  H   H1880     1.0  0.51311  0.91953  0.72089  1.0000
  C   C1175     1.0  0.51334  0.98333  0.67276  1.0000
  H   H1881     1.0  0.49906  0.94925  0.86303  1.0000
  H   H1882     1.0  0.51631  0.86101  0.76828  1.0000
  C   C1176     1.0  0.56818  0.87043  0.87660  1.0000
  C   C1177     1.0  0.57166  0.85116  0.86958  1.0000
  C   C1178     1.0  0.56593  0.84649  0.85723  1.0000
  C   C1179     1.0  0.55674  0.86105  0.85174  1.0000
  C   C1180     1.0  0.55342  0.88053  0.85834  1.0000
  C   C1181     1.0  0.55914  0.88520  0.87067  1.0000
  H   H1883     1.0  0.57876  0.83995  0.87363  1.0000
  H   H1884     1.0  0.56864  0.83155  0.85187  1.0000
  H   H1885     1.0  0.54640  0.89193  0.85410  1.0000
  H   H1886     1.0  0.55647  0.90024  0.87585  1.0000
  C   C1182     1.0  0.59212  0.73472  0.93758  1.0000
  C   C1183     1.0  0.60018  0.71645  0.93483  1.0000
  H   H1887     1.0  0.55336  0.84264  0.90044  1.0000
  H   H1888     1.0  0.62896  0.76729  0.95617  1.0000
  H   H1889     1.0  0.58406  0.73497  0.93693  1.0000
  H   H1890     1.0  0.62233  0.75648  0.87169  1.0000
  C   C1184     1.0  0.63064  0.83027  0.92932  1.0000
  C   C1185     1.0  0.62393  0.83962  0.94591  1.0000
  C   C1186     1.0  0.62829  0.84475  0.96016  1.0000
  C   C1187     1.0  0.63938  0.84031  0.95803  1.0000
  C   C1188     1.0  0.64611  0.83095  0.94146  1.0000
  C   C1189     1.0  0.64174  0.82606  0.92704  1.0000
  H   H1891     1.0  0.61535  0.84291  0.94785  1.0000
  C   C1190     1.0  0.61299  0.73356  0.93953  1.0000
  H   H1892     1.0  0.60503  0.82644  0.98816  1.0000
  H   H1893     1.0  0.64697  0.81886  0.91421  1.0000
  N   N119      1.0  0.50117  0.98188  0.85427  1.0000
  H   H1894     1.0  0.63883  0.56942  0.91183  1.0000
  C   C1191     1.0  0.54813  0.92881  0.73267  1.0000
  N   N120      1.0  0.54214  0.94390  0.71708  1.0000
  Fe  Fe231     1.0  0.58933  0.80594  0.93900  1.0000
  S   S465      1.0  0.60089  0.81085  0.95492  1.0000
  H   H1895     1.0  0.53589  0.94301  0.69113  1.0000
  H   H1896     1.0  0.62953  0.91338  0.97976  1.0000
  C   C1192     1.0  0.54994  0.97190  0.76063  1.0000
  Fe  Fe232     1.0  0.58953  0.84233  0.95820  1.0000
  H   H1897     1.0  0.60670  0.76590  0.94474  1.0000
  H   H1898     1.0  0.55605  0.92043  0.72479  1.0000
  H   H1899     1.0  0.64540  0.56084  0.86665  1.0000
  H   H1900     1.0  0.56807  0.81026  0.89091  1.0000
  H   H1901     1.0  0.64300  0.75611  0.94833  1.0000
  H   H1902     1.0  0.50356  0.95910  0.83515  1.0000
  H   H1903     1.0  0.52689  0.94304  0.73851  1.0000
  H   H1904     1.0  0.52699  0.96612  0.71696  1.0000
  C   C1193     1.0  0.59445  0.75265  0.94094  1.0000
  C   C1194     1.0  0.53175  0.95481  0.72832  1.0000
  H   H1905     1.0  0.56292  0.80829  0.94867  1.0000
  H   H1906     1.0  0.54107  0.80854  0.92406  1.0000
  H   H1907     1.0  0.55134  0.78588  0.91731  1.0000
  S   S466      1.0  0.49560  0.88775  0.84843  1.0000
  H   H1908     1.0  0.49356  0.93358  0.83042  1.0000
  C   C1195     1.0  0.60491  0.75215  0.94187  1.0000
  H   H1909     1.0  0.54796  0.92343  0.69462  1.0000
  H   H1910     1.0  0.62302  0.85187  0.97302  1.0000
  H   H1911     1.0  0.53286  0.96416  0.73874  1.0000
  S   S467      1.0  0.64959  0.69586  0.90393  1.0000
  H   H1912     1.0  0.56021  0.84215  0.92010  1.0000
  H   H1913     1.0  0.64644  0.53232  0.87472  1.0000
  H   H1914     1.0  0.54633  0.84105  0.92744  1.0000
  H   H1915     1.0  0.61908  0.79936  0.88471  1.0000
  S   S468      1.0  0.64236  0.70762  0.95176  1.0000
  H   H1916     1.0  0.54913  0.81029  0.89767  1.0000
  N   N121      1.0  0.63079  0.76964  0.88635  1.0000
  C   C1196     1.0  0.63165  0.76913  0.90791  1.0000
  C   C1197     1.0  0.64141  0.76080  0.87421  1.0000
  C   C1198     1.0  0.62698  0.79207  0.87572  1.0000
  C   C1199     1.0  0.62315  0.75658  0.88767  1.0000
  H   H1917     1.0  0.62382  0.77596  0.91747  1.0000
  H   H1918     1.0  0.63743  0.77875  0.90741  1.0000
  H   H1919     1.0  0.63828  0.78457  0.94466  1.0000
  C   C1200     1.0  0.64890  0.52815  0.91408  1.0000
  C   C1201     1.0  0.64942  0.77071  0.97520  1.0000
  Fe  Fe233     1.0  0.65338  0.67640  0.96195  1.0000
  S   S469      1.0  0.58457  0.85657  0.98719  1.0000
  C   C1202     1.0  0.65418  0.62579  0.86687  1.0000
  H   H1920     1.0  0.49213  0.82515  0.66729  1.0000
  C   C1203     1.0  0.54550  0.99206  0.74950  1.0000
  H   H1921     1.0  0.62224  0.78425  0.98687  1.0000
  H   H1922     1.0  0.51265  0.95213  0.85239  1.0000
  H   H1923     1.0  0.51655  0.98916  0.83821  1.0000
  C   C1204     1.0  0.48987  0.99089  0.85304  1.0000
  C   C1205     1.0  0.50422  0.95961  0.85114  1.0000
  N   N122      1.0  0.63854  0.76802  0.97687  1.0000
  C   C1206     1.0  0.50261  0.98192  0.87526  1.0000
  S   S470      1.0  0.52660  0.98535  0.67031  1.0000
  H   H1924     1.0  0.64033  0.53001  0.92232  1.0000
  H   H1925     1.0  0.51109  0.97520  0.87659  1.0000
  H   H1926     1.0  0.65360  0.52692  0.92588  1.0000
  C   C1207     1.0  0.64421  0.54740  0.88068  1.0000
  N   N123      1.0  0.65063  0.54626  0.89587  1.0000
  H   H1927     1.0  0.65086  0.78629  0.96461  1.0000
  H   H1928     1.0  0.49539  0.98175  0.71686  1.0000
  H   H1929     1.0  0.64824  0.58061  0.88983  1.0000
  C   C1208     1.0  0.64736  0.56659  0.90332  1.0000
  H   H1930     1.0  0.49149  0.83413  0.69061  1.0000
  S   S471      1.0  0.49068  0.87069  0.72436  1.0000
  H   H1931     1.0  0.50725  0.99514  0.82151  1.0000
  H   H1932     1.0  0.65467  0.82741  0.93974  1.0000
  H   H1933     1.0  0.48944  0.88168  0.80820  1.0000
  H   H1934     1.0  0.50373  0.99574  0.73757  1.0000
  C   C1209     1.0  0.50795  0.99518  0.83763  1.0000
  S   S472      1.0  0.71976  0.03086  0.30750  1.0000
  H   H1935     1.0  0.73399  0.08389  0.20712  1.0000
  H   H1936     1.0  0.73776  0.03001  0.24212  1.0000
  C   C1210     1.0  0.70901  0.46583  0.22123  1.0000
  H   H1937     1.0  0.73083  0.06847  0.23373  1.0000
  C   C1211     1.0  0.73710  0.06970  0.21881  1.0000
  Fe  Fe234     1.0  0.73630  0.03663  0.30049  1.0000
  C   C1212     1.0  0.81830  0.29511  0.02475  1.0000
  H   H1938     1.0  0.74402  0.07307  0.22260  1.0000
  H   H1939     1.0  0.75121  0.03300  0.23091  1.0000
  C   C1213     1.0  0.75788  0.43879  0.30851  1.0000
  H   H1940     1.0  0.79787  0.33402  0.14076  1.0000
  C   C1214     1.0  0.72248  0.40508  0.27405  1.0000
  C   C1215     1.0  0.77822  0.00620  0.27801  1.0000
  S   S473      1.0  0.70370  0.36724  0.31766  1.0000
  C   C1216     1.0  0.72246  0.40013  0.25513  1.0000
  H   H1941     1.0  0.70618  0.36440  0.27497  1.0000
  H   H1942     1.0  0.72609  0.47350  0.19041  1.0000
  C   C1217     1.0  0.71640  0.38580  0.25549  1.0000
  C   C1218     1.0  0.71637  0.39576  0.29328  1.0000
  H   H1943     1.0  0.73057  0.45464  0.21256  1.0000
  Fe  Fe235     1.0  0.81978  0.37692  0.10848  1.0000
  H   H1944     1.0  0.80566  0.37914  0.02942  1.0000
  H   H1945     1.0  0.79462  0.01765  0.15679  1.0000
  N   N124      1.0  0.71657  0.47870  0.22081  1.0000
  H   H1946     1.0  0.70112  0.47060  0.23182  1.0000
  H   H1947     1.0  0.79624  0.01353  0.28017  1.0000
  C   C1219     1.0  0.81885  0.35651  0.04136  1.0000
  H   H1948     1.0  0.78351  0.45929  0.20826  1.0000
  H   H1949     1.0  0.68995  0.45635  0.28084  1.0000
  C   C1220     1.0  0.80110  0.46145  0.16070  1.0000
  H   H1950     1.0  0.71634  0.39969  0.30777  1.0000
  C   C1221     1.0  0.68737  0.46585  0.29282  1.0000
  H   H1951     1.0  0.72488  0.00995  0.23914  1.0000
  H   H1952     1.0  0.78498  0.00190  0.26482  1.0000
  H   H1953     1.0  0.70762  0.46779  0.20519  1.0000
  C   C1222     1.0  0.71058  0.38085  0.29370  1.0000
  H   H1954     1.0  0.72713  0.41623  0.27384  1.0000
  C   C1223     1.0  0.71064  0.37589  0.27476  1.0000
  C   C1224     1.0  0.77223  0.45680  0.30379  1.0000
  C   C1225     1.0  0.68610  0.48822  0.28678  1.0000
  H   H1955     1.0  0.71636  0.38194  0.24089  1.0000
  H   H1956     1.0  0.78891  0.29648  0.17293  1.0000
  H   H1957     1.0  0.81004  0.29280  0.02730  1.0000
  S   S474      1.0  0.72995  0.41160  0.23087  1.0000
  H   H1958     1.0  0.81759  0.26070  0.01172  1.0000
  H   H1959     1.0  0.80210  0.29466  0.15621  1.0000
  H   H1960     1.0  0.72809  0.05946  0.19234  1.0000
  H   H1961     1.0  0.77962  0.46132  0.29453  1.0000
  H   H1962     1.0  0.73552  0.36708  0.30301  1.0000
  Fe  Fe236     1.0  0.75870  0.45116  0.22138  1.0000
  S   S475      1.0  0.82038  0.34178  0.11348  1.0000
  H   H1963     1.0  0.76506  0.01235  0.20174  1.0000
  H   H1964     1.0  0.76870  0.02569  0.31079  1.0000
  H   H1965     1.0  0.81842  0.30338  0.03703  1.0000
  H   H1966     1.0  0.76062  0.05842  0.23260  1.0000
  Fe  Fe237     1.0  0.79397  0.04589  0.19187  1.0000
  S   S476      1.0  0.79738  0.02838  0.22353  1.0000
  S   S477      1.0  0.77892  0.04180  0.18587  1.0000
  C   C1226     1.0  0.81297  0.36745  0.02570  1.0000
  H   H1967     1.0  0.71206  0.44839  0.22722  1.0000
  Fe  Fe238     1.0  0.74476  0.41851  0.23467  1.0000
  H   H1968     1.0  0.68605  0.43841  0.31880  1.0000
  Fe  Fe239     1.0  0.79896  0.05999  0.22657  1.0000
  S   S478      1.0  0.78947  0.06926  0.25724  1.0000
  S   S479      1.0  0.81111  0.03898  0.17469  1.0000
  S   S480      1.0  0.79454  0.07794  0.19578  1.0000
  H   H1969     1.0  0.74404  0.49152  0.23336  1.0000
  H   H1970     1.0  0.79274  0.35254  0.15798  1.0000
  C   C1227     1.0  0.75572  0.05981  0.26563  1.0000
  H   H1971     1.0  0.73276  0.03087  0.20003  1.0000
  H   H1972     1.0  0.72393  0.48450  0.24282  1.0000
  C   C1228     1.0  0.79716  0.29806  0.17173  1.0000
  C   C1229     1.0  0.76738  0.44480  0.29639  1.0000
  S   S481      1.0  0.81746  0.09708  0.15496  1.0000
  C   C1230     1.0  0.79828  0.43032  0.18852  1.0000
  H   H1973     1.0  0.75198  0.37736  0.30288  1.0000
  H   H1974     1.0  0.80816  0.46235  0.16595  1.0000
  H   H1975     1.0  0.79752  0.47797  0.15290  1.0000
  S   S482      1.0  0.74429  0.44665  0.24728  1.0000
  C   C1231     1.0  0.78832  0.00897  0.16475  1.0000
  S   S483      1.0  0.74315  0.05454  0.26829  1.0000
  H   H1976     1.0  0.71045  0.48107  0.25335  1.0000
  H   H1977     1.0  0.81197  0.30868  0.18488  1.0000
  H   H1978     1.0  0.78461  0.33547  0.15714  1.0000
  H   H1979     1.0  0.75610  0.05411  0.19517  1.0000
  C   C1232     1.0  0.77305  0.06413  0.24340  1.0000
  C   C1233     1.0  0.77623  0.06709  0.26034  1.0000
  C   C1234     1.0  0.76901  0.06678  0.28000  1.0000
  C   C1235     1.0  0.75881  0.06281  0.28273  1.0000
  H   H1980     1.0  0.81605  0.35977  0.05709  1.0000
  H   H1981     1.0  0.77845  0.06427  0.22823  1.0000
  H   H1982     1.0  0.77139  0.06915  0.29318  1.0000
  H   H1983     1.0  0.72874  0.49076  0.29901  1.0000
  C   C1236     1.0  0.76283  0.06077  0.24594  1.0000
  H   H1984     1.0  0.76653  0.99900  0.31743  1.0000
  H   H1985     1.0  0.81330  0.14340  0.19349  1.0000
  C   C1237     1.0  0.72696  0.47177  0.20679  1.0000
  C   C1238     1.0  0.79072  0.32355  0.19456  1.0000
  C   C1239     1.0  0.79293  0.33608  0.15666  1.0000
  H   H1986     1.0  0.75330  0.06232  0.29795  1.0000
  H   H1987     1.0  0.79247  0.42259  0.20176  1.0000
  H   H1988     1.0  0.74584  0.01589  0.22185  1.0000
  C   C1240     1.0  0.81639  0.36291  0.00545  1.0000
  H   H1989     1.0  0.72293  0.00577  0.27760  1.0000
  H   H1990     1.0  0.81919  0.19620  0.19006  1.0000
  H   H1991     1.0  0.73281  0.48134  0.20590  1.0000
  H   H1992     1.0  0.72100  0.47242  0.29893  1.0000
  S   S484      1.0  0.75801  0.42526  0.20671  1.0000
  S   S485      1.0  0.75184  0.42303  0.30023  1.0000
  H   H1993     1.0  0.75130  0.03729  0.18469  1.0000
  H   H1994     1.0  0.80880  0.18137  0.19698  1.0000
  H   H1995     1.0  0.80897  0.33672  0.17333  1.0000
  C   C1241     1.0  0.77979  0.01723  0.17986  1.0000
  H   H1996     1.0  0.72400  0.04569  0.21920  1.0000
  C   C1242     1.0  0.73084  0.04631  0.20529  1.0000
  C   C1243     1.0  0.74886  0.05184  0.19154  1.0000
  C   C1244     1.0  0.80840  0.32073  0.17215  1.0000
  C   C1245     1.0  0.74391  0.03133  0.22705  1.0000
  H   H1997     1.0  0.80508  0.43039  0.19507  1.0000
  H   H1998     1.0  0.81356  0.31769  0.15675  1.0000
  H   H1999     1.0  0.79377  0.31145  0.20786  1.0000
  Fe  Fe240     1.0  0.81209  0.06989  0.18136  1.0000
  N   N125      1.0  0.74018  0.04979  0.21067  1.0000
  C   C1246     1.0  0.71808  0.47550  0.24250  1.0000
  H   H2000     1.0  0.79074  0.33963  0.19665  1.0000
  N   N126      1.0  0.79728  0.31962  0.17379  1.0000
  S   S486      1.0  0.76202  0.48164  0.19895  1.0000
  H   H2001     1.0  0.77447  0.02336  0.27285  1.0000
  H   H2002     1.0  0.78223  0.32306  0.19630  1.0000
  S   S487      1.0  0.80374  0.39846  0.11754  1.0000
  S   S488      1.0  0.77054  0.43038  0.24062  1.0000
  H   H2003     1.0  0.79348  0.01194  0.30825  1.0000
  S   S489      1.0  0.75548  0.39474  0.25469  1.0000
  Fe  Fe241     1.0  0.75602  0.42350  0.26549  1.0000
  Fe  Fe242     1.0  0.76888  0.40390  0.22770  1.0000
  S   S490      1.0  0.78373  0.38034  0.21597  1.0000
  C   C1247     1.0  0.78975  0.01578  0.29438  1.0000
  S   S491      1.0  0.74386  0.00192  0.30976  1.0000
  C   C1248     1.0  0.73490  0.35937  0.32012  1.0000
  H   H2004     1.0  0.78665  0.44180  0.15837  1.0000
  H   H2005     1.0  0.74645  0.06587  0.17899  1.0000
  H   H2006     1.0  0.80053  0.28525  0.18427  1.0000
  H   H2007     1.0  0.80407  0.45155  0.14844  1.0000
  N   N127      1.0  0.79323  0.45223  0.17867  1.0000
  H   H2008     1.0  0.77977  0.46760  0.16412  1.0000
  H   H2009     1.0  0.73047  0.46438  0.31567  1.0000
  C   C1249     1.0  0.78406  0.45128  0.17089  1.0000
  C   C1250     1.0  0.78948  0.46581  0.19452  1.0000
  H   H2010     1.0  0.77110  0.43990  0.28155  1.0000
  H   H2011     1.0  0.80143  0.41985  0.17681  1.0000
  C   C1251     1.0  0.79825  0.39356  0.14488  1.0000
  C   C1252     1.0  0.80457  0.38145  0.15938  1.0000
  C   C1253     1.0  0.80002  0.37749  0.18117  1.0000
  C   C1254     1.0  0.78915  0.38563  0.18858  1.0000
  C   C1255     1.0  0.78282  0.39757  0.17407  1.0000
  C   C1256     1.0  0.78737  0.40157  0.15229  1.0000
  H   H2012     1.0  0.81295  0.37511  0.15386  1.0000
  H   H2013     1.0  0.80497  0.36826  0.19232  1.0000
  H   H2014     1.0  0.77438  0.40337  0.17951  1.0000
  H   H2015     1.0  0.78241  0.41071  0.14112  1.0000
  H   H2016     1.0  0.77812  0.44372  0.18391  1.0000
  H   H2017     1.0  0.72098  0.45819  0.24925  1.0000
  C   C1257     1.0  0.68518  0.45566  0.31434  1.0000
  C   C1258     1.0  0.75114  0.36913  0.31988  1.0000
  H   H2018     1.0  0.78546  0.48240  0.18774  1.0000
  H   H2019     1.0  0.79617  0.46698  0.20074  1.0000
  H   H2020     1.0  0.78597  0.03317  0.29174  1.0000
  H   H2021     1.0  0.81503  0.19015  0.16967  1.0000
  H   H2022     1.0  0.81889  0.15226  0.16597  1.0000
  C   C1259     1.0  0.77267  0.00845  0.31473  1.0000
  H   H2023     1.0  0.73433  0.40144  0.31236  1.0000
  H   H2024     1.0  0.81946  0.15277  0.22068  1.0000
  C   C1260     1.0  0.72440  0.47811  0.30922  1.0000
  H   H2025     1.0  0.73886  0.34213  0.32122  1.0000
  H   H2026     1.0  0.81565  0.25719  0.05027  1.0000
  C   C1261     1.0  0.81654  0.18360  0.18597  1.0000
  C   C1262     1.0  0.77155  0.00619  0.18982  1.0000
  Fe  Fe243     1.0  0.81457  0.02427  0.20716  1.0000
  H   H2027     1.0  0.75577  0.35231  0.32070  1.0000
  Fe  Fe244     1.0  0.72719  0.99655  0.31949  1.0000
  N   N128      1.0  0.78190  0.00250  0.29777  1.0000
  H   H2028     1.0  0.81994  0.30632  0.00915  1.0000
  H   H2029     1.0  0.81659  0.00886  0.25209  1.0000
  S   S492      1.0  0.81670  0.05462  0.21292  1.0000
  C   C1263     1.0  0.82073  0.14692  0.18200  1.0000
  H   H2030     1.0  0.77215  0.99673  0.28008  1.0000
  Fe  Fe245     1.0  0.70031  0.10381  0.63495  1.0000
  C   C1264     1.0  0.72087  0.49378  0.33952  1.0000
  S   S493      1.0  0.70335  0.05491  0.35527  1.0000
  S   S494      1.0  0.68720  0.14632  0.59141  1.0000
  S   S495      1.0  0.70958  0.11475  0.60223  1.0000
  Fe  Fe246     1.0  0.69574  0.11223  0.59095  1.0000
  S   S496      1.0  0.69912  0.10069  0.56076  1.0000
  Fe  Fe247     1.0  0.66834  0.26868  0.63229  1.0000
  S   S497      1.0  0.66564  0.06795  0.45311  1.0000
  Fe  Fe248     1.0  0.66529  0.06243  0.51215  1.0000
  S   S498      1.0  0.67342  0.08585  0.48633  1.0000
  S   S499      1.0  0.66414  0.06159  0.54630  1.0000
  H   H2031     1.0  0.66445  0.42154  0.41982  1.0000
  Fe  Fe249     1.0  0.67942  0.05886  0.46905  1.0000
  S   S500      1.0  0.69663  0.04893  0.45302  1.0000
  S   S501      1.0  0.67246  0.03471  0.49605  1.0000
  H   H2032     1.0  0.67368  0.28164  0.44382  1.0000
  H   H2033     1.0  0.73086  0.16383  0.60102  1.0000
  C   C1265     1.0  0.66819  0.16150  0.46455  1.0000
  C   C1266     1.0  0.66463  0.14389  0.46343  1.0000
  H   H2034     1.0  0.67631  0.15955  0.46600  1.0000
  H   H2035     1.0  0.67003  0.12847  0.46362  1.0000
  C   C1267     1.0  0.68960  0.08861  0.55771  1.0000
  C   C1268     1.0  0.68056  0.08536  0.57370  1.0000
  C   C1269     1.0  0.67296  0.07625  0.57038  1.0000
  C   C1270     1.0  0.67427  0.07081  0.55097  1.0000
  C   C1271     1.0  0.68340  0.07372  0.53517  1.0000
  C   C1272     1.0  0.69106  0.08255  0.53858  1.0000
  H   H2036     1.0  0.67943  0.08982  0.58858  1.0000
  H   H2037     1.0  0.66598  0.07367  0.58277  1.0000
  H   H2038     1.0  0.68465  0.06880  0.52050  1.0000
  H   H2039     1.0  0.69817  0.08462  0.52649  1.0000
  C   C1273     1.0  0.70210  0.05450  0.38196  1.0000
  C   C1274     1.0  0.69294  0.06686  0.39253  1.0000
  C   C1275     1.0  0.69137  0.06568  0.41425  1.0000
  C   C1276     1.0  0.69893  0.05202  0.42550  1.0000
  C   C1277     1.0  0.70824  0.04011  0.41485  1.0000
  C   C1278     1.0  0.70983  0.04132  0.39307  1.0000
  H   H2040     1.0  0.68700  0.07722  0.38389  1.0000
  H   H2041     1.0  0.68433  0.07541  0.42219  1.0000
  C   C1279     1.0  0.69208  0.23440  0.62017  1.0000
  H   H2042     1.0  0.71694  0.03180  0.38495  1.0000
  S   S502      1.0  0.68710  0.09833  0.62345  1.0000
  H   H2043     1.0  0.74078  0.45417  0.38218  1.0000
  H   H2044     1.0  0.66561  0.11232  0.61517  1.0000
  C   C1280     1.0  0.70239  0.19715  0.60458  1.0000
  C   C1281     1.0  0.68031  0.24229  0.43531  1.0000
  C   C1282     1.0  0.66663  0.26670  0.41802  1.0000
  H   H2045     1.0  0.66527  0.25353  0.41246  1.0000
  H   H2046     1.0  0.67825  0.22025  0.63180  1.0000
  H   H2047     1.0  0.66518  0.47979  0.64992  1.0000
  H   H2048     1.0  0.75299  0.47983  0.43246  1.0000
  H   H2049     1.0  0.69992  0.11660  0.43110  1.0000
  N   N129      1.0  0.73979  0.37003  0.33053  1.0000
  H   H2050     1.0  0.66783  0.11555  0.52107  1.0000
  N   N130      1.0  0.70600  0.09913  0.45895  1.0000
  C   C1283     1.0  0.70214  0.08641  0.48016  1.0000
  H   H2051     1.0  0.71414  0.02956  0.42349  1.0000
  C   C1284     1.0  0.65741  0.31890  0.44584  1.0000
  S   S503      1.0  0.75435  0.48765  0.38743  1.0000
  H   H2052     1.0  0.67571  0.43886  0.61662  1.0000
  C   C1285     1.0  0.71048  0.46903  0.33961  1.0000
  H   H2053     1.0  0.66238  0.03613  0.43092  1.0000
  H   H2054     1.0  0.67713  0.29630  0.41712  1.0000
  H   H2055     1.0  0.70850  0.08018  0.48947  1.0000
  H   H2056     1.0  0.72798  0.46174  0.43869  1.0000
  C   C1286     1.0  0.68147  0.46787  0.32992  1.0000
  S   S504      1.0  0.73462  0.04391  0.33199  1.0000
  H   H2057     1.0  0.67293  0.01460  0.45803  1.0000
  C   C1287     1.0  0.66976  0.03292  0.41846  1.0000
  S   S505      1.0  0.66549  0.20361  0.46573  1.0000
  H   H2058     1.0  0.68445  0.00872  0.39348  1.0000
  C   C1288     1.0  0.75787  0.45739  0.33498  1.0000
  C   C1289     1.0  0.67999  0.01239  0.44477  1.0000
  H   H2059     1.0  0.69439  0.09369  0.44535  1.0000
  C   C1290     1.0  0.69171  0.19953  0.61564  1.0000
  H   H2060     1.0  0.74878  0.48990  0.45606  1.0000
  H   H2061     1.0  0.68750  0.18690  0.61831  1.0000
  H   H2062     1.0  0.71604  0.11205  0.47010  1.0000
  H   H2063     1.0  0.75191  0.46135  0.45763  1.0000
  C   C1291     1.0  0.69727  0.10714  0.44727  1.0000
  H   H2064     1.0  0.66909  0.37387  0.65075  1.0000
  S   S506      1.0  0.72465  0.99994  0.35292  1.0000
  H   H2065     1.0  0.71245  0.12751  0.44561  1.0000
  H   H2066     1.0  0.70716  0.24405  0.60727  1.0000
  C   C1292     1.0  0.70792  0.21322  0.60159  1.0000
  H   H2067     1.0  0.66721  0.03329  0.40392  1.0000
  H   H2068     1.0  0.74058  0.41867  0.37687  1.0000
  H   H2069     1.0  0.75498  0.37744  0.32714  1.0000
  H   H2070     1.0  0.66092  0.26782  0.43341  1.0000
  N   N131      1.0  0.67778  0.26284  0.42016  1.0000
  C   C1293     1.0  0.66857  0.20343  0.59876  1.0000
  H   H2071     1.0  0.74238  0.36713  0.36142  1.0000
  C   C1294     1.0  0.73899  0.35909  0.35305  1.0000
  Fe  Fe250     1.0  0.70023  0.14763  0.60560  1.0000
  S   S507      1.0  0.70910  0.17423  0.59444  1.0000
  H   H2072     1.0  0.73977  0.44490  0.44742  1.0000
  H   H2073     1.0  0.65893  0.38985  0.38792  1.0000
  H   H2074     1.0  0.68427  0.24878  0.39285  1.0000
  C   C1295     1.0  0.67907  0.28050  0.42807  1.0000
  C   C1296     1.0  0.71938  0.14888  0.63915  1.0000
  Fe  Fe251     1.0  0.67958  0.13289  0.62479  1.0000
  H   H2075     1.0  0.69953  0.07224  0.47912  1.0000
  H   H2076     1.0  0.66439  0.28205  0.40667  1.0000
  H   H2077     1.0  0.65701  0.44895  0.65349  1.0000
  Fe  Fe252     1.0  0.65810  0.04601  0.48142  1.0000
  H   H2078     1.0  0.74331  0.34201  0.35487  1.0000
  S   S508      1.0  0.66227  0.30431  0.62416  1.0000
  H   H2079     1.0  0.65783  0.24118  0.57873  1.0000
  H   H2080     1.0  0.75423  0.46211  0.34993  1.0000
  C   C1297     1.0  0.73281  0.14610  0.60697  1.0000
  C   C1298     1.0  0.66556  0.12699  0.53179  1.0000
  C   C1299     1.0  0.66265  0.40803  0.41555  1.0000
  C   C1300     1.0  0.67255  0.46790  0.65327  1.0000
  H   H2081     1.0  0.72558  0.39392  0.33742  1.0000
  H   H2082     1.0  0.66704  0.18600  0.56828  1.0000
  H   H2083     1.0  0.71617  0.21141  0.59306  1.0000
  H   H2084     1.0  0.67385  0.04647  0.41479  1.0000
  C   C1301     1.0  0.70282  0.23168  0.60961  1.0000
  H   H2085     1.0  0.69490  0.31948  0.64429  1.0000
  H   H2086     1.0  0.65949  0.34738  0.64899  1.0000
  S   S509      1.0  0.69198  0.13718  0.63927  1.0000
  H   H2087     1.0  0.68333  0.27724  0.38756  1.0000
  C   C1302     1.0  0.68649  0.21835  0.62322  1.0000
  C   C1303     1.0  0.68034  0.49021  0.32391  1.0000
  H   H2088     1.0  0.72778  0.13926  0.60087  1.0000
  C   C1304     1.0  0.68507  0.26190  0.39929  1.0000
  H   H2089     1.0  0.73227  0.11194  0.65492  1.0000
  H   H2090     1.0  0.65752  0.44600  0.38949  1.0000
  C   C1305     1.0  0.68379  0.43299  0.65061  1.0000
  H   H2091     1.0  0.73398  0.45861  0.48061  1.0000
  Fe  Fe253     1.0  0.71864  0.03499  0.34010  1.0000
  H   H2092     1.0  0.66617  0.22547  0.56003  1.0000
  H   H2093     1.0  0.73051  0.35950  0.36152  1.0000
  H   H2094     1.0  0.68410  0.02569  0.44203  1.0000
  H   H2095     1.0  0.66120  0.39543  0.43023  1.0000
  C   C1306     1.0  0.70948  0.11753  0.46129  1.0000
  C   C1307     1.0  0.71511  0.08549  0.44711  1.0000
  C   C1308     1.0  0.65776  0.33129  0.40840  1.0000
  H   H2096     1.0  0.72711  0.48073  0.34617  1.0000
  H   H2097     1.0  0.66809  0.33013  0.45720  1.0000
  H   H2098     1.0  0.66370  0.99708  0.44282  1.0000
  H   H2099     1.0  0.71712  0.16662  0.63365  1.0000
  S   S510      1.0  0.68604  0.25779  0.62992  1.0000
  H   H2100     1.0  0.70279  0.12812  0.47022  1.0000
  H   H2101     1.0  0.67949  0.47571  0.64565  1.0000
  C   C1309     1.0  0.66949  0.34219  0.42357  1.0000
  H   H2102     1.0  0.74131  0.14005  0.59971  1.0000
  C   C1310     1.0  0.73325  0.44963  0.38471  1.0000
  Fe  Fe254     1.0  0.69922  0.38260  0.34560  1.0000
  S   S511      1.0  0.70475  0.36449  0.37546  1.0000
  Fe  Fe255     1.0  0.68700  0.42128  0.36369  1.0000
  S   S512      1.0  0.69144  0.40662  0.39519  1.0000
  S   S513      1.0  0.67805  0.45548  0.35689  1.0000
  Fe  Fe256     1.0  0.70776  0.39596  0.37611  1.0000
  S   S514      1.0  0.72338  0.39837  0.38109  1.0000
  Fe  Fe257     1.0  0.68784  0.37648  0.39191  1.0000
  S   S515      1.0  0.67930  0.35643  0.42165  1.0000
  S   S516      1.0  0.70359  0.41306  0.34489  1.0000
  S   S517      1.0  0.68202  0.39222  0.36183  1.0000
  H   H2103     1.0  0.69519  0.09613  0.48945  1.0000
  H   H2104     1.0  0.74587  0.44025  0.33733  1.0000
  H   H2105     1.0  0.69027  0.11756  0.45569  1.0000
  H   H2106     1.0  0.66906  0.35126  0.39051  1.0000
  H   H2107     1.0  0.73089  0.48704  0.47929  1.0000
  C   C1311     1.0  0.67465  0.45349  0.62270  1.0000
  C   C1312     1.0  0.73636  0.46126  0.43905  1.0000
  C   C1313     1.0  0.73313  0.42953  0.38176  1.0000
  N   N132      1.0  0.65911  0.20706  0.58978  1.0000
  N   N133      1.0  0.67390  0.44812  0.64580  1.0000
  H   H2108     1.0  0.74617  0.14361  0.63158  1.0000
  C   C1314     1.0  0.66124  0.18165  0.46377  1.0000
  C   C1315     1.0  0.72365  0.46359  0.39126  1.0000
  C   C1316     1.0  0.71393  0.45757  0.39455  1.0000
  C   C1317     1.0  0.71380  0.43768  0.39118  1.0000
  C   C1318     1.0  0.72340  0.42354  0.38494  1.0000
  C   C1319     1.0  0.66527  0.33038  0.44348  1.0000
  H   H2109     1.0  0.70648  0.46835  0.39959  1.0000
  H   H2110     1.0  0.70627  0.43321  0.39369  1.0000
  C   C1320     1.0  0.65979  0.18840  0.58114  1.0000
  S   S518      1.0  0.72352  0.48860  0.39560  1.0000
  C   C1321     1.0  0.66577  0.34246  0.40597  1.0000
  C   C1322     1.0  0.65586  0.43201  0.38576  1.0000
  Fe  Fe258     1.0  0.74076  0.00842  0.34205  1.0000
  C   C1323     1.0  0.73324  0.11675  0.63745  1.0000
  H   H2111     1.0  0.67492  0.24253  0.45122  1.0000
  N   N134      1.0  0.73685  0.47806  0.44916  1.0000
  Fe  Fe259     1.0  0.65890  0.09255  0.47298  1.0000
  H   H2112     1.0  0.66999  0.40085  0.40507  1.0000
  N   N135      1.0  0.71597  0.48634  0.32637  1.0000
  H   H2113     1.0  0.71821  0.09451  0.43097  1.0000
  H   H2114     1.0  0.72785  0.10923  0.63306  1.0000
  S   S519      1.0  0.66224  0.14786  0.63520  1.0000
  C   C1324     1.0  0.68650  0.00859  0.40849  1.0000
  H   H2115     1.0  0.68158  0.46106  0.61409  1.0000
  H   H2116     1.0  0.72217  0.47523  0.47196  1.0000
  H   H2117     1.0  0.77508  0.00557  0.33004  1.0000
  H   H2118     1.0  0.66731  0.46490  0.61848  1.0000
  H   H2119     1.0  0.74086  0.46346  0.42229  1.0000
  H   H2120     1.0  0.66895  0.18896  0.61197  1.0000
  N   N136      1.0  0.67683  0.01214  0.42544  1.0000
  N   N137      1.0  0.73075  0.14036  0.63034  1.0000
  H   H2121     1.0  0.68506  0.41769  0.64551  1.0000
  H   H2122     1.0  0.68274  0.29959  0.63974  1.0000
  H   H2123     1.0  0.67615  0.20095  0.58666  1.0000
  H   H2124     1.0  0.68866  0.23874  0.43737  1.0000
  H   H2125     1.0  0.66930  0.14096  0.52340  1.0000
  C   C1325     1.0  0.73070  0.47457  0.47127  1.0000
  H   H2126     1.0  0.67929  0.22860  0.43002  1.0000
  H   H2127     1.0  0.72183  0.07906  0.45550  1.0000
  H   H2128     1.0  0.70030  0.27988  0.64689  1.0000
  H   H2129     1.0  0.71278  0.07143  0.44505  1.0000
  H   H2130     1.0  0.73762  0.40134  0.33656  1.0000
  C   C1326     1.0  0.74811  0.47716  0.44890  1.0000
  C   C1327     1.0  0.73753  0.14970  0.63785  1.0000
  C   C1328     1.0  0.73407  0.39267  0.32910  1.0000
  H   H2131     1.0  0.74161  0.10962  0.63037  1.0000
  H   H2132     1.0  0.73580  0.16753  0.63278  1.0000
  H   H2133     1.0  0.69108  0.02137  0.40487  1.0000
  H   H2134     1.0  0.68739  0.27825  0.42982  1.0000
  H   H2135     1.0  0.66306  0.42584  0.37423  1.0000
  H   H2136     1.0  0.73612  0.14561  0.65548  1.0000
  C   C1329     1.0  0.65743  0.12110  0.61604  1.0000
  H   H2137     1.0  0.69356  0.25902  0.40030  1.0000
  H   H2138     1.0  0.68554  0.99718  0.45023  1.0000
  H   H2139     1.0  0.70645  0.46343  0.33029  1.0000
  C   C1330     1.0  0.65875  0.22660  0.57266  1.0000
  H   H2140     1.0  0.71620  0.45490  0.34652  1.0000
  S   S520      1.0  0.77333  0.47867  0.33207  1.0000
  C   C1331     1.0  0.75317  0.44499  0.32785  1.0000
  H   H2141     1.0  0.72624  0.36027  0.32745  1.0000
  H   H2142     1.0  0.66548  0.42291  0.65162  1.0000
  H   H2143     1.0  0.66026  0.17336  0.59360  1.0000
  H   H2144     1.0  0.69097  0.44005  0.64298  1.0000
  H   H2145     1.0  0.66837  0.21730  0.60522  1.0000
  H   H2146     1.0  0.71404  0.14185  0.63414  1.0000
  S   S521      1.0  0.65784  0.26090  0.61584  1.0000
  H   H2147     1.0  0.70420  0.47455  0.35298  1.0000
  H   H2148     1.0  0.66922  0.11872  0.54570  1.0000
  C   C1332     1.0  0.76744  0.46323  0.32303  1.0000
  C   C1333     1.0  0.65558  0.33575  0.68273  1.0000
  H   H2149     1.0  0.67636  0.28213  0.66221  1.0000
  H   H2150     1.0  0.70337  0.11595  0.67569  1.0000
  H   H2151     1.0  0.68888  0.29138  0.70087  1.0000
  S   S522      1.0  0.74280  0.45924  0.67227  1.0000
  H   H2152     1.0  0.77958  0.49109  0.70049  1.0000
  C   C1334     1.0  0.66465  0.43805  0.65667  1.0000
  C   C1335     1.0  0.72953  0.46093  0.67145  1.0000
  C   C1336     1.0  0.70201  0.49582  0.84644  1.0000
  S   S523      1.0  0.73298  0.05010  0.75330  1.0000
  H   H2153     1.0  0.77872  0.43871  0.92648  1.0000
  C   C1337     1.0  0.81856  0.17775  0.86388  1.0000
  H   H2154     1.0  0.71138  0.12669  0.69947  1.0000
  C   C1338     1.0  0.72246  0.48080  0.66753  1.0000
  C   C1339     1.0  0.66020  0.34877  0.66418  1.0000
  C   C1340     1.0  0.71512  0.11200  0.69387  1.0000
  H   H2155     1.0  0.73562  0.01413  0.85491  1.0000
  C   C1341     1.0  0.82108  0.04243  0.92901  1.0000
  H   H2156     1.0  0.80465  0.02891  0.92494  1.0000
  C   C1342     1.0  0.72472  0.07405  0.67953  1.0000
  H   H2157     1.0  0.79557  0.06399  0.95143  1.0000
  C   C1343     1.0  0.78152  0.35080  0.90345  1.0000
  S   S524      1.0  0.72994  0.10663  0.71722  1.0000
  C   C1344     1.0  0.66201  0.35310  0.70337  1.0000
  H   H2158     1.0  0.73706  0.06713  0.89867  1.0000
  C   C1345     1.0  0.72432  0.09884  0.70053  1.0000
  H   H2159     1.0  0.79838  0.37314  0.79513  1.0000
  H   H2160     1.0  0.81260  0.23783  0.98812  1.0000
  H   H2161     1.0  0.75121  0.05917  0.88896  1.0000
  H   H2162     1.0  0.74051  0.39190  0.75940  1.0000
  S   S525      1.0  0.73388  0.04152  0.81434  1.0000
  H   H2163     1.0  0.69994  0.01429  0.73624  1.0000
  C   C1346     1.0  0.71062  0.10601  0.68033  1.0000
  C   C1347     1.0  0.80594  0.02553  0.94129  1.0000
  C   C1348     1.0  0.71178  0.48162  0.66772  1.0000
  H   H2164     1.0  0.77854  0.00078  0.84490  1.0000
  H   H2165     1.0  0.66963  0.47024  0.73927  1.0000
  C   C1349     1.0  0.69356  0.49187  0.72028  1.0000
  H   H2166     1.0  0.71751  0.05245  0.72673  1.0000
  H   H2167     1.0  0.80159  0.06708  0.92380  1.0000
  S   S526      1.0  0.82062  0.21348  0.92212  1.0000
  H   H2168     1.0  0.74065  0.08032  0.83994  1.0000
  C   C1350     1.0  0.71539  0.08695  0.67322  1.0000
  S   S527      1.0  0.81781  0.02551  0.87943  1.0000
  H   H2169     1.0  0.80614  0.01231  0.72952  1.0000
  H   H2170     1.0  0.73801  0.00736  0.79201  1.0000
  H   H2171     1.0  0.77635  0.40180  0.80846  1.0000
  H   H2172     1.0  0.79353  0.34915  0.79951  1.0000
  C   C1351     1.0  0.72911  0.07983  0.69334  1.0000
  H   H2173     1.0  0.72138  0.02901  0.69040  1.0000
  H   H2174     1.0  0.74324  0.03918  0.90039  1.0000
  C   C1352     1.0  0.74333  0.05557  0.89021  1.0000
  H   H2175     1.0  0.79841  0.36614  0.83369  1.0000
  H   H2176     1.0  0.77979  0.02618  0.89582  1.0000
  S   S528      1.0  0.74674  0.36599  0.82757  1.0000
  H   H2177     1.0  0.66261  0.35471  0.71855  1.0000
  H   H2178     1.0  0.73630  0.06976  0.69814  1.0000
  Fe  Fe260     1.0  0.81518  0.02648  0.84732  1.0000
  H   H2179     1.0  0.81119  0.00926  0.94414  1.0000
  H   H2180     1.0  0.70042  0.43111  0.78773  1.0000
  H   H2181     1.0  0.70453  0.04700  0.73947  1.0000
  C   C1353     1.0  0.70077  0.46178  0.80734  1.0000
  H   H2182     1.0  0.75642  0.43781  0.79500  1.0000
  H   H2183     1.0  0.69654  0.41228  0.83404  1.0000
  C   C1354     1.0  0.70532  0.38161  0.79760  1.0000
  H   H2184     1.0  0.68772  0.42609  0.80315  1.0000
  Fe  Fe261     1.0  0.72995  0.38542  0.83207  1.0000
  H   H2185     1.0  0.70219  0.46700  0.82052  1.0000
  H   H2186     1.0  0.78652  0.36146  0.85304  1.0000
  Fe  Fe262     1.0  0.69002  0.43461  0.69994  1.0000
  S   S529      1.0  0.67297  0.43145  0.71185  1.0000
  S   S530      1.0  0.69436  0.46382  0.67626  1.0000
  Fe  Fe263     1.0  0.69829  0.39270  0.72842  1.0000
  S   S531      1.0  0.68194  0.38544  0.74211  1.0000
  Fe  Fe264     1.0  0.67931  0.39689  0.70849  1.0000
  S   S532      1.0  0.67358  0.38562  0.68477  1.0000
  Fe  Fe265     1.0  0.67713  0.42054  0.74388  1.0000
  S   S533      1.0  0.66863  0.43272  0.77379  1.0000
  S   S534      1.0  0.69628  0.40109  0.69498  1.0000
  S   S535      1.0  0.69362  0.42673  0.73198  1.0000
  H   H2187     1.0  0.71837  0.43817  0.74644  1.0000
  C   C1355     1.0  0.81210  0.24229  0.97164  1.0000
  H   H2188     1.0  0.70874  0.42010  0.81872  1.0000
  N   N138      1.0  0.69461  0.44466  0.81549  1.0000
  C   C1356     1.0  0.72421  0.02074  0.70530  1.0000
  C   C1357     1.0  0.66859  0.47513  0.75391  1.0000
  C   C1358     1.0  0.66781  0.45995  0.77305  1.0000
  C   C1359     1.0  0.66622  0.46658  0.79201  1.0000
  C   C1360     1.0  0.71119  0.04513  0.72543  1.0000
  S   S536      1.0  0.81352  0.32319  0.92069  1.0000
  H   H2189     1.0  0.79340  0.01812  0.74693  1.0000
  H   H2190     1.0  0.73141  0.42662  0.67786  1.0000
  H   H2191     1.0  0.73285  0.45372  0.71931  1.0000
  C   C1361     1.0  0.71729  0.46622  0.85008  1.0000
  H   H2192     1.0  0.81051  0.25814  0.91245  1.0000
  C   C1362     1.0  0.81195  0.00880  0.80111  1.0000
  C   C1363     1.0  0.69513  0.48245  0.85910  1.0000
  C   C1364     1.0  0.69934  0.46093  0.86745  1.0000
  C   C1365     1.0  0.71043  0.45271  0.86265  1.0000
  S   S537      1.0  0.76189  0.49293  0.67646  1.0000
  H   H2193     1.0  0.69405  0.45053  0.87728  1.0000
  H   H2194     1.0  0.71369  0.43606  0.86896  1.0000
  C   C1366     1.0  0.72449  0.36829  0.78966  1.0000
  C   C1367     1.0  0.72400  0.36719  0.76940  1.0000
  S   S538      1.0  0.73031  0.39401  0.86193  1.0000
  C   C1368     1.0  0.70802  0.46265  0.67309  1.0000
  C   C1369     1.0  0.71511  0.44284  0.67695  1.0000
  C   C1370     1.0  0.72591  0.44200  0.67545  1.0000
  H   H2195     1.0  0.73986  0.45041  0.73984  1.0000
  H   H2196     1.0  0.67917  0.44039  0.83462  1.0000
  H   H2197     1.0  0.71232  0.42810  0.68085  1.0000
  H   H2198     1.0  0.79854  0.03570  0.68844  1.0000
  H   H2199     1.0  0.73204  0.36305  0.79457  1.0000
  C   C1371     1.0  0.70490  0.38142  0.77704  1.0000
  C   C1372     1.0  0.71423  0.37400  0.76297  1.0000
  S   S539      1.0  0.73113  0.45662  0.84391  1.0000
  Fe  Fe266     1.0  0.73607  0.42265  0.83995  1.0000
  N   N139      1.0  0.73489  0.42219  0.73953  1.0000
  H   H2200     1.0  0.72162  0.41225  0.76318  1.0000
  C   C1373     1.0  0.73862  0.44227  0.72853  1.0000
  S   S540      1.0  0.73428  0.41560  0.81058  1.0000
  C   C1374     1.0  0.68423  0.45256  0.82897  1.0000
  C   C1375     1.0  0.69669  0.27780  0.66417  1.0000
  H   H2201     1.0  0.76798  0.42130  0.73400  1.0000
  S   S541      1.0  0.74913  0.00441  0.72585  1.0000
  H   H2202     1.0  0.81569  0.15778  0.90431  1.0000
  H   H2203     1.0  0.77406  0.40976  0.98294  1.0000
  H   H2204     1.0  0.76602  0.45999  0.71675  1.0000
  C   C1376     1.0  0.76604  0.36098  0.88734  1.0000
  H   H2205     1.0  0.68532  0.45642  0.84322  1.0000
  C   C1377     1.0  0.70070  0.42592  0.82818  1.0000
  C   C1378     1.0  0.76513  0.43328  0.74358  1.0000
  H   H2206     1.0  0.70875  0.45621  0.79751  1.0000
  C   C1379     1.0  0.71512  0.37527  0.80387  1.0000
  H   H2207     1.0  0.69646  0.47618  0.79759  1.0000
  H   H2208     1.0  0.73120  0.36111  0.75867  1.0000
  C   C1380     1.0  0.69278  0.43830  0.79756  1.0000
  H   H2209     1.0  0.78012  0.41571  0.91606  1.0000
  S   S542      1.0  0.71544  0.37602  0.82957  1.0000
  H   H2210     1.0  0.69732  0.38647  0.77228  1.0000
  H   H2211     1.0  0.69768  0.31580  0.66990  1.0000
  H   H2212     1.0  0.69919  0.48300  0.70839  1.0000
  C   C1381     1.0  0.67947  0.29712  0.65715  1.0000
  C   C1382     1.0  0.66660  0.36613  0.68479  1.0000
  S   S543      1.0  0.71386  0.37382  0.73711  1.0000
  H   H2213     1.0  0.68859  0.45224  0.78712  1.0000
  C   C1383     1.0  0.72463  0.42710  0.75468  1.0000
  H   H2214     1.0  0.69804  0.38659  0.80869  1.0000
  H   H2215     1.0  0.70198  0.42983  0.84222  1.0000
  H   H2216     1.0  0.67968  0.46747  0.82033  1.0000
  H   H2217     1.0  0.72551  0.43463  0.76681  1.0000
  H   H2218     1.0  0.76725  0.42775  0.92972  1.0000
  S   S544      1.0  0.76327  0.39965  0.77786  1.0000
  H   H2219     1.0  0.74401  0.41445  0.76335  1.0000
  C   C1384     1.0  0.70672  0.01345  0.72225  1.0000
  C   C1385     1.0  0.74291  0.40738  0.75112  1.0000
  C   C1386     1.0  0.81920  0.17213  0.90053  1.0000
  H   H2220     1.0  0.71391  0.49532  0.71332  1.0000
  S   S545      1.0  0.80851  0.37550  0.98652  1.0000
  H   H2221     1.0  0.79387  0.34182  0.83773  1.0000
  N   N140      1.0  0.77812  0.40925  0.94986  1.0000
  H   H2222     1.0  0.80274  0.01477  0.77759  1.0000
  S   S546      1.0  0.75572  0.06000  0.72078  1.0000
  Fe  Fe267     1.0  0.76099  0.05887  0.75025  1.0000
  S   S547      1.0  0.77754  0.05877  0.75273  1.0000
  H   H2223     1.0  0.78826  0.00778  0.82104  1.0000
  N   N141      1.0  0.78471  0.37004  0.82079  1.0000
  S   S548      1.0  0.75581  0.02830  0.76777  1.0000
  C   C1387     1.0  0.77245  0.42014  0.96754  1.0000
  C   C1388     1.0  0.74174  0.07888  0.85615  1.0000
  H   H2224     1.0  0.67605  0.30574  0.69542  1.0000
  Fe  Fe268     1.0  0.79335  0.05604  0.85432  1.0000
  S   S549      1.0  0.80977  0.06272  0.83951  1.0000
  S   S550      1.0  0.77778  0.06907  0.84351  1.0000
  Fe  Fe269     1.0  0.80082  0.02196  0.89082  1.0000
  C   C1389     1.0  0.71937  0.01006  0.74335  1.0000
  Fe  Fe270     1.0  0.74901  0.03140  0.73999  1.0000
  Fe  Fe271     1.0  0.81105  0.06137  0.87299  1.0000
  H   H2225     1.0  0.67992  0.27725  0.69743  1.0000
  C   C1390     1.0  0.81988  0.10925  0.90948  1.0000
  N   N142      1.0  0.68765  0.29588  0.66866  1.0000
  S   S551      1.0  0.79406  0.05716  0.88690  1.0000
  S   S552      1.0  0.79873  0.02047  0.85960  1.0000
  S   S553      1.0  0.79709  0.34656  0.95854  1.0000
  H   H2226     1.0  0.73140  0.39605  0.73130  1.0000
  H   H2227     1.0  0.79287  0.41860  0.94660  1.0000
  H   H2228     1.0  0.75809  0.04456  0.85640  1.0000
  H   H2229     1.0  0.77855  0.38052  0.94037  1.0000
  H   H2230     1.0  0.74950  0.08323  0.85446  1.0000
  H   H2231     1.0  0.70308  0.27621  0.67255  1.0000
  H   H2232     1.0  0.79169  0.39306  0.96385  1.0000
  N   N143      1.0  0.79269  0.01398  0.71679  1.0000
  C   C1391     1.0  0.77590  0.38754  0.88534  1.0000
  H   H2233     1.0  0.77200  0.32897  0.90392  1.0000
  C   C1392     1.0  0.71307  0.48780  0.84221  1.0000
  H   H2234     1.0  0.81144  0.11636  0.91335  1.0000
  H   H2235     1.0  0.77509  0.43528  0.96543  1.0000
  H   H2236     1.0  0.69402  0.26228  0.66906  1.0000
  C   C1393     1.0  0.66563  0.36385  0.66524  1.0000
  C   C1394     1.0  0.81091  0.25368  0.92898  1.0000
  C   C1395     1.0  0.80756  0.26936  0.94116  1.0000
  C   C1396     1.0  0.80827  0.26370  0.96242  1.0000
  H   H2237     1.0  0.70808  0.49222  0.74128  1.0000
  C   C1397     1.0  0.77436  0.38929  0.95330  1.0000
  Fe  Fe272     1.0  0.74570  0.48995  0.67528  1.0000
  H   H2238     1.0  0.80437  0.28579  0.93414  1.0000
  H   H2239     1.0  0.77684  0.02311  0.73491  1.0000
  H   H2240     1.0  0.66540  0.45497  0.80689  1.0000
  C   C1398     1.0  0.78146  0.02585  0.71827  1.0000
  H   H2241     1.0  0.75513  0.47623  0.77786  1.0000
  H   H2242     1.0  0.78351  0.49248  0.72333  1.0000
  H   H2243     1.0  0.75085  0.40367  0.74033  1.0000
  H   H2244     1.0  0.70350  0.02252  0.70791  1.0000
  C   C1399     1.0  0.77780  0.06163  0.77787  1.0000
  C   C1400     1.0  0.78755  0.05821  0.78376  1.0000
  C   C1401     1.0  0.78769  0.06027  0.80397  1.0000
  C   C1402     1.0  0.77807  0.06626  0.81810  1.0000
  C   C1403     1.0  0.76839  0.06962  0.81214  1.0000
  C   C1404     1.0  0.76825  0.06691  0.79232  1.0000
  H   H2245     1.0  0.79500  0.05414  0.77267  1.0000
  H   H2246     1.0  0.79522  0.05771  0.80844  1.0000
  H   H2247     1.0  0.76095  0.07440  0.82281  1.0000
  H   H2248     1.0  0.76070  0.06933  0.78816  1.0000
  C   C1405     1.0  0.73657  0.01348  0.82265  1.0000
  C   C1406     1.0  0.78301  0.37187  0.89649  1.0000
  C   C1407     1.0  0.77670  0.01198  0.90413  1.0000
  H   H2249     1.0  0.77736  0.02083  0.70866  1.0000
  N   N144      1.0  0.81064  0.04210  0.94401  1.0000
  H   H2250     1.0  0.72608  0.01605  0.74488  1.0000
  H   H2251     1.0  0.72942  0.05293  0.85588  1.0000
  H   H2252     1.0  0.77333  0.02001  0.79069  1.0000
  H   H2253     1.0  0.74639  0.43912  0.71704  1.0000
  S   S554      1.0  0.65718  0.26387  0.66388  1.0000
  C   C1408     1.0  0.75791  0.46428  0.76824  1.0000
  Fe  Fe273     1.0  0.74763  0.37719  0.85563  1.0000
  H   H2254     1.0  0.81250  0.18606  0.90351  1.0000
  H   H2255     1.0  0.76183  0.39442  0.87276  1.0000
  C   C1409     1.0  0.78973  0.40400  0.94896  1.0000
  H   H2256     1.0  0.76365  0.42422  0.96883  1.0000
  H   H2257     1.0  0.74073  0.40973  0.71113  1.0000
  H   H2258     1.0  0.72673  0.42194  0.71621  1.0000
  H   H2259     1.0  0.75010  0.02459  0.86789  1.0000
  H   H2260     1.0  0.77502  0.02399  0.82496  1.0000
  H   H2261     1.0  0.78848  0.40084  0.81586  1.0000
  Fe  Fe274     1.0  0.81124  0.35630  0.96199  1.0000
  C   C1410     1.0  0.79768  0.02106  0.73004  1.0000
  C   C1411     1.0  0.76739  0.38214  0.88093  1.0000
  C   C1412     1.0  0.77788  0.00314  0.79411  1.0000
  C   C1413     1.0  0.75004  0.04132  0.85850  1.0000
  H   H2262     1.0  0.80992  0.02538  0.80253  1.0000
  Fe  Fe275     1.0  0.80825  0.31482  0.95615  1.0000
  N   N145      1.0  0.71537  0.02234  0.72410  1.0000
  C   C1414     1.0  0.79861  0.01827  0.69455  1.0000
  C   C1415     1.0  0.80336  0.06332  0.93981  1.0000
  H   H2263     1.0  0.74887  0.04198  0.84253  1.0000
  H   H2264     1.0  0.73529  0.09110  0.86340  1.0000
  H   H2265     1.0  0.72440  0.06366  0.87936  1.0000
  H   H2266     1.0  0.79430  0.39592  0.93572  1.0000
  Fe  Fe276     1.0  0.75117  0.39705  0.80867  1.0000
  N   N146      1.0  0.74153  0.05697  0.86910  1.0000
  H   H2267     1.0  0.73060  0.03569  0.88133  1.0000
  H   H2268     1.0  0.66391  0.43362  0.67415  1.0000
  H   H2269     1.0  0.77584  0.37813  0.96843  1.0000
  H   H2270     1.0  0.68341  0.42871  0.66787  1.0000
  C   C1416     1.0  0.73340  0.41203  0.72386  1.0000
  Fe  Fe277     1.0  0.74042  0.04984  0.77941  1.0000
  S   S555      1.0  0.75595  0.35351  0.88046  1.0000
  C   C1417     1.0  0.65645  0.33816  0.70232  1.0000
  C   C1418     1.0  0.75865  0.44249  0.77796  1.0000
  S   S556      1.0  0.74588  0.08055  0.76343  1.0000
  C   C1419     1.0  0.79104  0.36654  0.79975  1.0000
  S   S557      1.0  0.81692  0.36841  0.92725  1.0000
  C   C1420     1.0  0.68294  0.29237  0.69163  1.0000
  C   C1421     1.0  0.73102  0.05212  0.87153  1.0000
  C   C1422     1.0  0.66567  0.48814  0.79180  1.0000
  Fe  Fe278     1.0  0.74001  0.07875  0.73578  1.0000
  H   H2271     1.0  0.71300  0.01124  0.75796  1.0000
  S   S558      1.0  0.80526  0.28345  0.97713  1.0000
  H   H2272     1.0  0.77677  0.39655  0.83593  1.0000
  H   H2273     1.0  0.69271  0.48037  0.73586  1.0000
  C   C1423     1.0  0.77512  0.36091  0.82620  1.0000
  H   H2274     1.0  0.73069  0.02816  0.70575  1.0000
  H   H2275     1.0  0.78696  0.33864  0.91213  1.0000
  S   S559      1.0  0.79373  0.37926  0.90103  1.0000
  C   C1424     1.0  0.77594  0.42354  0.92968  1.0000
  C   C1425     1.0  0.78144  0.39333  0.82022  1.0000
  Fe  Fe279     1.0  0.80357  0.35605  0.92356  1.0000
  H   H2276     1.0  0.77017  0.36817  0.81408  1.0000
  C   C1426     1.0  0.76399  0.45517  0.73381  1.0000
  C   C1427     1.0  0.79119  0.35940  0.83695  1.0000
  C   C1428     1.0  0.76050  0.47067  0.74618  1.0000
  H   H2277     1.0  0.78630  0.37455  0.78729  1.0000
  H   H2278     1.0  0.76998  0.36385  0.84164  1.0000
  C   C1429     1.0  0.76240  0.42694  0.76567  1.0000
  H   H2279     1.0  0.77696  0.40392  0.88010  1.0000
  C   C1430     1.0  0.77305  0.34536  0.89881  1.0000
  H   H2280     1.0  0.77722  0.34324  0.82746  1.0000
  S   S560      1.0  0.75341  0.40675  0.83614  1.0000
  H   H2281     1.0  0.79344  0.48282  0.70183  1.0000
  H   H2282     1.0  0.81144  0.19117  0.86562  1.0000
  C   C1431     1.0  0.81508  0.23240  0.93802  1.0000
  H   H2283     1.0  0.81861  0.21015  0.96655  1.0000
  H   H2284     1.0  0.67253  0.31048  0.65995  1.0000
  H   H2285     1.0  0.78642  0.00328  0.78691  1.0000
  H   H2286     1.0  0.67201  0.46437  0.67066  1.0000
  S   S561      1.0  0.81386  0.08750  0.88654  1.0000
  H   H2287     1.0  0.70812  0.05486  0.71111  1.0000
  H   H2288     1.0  0.80449  0.03662  0.97767  1.0000
  S   S562      1.0  0.68127  0.49234  0.86300  1.0000
  C   C1432     1.0  0.81557  0.22666  0.95940  1.0000
  H   H2289     1.0  0.79754  0.03858  0.72495  1.0000
  H   H2290     1.0  0.72865  0.05973  0.67344  1.0000
  H   H2291     1.0  0.78092  0.04348  0.71278  1.0000
  H   H2292     1.0  0.76566  0.39263  0.95379  1.0000
  H   H2293     1.0  0.72793  0.00373  0.70433  1.0000
  H   H2294     1.0  0.81769  0.02126  0.96955  1.0000
  H   H2295     1.0  0.66440  0.49315  0.80647  1.0000
  H   H2296     1.0  0.76247  0.02333  0.89180  1.0000
  H   H2297     1.0  0.79802  0.02479  0.95224  1.0000
  C   C1433     1.0  0.73871  0.00032  0.80821  1.0000
  C   C1434     1.0  0.78596  0.49486  0.70576  1.0000
  C   C1435     1.0  0.80787  0.00271  0.78698  1.0000
  H   H2298     1.0  0.81569  0.04945  0.96844  1.0000
  C   C1436     1.0  0.81219  0.03713  0.96590  1.0000
  H   H2299     1.0  0.75973  0.01058  0.82266  1.0000
  H   H2300     1.0  0.80692  0.07644  0.94042  1.0000
  H   H2301     1.0  0.72525  0.49549  0.66408  1.0000
  C   C1437     1.0  0.77967  0.00715  0.82750  1.0000
  H   H2302     1.0  0.82021  0.04627  0.91233  1.0000
  H   H2303     1.0  0.81562  0.16273  0.86704  1.0000
  H   H2304     1.0  0.71756  0.14523  0.65675  1.0000
  C   C1438     1.0  0.69143  0.31619  0.66162  1.0000
  H   H2305     1.0  0.79506  0.01314  0.68409  1.0000
  H   H2306     1.0  0.80712  0.00952  0.69295  1.0000
  H   H2307     1.0  0.68478  0.33010  0.66492  1.0000
  C   C1439     1.0  0.73728  0.00419  0.84366  1.0000
  C   C1440     1.0  0.76680  0.01045  0.90196  1.0000
  S   S563      1.0  0.70980  0.07840  0.65699  1.0000
  S   S564      1.0  0.79524  0.99677  0.91851  1.0000
  S   S565      1.0  0.82188  0.32374  0.96240  1.0000
  H   H2308     1.0  0.70962  0.99634  0.72096  1.0000
  H   H2309     1.0  0.70506  0.61652  0.15018  1.0000
  Fe  Fe280     1.0  0.70931  0.55847  0.23018  1.0000
  S   S566      1.0  0.69489  0.55555  0.22118  1.0000
  S   S567      1.0  0.72356  0.56174  0.20350  1.0000
  Fe  Fe281     1.0  0.68641  0.58241  0.23791  1.0000
  S   S568      1.0  0.67579  0.61283  0.22361  1.0000
  Fe  Fe282     1.0  0.69193  0.53365  0.25334  1.0000
  S   S569      1.0  0.70104  0.58655  0.24533  1.0000
  H   H2310     1.0  0.71473  0.58226  0.28154  1.0000
  H   H2311     1.0  0.73109  0.58718  0.28911  1.0000
  C   C1441     1.0  0.72359  0.60657  0.16332  1.0000
  H   H2312     1.0  0.66215  0.73106  0.99997  1.0000
  N   N147      1.0  0.71380  0.62248  0.16973  1.0000
  C   C1442     1.0  0.67857  0.62167  0.19590  1.0000
  C   C1443     1.0  0.68170  0.60729  0.18240  1.0000
  C   C1444     1.0  0.68283  0.61508  0.16039  1.0000
  C   C1445     1.0  0.68089  0.63725  0.15179  1.0000
  H   H2313     1.0  0.68290  0.59020  0.18896  1.0000
  H   H2314     1.0  0.68504  0.60391  0.15004  1.0000
  H   H2315     1.0  0.72161  0.59208  0.16129  1.0000
  C   C1446     1.0  0.71677  0.64094  0.17324  1.0000
  H   H2316     1.0  0.79513  0.98332  0.14784  1.0000
  S   S570      1.0  0.81249  0.94781  0.31195  1.0000
  C   C1447     1.0  0.70720  0.61246  0.18956  1.0000
  S   S571      1.0  0.66195  0.72706  0.04353  1.0000
  C   C1448     1.0  0.75116  0.91787  0.28605  1.0000
  H   H2317     1.0  0.70479  0.59841  0.18762  1.0000
  H   H2318     1.0  0.71244  0.63727  0.13753  1.0000
  C   C1449     1.0  0.73433  0.53959  0.20324  1.0000
  H   H2319     1.0  0.72410  0.98560  0.17014  1.0000
  H   H2320     1.0  0.70036  0.64233  0.15701  1.0000
  S   S572      1.0  0.68220  0.64667  0.12417  1.0000
  H   H2321     1.0  0.72882  0.52295  0.23512  1.0000
  H   H2322     1.0  0.70201  0.98644  0.16307  1.0000
  C   C1450     1.0  0.78693  0.97956  0.30400  1.0000
  C   C1451     1.0  0.71666  0.57507  0.29689  1.0000
  H   H2323     1.0  0.68180  0.51758  0.29797  1.0000
  H   H2324     1.0  0.72176  0.64893  0.15861  1.0000
  H   H2325     1.0  0.68248  0.75808  0.05116  1.0000
  S   S573      1.0  0.70729  0.53394  0.26056  1.0000
  Fe  Fe283     1.0  0.69749  0.56176  0.27502  1.0000
  H   H2326     1.0  0.75736  0.95632  0.30235  1.0000
  H   H2327     1.0  0.69976  0.62396  0.19504  1.0000
  S   S574      1.0  0.68191  0.56025  0.26936  1.0000
  H   H2328     1.0  0.71416  0.87613  0.01992  1.0000
  C   C1452     1.0  0.67695  0.64376  0.18725  1.0000
  H   H2329     1.0  0.72867  0.61335  0.14817  1.0000
  H   H2330     1.0  0.70954  0.65319  0.17817  1.0000
  H   H2331     1.0  0.66152  0.84272  0.10198  1.0000
  H   H2332     1.0  0.71165  0.60651  0.20254  1.0000
  C   C1453     1.0  0.73489  0.52239  0.22074  1.0000
  C   C1454     1.0  0.70766  0.62997  0.15287  1.0000
  H   H2333     1.0  0.72139  0.63578  0.18595  1.0000
  H   H2334     1.0  0.72776  0.90531  0.01835  1.0000
  C   C1455     1.0  0.67812  0.65150  0.16532  1.0000
  H   H2335     1.0  0.67467  0.65496  0.19759  1.0000
  H   H2336     1.0  0.74771  0.92774  0.27227  1.0000
  H   H2337     1.0  0.72852  0.60088  0.17555  1.0000
  H   H2338     1.0  0.65635  0.63265  0.19301  1.0000
  H   H2339     1.0  0.69774  0.71946  0.03459  1.0000
  H   H2340     1.0  0.79011  0.97627  0.31852  1.0000
  Fe  Fe284     1.0  0.67332  0.88831  0.12742  1.0000
  S   S575      1.0  0.67767  0.86169  0.11031  1.0000
  C   C1456     1.0  0.78857  0.98964  0.15964  1.0000
  Fe  Fe285     1.0  0.69483  0.87583  0.14064  1.0000
  S   S576      1.0  0.70103  0.84849  0.12370  1.0000
  S   S577      1.0  0.70226  0.87831  0.16613  1.0000
  Fe  Fe286     1.0  0.69343  0.87147  0.09777  1.0000
  S   S578      1.0  0.70009  0.87349  0.06281  1.0000
  Fe  Fe287     1.0  0.68476  0.84128  0.13757  1.0000
  S   S579      1.0  0.68146  0.80883  0.15496  1.0000
  S   S580      1.0  0.68864  0.89985  0.11334  1.0000
  S   S581      1.0  0.67893  0.86706  0.15594  1.0000
  H   H2341     1.0  0.76531  0.97880  0.19223  1.0000
  H   H2342     1.0  0.76883  0.89872  0.30183  1.0000
  H   H2343     1.0  0.73058  0.89490  0.18810  1.0000
  C   C1457     1.0  0.72083  0.94579  0.18294  1.0000
  H   H2344     1.0  0.82174  0.95456  0.20411  1.0000
  S   S582      1.0  0.66249  0.74185  0.09314  1.0000
  C   C1458     1.0  0.72954  0.89999  0.13697  1.0000
  S   S583      1.0  0.68241  0.70178  0.08059  1.0000
  Fe  Fe288     1.0  0.67894  0.72733  0.09897  1.0000
  S   S584      1.0  0.69083  0.74809  0.09134  1.0000
  Fe  Fe289     1.0  0.66556  0.71507  0.07629  1.0000
  S   S585      1.0  0.67338  0.70639  0.13016  1.0000
  S   S586      1.0  0.73070  0.97922  0.21298  1.0000
  H   H2345     1.0  0.80432  0.92539  0.19324  1.0000
  H   H2346     1.0  0.65948  0.81602  0.10644  1.0000
  H   H2347     1.0  0.70957  0.76688  0.02444  1.0000
  H   H2348     1.0  0.70599  0.80657  0.15242  1.0000
  H   H2349     1.0  0.76251  0.94578  0.25865  1.0000
  C   C1459     1.0  0.76641  0.93437  0.27129  1.0000
  H   H2350     1.0  0.75540  0.90209  0.28204  1.0000
  H   H2351     1.0  0.69538  0.83552  0.17093  1.0000
  C   C1460     1.0  0.68442  0.79134  0.13777  1.0000
  C   C1461     1.0  0.67904  0.77456  0.14291  1.0000
  C   C1462     1.0  0.68087  0.76136  0.12859  1.0000
  C   C1463     1.0  0.68834  0.76451  0.10941  1.0000
  C   C1464     1.0  0.69390  0.78096  0.10455  1.0000
  C   C1465     1.0  0.69185  0.79452  0.11860  1.0000
  H   H2352     1.0  0.67334  0.77194  0.15781  1.0000
  H   H2353     1.0  0.67658  0.74866  0.13248  1.0000
  H   H2354     1.0  0.69968  0.78346  0.08972  1.0000
  H   H2355     1.0  0.69609  0.80733  0.11465  1.0000
  C   C1466     1.0  0.71429  0.88688  0.16097  1.0000
  C   C1467     1.0  0.72002  0.89302  0.14035  1.0000
  H   H2356     1.0  0.71201  0.51781  0.30692  1.0000
  C   C1468     1.0  0.70109  0.73212  0.03685  1.0000
  C   C1469     1.0  0.71814  0.88757  0.17814  1.0000
  H   H2357     1.0  0.71712  0.89247  0.12702  1.0000
  H   H2358     1.0  0.71375  0.88273  0.19414  1.0000
  C   C1470     1.0  0.68623  0.82632  0.06258  1.0000
  C   C1471     1.0  0.69126  0.83891  0.06871  1.0000
  C   C1472     1.0  0.69457  0.85679  0.05439  1.0000
  C   C1473     1.0  0.69317  0.86153  0.03356  1.0000
  H   H2359     1.0  0.68355  0.81271  0.07385  1.0000
  H   H2360     1.0  0.69265  0.83471  0.08453  1.0000
  H   H2361     1.0  0.69556  0.87537  0.02236  1.0000
  H   H2362     1.0  0.69953  0.73108  0.05419  1.0000
  H   H2363     1.0  0.80794  0.92234  0.22872  1.0000
  H   H2364     1.0  0.69521  0.74265  0.99931  1.0000
  H   H2365     1.0  0.80225  0.95116  0.17567  1.0000
  C   C1474     1.0  0.65738  0.78722  0.04985  1.0000
  C   C1475     1.0  0.77177  0.98700  0.18464  1.0000
  Fe  Fe290     1.0  0.67533  0.68177  0.11158  1.0000
  H   H2366     1.0  0.66149  0.84016  0.14856  1.0000
  C   C1476     1.0  0.70072  0.77004  0.02963  1.0000
  C   C1477     1.0  0.70790  0.79685  0.16778  1.0000
  C   C1478     1.0  0.76389  0.91353  0.30716  1.0000
  H   H2367     1.0  0.79258  0.97777  0.20859  1.0000
  H   H2368     1.0  0.70990  0.72821  0.03098  1.0000
  S   S587      1.0  0.65871  0.69247  0.10538  1.0000
  C   C1479     1.0  0.71648  0.88675  0.00421  1.0000
  H   H2369     1.0  0.78113  0.96911  0.30747  1.0000
  C   C1480     1.0  0.73333  0.90093  0.15416  1.0000
  S   S588      1.0  0.65659  0.66255  0.99477  1.0000
  C   C1481     1.0  0.68457  0.75801  0.03395  1.0000
  H   H2370     1.0  0.70443  0.78717  0.21025  1.0000
  H   H2371     1.0  0.71577  0.78570  0.16422  1.0000
  C   C1482     1.0  0.72840  0.56856  0.32109  1.0000
  Fe  Fe291     1.0  0.65716  0.71821  0.12248  1.0000
  C   C1483     1.0  0.72905  0.95563  0.25375  1.0000
  C   C1484     1.0  0.65855  0.68030  0.00796  1.0000
  C   C1485     1.0  0.65985  0.70103  0.99728  1.0000
  N   N148      1.0  0.70800  0.81065  0.18165  1.0000
  H   H2372     1.0  0.82149  0.93076  0.19661  1.0000
  C   C1486     1.0  0.65884  0.67352  0.02951  1.0000
  H   H2373     1.0  0.75719  0.52108  0.16964  1.0000
  H   H2374     1.0  0.77213  0.94201  0.27435  1.0000
  H   H2375     1.0  0.73086  0.94159  0.24712  1.0000
  C   C1487     1.0  0.72587  0.57795  0.30122  1.0000
  H   H2376     1.0  0.71574  0.90186  0.03791  1.0000
  H   H2377     1.0  0.71262  0.96501  0.13645  1.0000
  H   H2378     1.0  0.68095  0.74575  0.03171  1.0000
  C   C1488     1.0  0.72765  0.89452  0.17476  1.0000
  C   C1489     1.0  0.68278  0.50033  0.30241  1.0000
  S   S589      1.0  0.74079  0.91769  0.20920  1.0000
  C   C1490     1.0  0.72534  0.97136  0.28436  1.0000
  H   H2379     1.0  0.72432  0.81344  0.16763  1.0000
  H   H2380     1.0  0.73393  0.90489  0.12098  1.0000
  C   C1491     1.0  0.66110  0.70849  0.02998  1.0000
  H   H2381     1.0  0.65658  0.67738  0.16473  1.0000
  H   H2382     1.0  0.68073  0.77393  0.02555  1.0000
  S   S590      1.0  0.72441  0.96798  0.31157  1.0000
  C   C1492     1.0  0.68470  0.83125  0.04191  1.0000
  H   H2383     1.0  0.71634  0.83450  0.18104  1.0000
  C   C1493     1.0  0.68829  0.84871  0.02728  1.0000
  C   C1494     1.0  0.70555  0.97347  0.17524  1.0000
  H   H2384     1.0  0.72766  0.93757  0.28602  1.0000
  C   C1495     1.0  0.69738  0.82505  0.18587  1.0000
  H   H2385     1.0  0.66366  0.90064  0.08938  1.0000
  H   H2386     1.0  0.69509  0.77058  0.99408  1.0000
  S   S591      1.0  0.67819  0.81549  0.03478  1.0000
  C   C1496     1.0  0.71617  0.82367  0.17111  1.0000
  C   C1497     1.0  0.80101  0.94282  0.19265  1.0000
  H   H2387     1.0  0.72516  0.88092  0.99800  1.0000
  H   H2388     1.0  0.66014  0.68233  0.05722  1.0000
  H   H2389     1.0  0.68715  0.85258  0.01125  1.0000
  H   H2390     1.0  0.71057  0.80711  0.21267  1.0000
  N   N149      1.0  0.71401  0.90949  0.00569  1.0000
  C   C1498     1.0  0.71619  0.95289  0.14911  1.0000
  C   C1499     1.0  0.66069  0.82770  0.11421  1.0000
  H   H2391     1.0  0.79545  0.94098  0.23411  1.0000
  N   N150      1.0  0.69626  0.75367  0.02582  1.0000
  Fe  Fe292     1.0  0.80820  0.91603  0.31707  1.0000
  H   H2392     1.0  0.72905  0.93737  0.17648  1.0000
  H   H2393     1.0  0.71450  0.83425  0.15586  1.0000
  C   C1500     1.0  0.66109  0.71509  0.00830  1.0000
  C   C1501     1.0  0.75146  0.50399  0.20118  1.0000
  C   C1502     1.0  0.75217  0.94794  0.29855  1.0000
  C   C1503     1.0  0.72730  0.95334  0.27573  1.0000
  H   H2394     1.0  0.69879  0.90798  0.02711  1.0000
  H   H2395     1.0  0.70169  0.78709  0.17513  1.0000
  C   C1504     1.0  0.71223  0.50166  0.21274  1.0000
  H   H2396     1.0  0.76929  0.92111  0.31136  1.0000
  C   C1505     1.0  0.71048  0.79711  0.20188  1.0000
  N   N151      1.0  0.71648  0.96269  0.16617  1.0000
  H   H2397     1.0  0.69093  0.81593  0.19347  1.0000
  H   H2398     1.0  0.67901  0.63651  0.99187  1.0000
  H   H2399     1.0  0.81496  0.83058  0.28326  1.0000
  H   H2400     1.0  0.65862  0.76953  0.05215  1.0000
  C   C1506     1.0  0.70230  0.91726  0.01144  1.0000
  C   C1507     1.0  0.66011  0.68757  0.04052  1.0000
  H   H2401     1.0  0.71845  0.78604  0.19930  1.0000
  H   H2402     1.0  0.71736  0.92835  0.02351  1.0000
  H   H2403     1.0  0.71588  0.93347  0.18991  1.0000
  H   H2404     1.0  0.69711  0.83589  0.19615  1.0000
  H   H2405     1.0  0.70417  0.49953  0.30720  1.0000
  H   H2406     1.0  0.69863  0.77056  0.04675  1.0000
  H   H2407     1.0  0.67691  0.66851  0.15898  1.0000
  H   H2408     1.0  0.70014  0.93442  0.01247  1.0000
  H   H2409     1.0  0.74608  0.94402  0.31332  1.0000
  C   C1508     1.0  0.75099  0.52142  0.18392  1.0000
  H   H2410     1.0  0.68408  0.59741  0.99274  1.0000
  H   H2411     1.0  0.74206  0.55250  0.17144  1.0000
  C   C1509     1.0  0.74243  0.53917  0.18494  1.0000
  S   S592      1.0  0.76062  0.88315  0.24602  1.0000
  S   S593      1.0  0.78106  0.95368  0.16430  1.0000
  Fe  Fe293     1.0  0.74979  0.91915  0.17539  1.0000
  H   H2412     1.0  0.72439  0.94525  0.14151  1.0000
  Fe  Fe294     1.0  0.76636  0.94026  0.18070  1.0000
  C   C1510     1.0  0.72340  0.97847  0.15750  1.0000
  H   H2413     1.0  0.70017  0.96190  0.18191  1.0000
  C   C1511     1.0  0.72457  0.99178  0.27107  1.0000
  S   S594      1.0  0.76599  0.90593  0.18350  1.0000
  H   H2414     1.0  0.74778  0.95951  0.28671  1.0000
  S   S595      1.0  0.75106  0.95345  0.16952  1.0000
  S   S596      1.0  0.80524  0.88447  0.26055  1.0000
  S   S597      1.0  0.74481  0.91136  0.14922  1.0000
  Fe  Fe295     1.0  0.80371  0.88789  0.29353  1.0000
  H   H2415     1.0  0.66038  0.79056  0.06227  1.0000
  S   S598      1.0  0.75865  0.94071  0.21471  1.0000
  C   C1512     1.0  0.80145  0.97445  0.20340  1.0000
  C   C1513     1.0  0.70984  0.56340  0.31270  1.0000
  H   H2416     1.0  0.75808  0.90849  0.32197  1.0000
  H   H2417     1.0  0.70555  0.98083  0.18829  1.0000
  C   C1514     1.0  0.71894  0.91139  0.02207  1.0000
  H   H2418     1.0  0.71212  0.88446  0.99336  1.0000
  C   C1515     1.0  0.70814  0.50448  0.31710  1.0000
  H   H2419     1.0  0.81991  0.81786  0.30720  1.0000
  H   H2420     1.0  0.82163  0.92962  0.27469  1.0000
  C   C1516     1.0  0.72823  0.97609  0.24051  1.0000
  C   C1517     1.0  0.78031  0.97858  0.16967  1.0000
  N   N152      1.0  0.75841  0.92843  0.29075  1.0000
  Fe  Fe296     1.0  0.75707  0.90744  0.21684  1.0000
  Fe  Fe297     1.0  0.67827  0.82392  0.00012  1.0000
  H   H2421     1.0  0.65787  0.65334  0.15589  1.0000
  C   C1518     1.0  0.77324  0.88252  0.24963  1.0000
  C   C1519     1.0  0.78065  0.89197  0.23309  1.0000
  C   C1520     1.0  0.79059  0.89204  0.23639  1.0000
  C   C1521     1.0  0.79298  0.88340  0.25642  1.0000
  C   C1522     1.0  0.78553  0.87417  0.27303  1.0000
  C   C1523     1.0  0.77576  0.87337  0.26952  1.0000
  H   H2422     1.0  0.77878  0.89898  0.21766  1.0000
  H   H2423     1.0  0.79636  0.89895  0.22344  1.0000
  H   H2424     1.0  0.78737  0.86727  0.28847  1.0000
  H   H2425     1.0  0.77007  0.86594  0.28231  1.0000
  N   N153      1.0  0.80606  0.95127  0.20471  1.0000
  Fe  Fe298     1.0  0.74326  0.95105  0.20375  1.0000
  C   C1524     1.0  0.80414  0.93970  0.22709  1.0000
  C   C1525     1.0  0.72573  0.99416  0.24926  1.0000
  C   C1526     1.0  0.74348  0.50457  0.21971  1.0000
  H   H2426     1.0  0.80346  0.98385  0.18694  1.0000
  H   H2427     1.0  0.77112  0.92002  0.26484  1.0000
  C   C1527     1.0  0.69862  0.75452  0.00285  1.0000
  H   H2428     1.0  0.74441  0.91499  0.29980  1.0000
  H   H2429     1.0  0.72128  0.95255  0.19604  1.0000
  S   S599      1.0  0.79390  0.91730  0.30508  1.0000
  H   H2430     1.0  0.66846  0.82098  0.11916  1.0000
  S   S600      1.0  0.69796  0.56039  0.30845  1.0000
  H   H2431     1.0  0.70433  0.50736  0.22272  1.0000
  H   H2432     1.0  0.80747  0.94618  0.23688  1.0000
  C   C1528     1.0  0.82176  0.97891  0.24182  1.0000
  H   H2433     1.0  0.79222  0.94493  0.19897  1.0000
  H   H2434     1.0  0.69752  0.78641  0.02091  1.0000
  H   H2435     1.0  0.70736  0.75130  0.99603  1.0000
  H   H2436     1.0  0.80463  0.98103  0.21338  1.0000
  H   H2437     1.0  0.79376  0.97434  0.29134  1.0000
  H   H2438     1.0  0.66254  0.79295  0.03448  1.0000
  H   H2439     1.0  0.73165  0.97078  0.15020  1.0000
  H   H2440     1.0  0.71762  0.51191  0.21261  1.0000
  H   H2441     1.0  0.71149  0.94007  0.15528  1.0000
  S   S601      1.0  0.68854  0.50076  0.25969  1.0000
  H   H2442     1.0  0.71111  0.50467  0.19632  1.0000
  H   H2443     1.0  0.72028  0.99177  0.14507  1.0000
  C   C1529     1.0  0.82032  0.83134  0.29303  1.0000
  C   C1530     1.0  0.81773  0.99157  0.25699  1.0000
  H   H2444     1.0  0.81938  0.95652  0.17872  1.0000
  S   S602      1.0  0.65645  0.90743  0.13223  1.0000
  H   H2445     1.0  0.65816  0.80421  0.15445  1.0000
  H   H2446     1.0  0.81695  0.84637  0.29891  1.0000
  H   H2447     1.0  0.69830  0.91564  0.99960  1.0000
  C   C1531     1.0  0.81768  0.94806  0.19565  1.0000
  S   S603      1.0  0.66878  0.80631  0.99100  1.0000
  H   H2448     1.0  0.65790  0.65746  0.03783  1.0000
  S   S604      1.0  0.81847  0.88834  0.30295  1.0000
  H   H2449     1.0  0.81266  0.99153  0.29037  1.0000
  C   C1532     1.0  0.81656  0.95949  0.28503  1.0000
  C   C1533     1.0  0.81544  0.98179  0.27861  1.0000
  C   C1534     1.0  0.82056  0.94685  0.26985  1.0000
  S   S605      1.0  0.81378  0.76155  0.49704  1.0000
  H   H2450     1.0  0.76813  0.59751  0.33485  1.0000
  C   C1535     1.0  0.80801  0.74960  0.56399  1.0000
  H   H2451     1.0  0.73260  0.51257  0.44427  1.0000
  H   H2452     1.0  0.81448  0.74869  0.57196  1.0000
  C   C1536     1.0  0.72170  0.55642  0.33662  1.0000
  H   H2453     1.0  0.70707  0.54520  0.34482  1.0000
  H   H2454     1.0  0.72357  0.54914  0.35199  1.0000
  S   S606      1.0  0.74001  0.57149  0.32663  1.0000
  S   S607      1.0  0.73758  0.53469  0.38382  1.0000
  C   C1537     1.0  0.78892  0.67499  0.48208  1.0000
  C   C1538     1.0  0.79816  0.72990  0.55369  1.0000
  H   H2455     1.0  0.76358  0.61850  0.36253  1.0000
  H   H2456     1.0  0.75920  0.55525  0.56792  1.0000
  C   C1539     1.0  0.81520  0.70802  0.40841  1.0000
  Fe  Fe299     1.0  0.75420  0.52109  0.38937  1.0000
  S   S608      1.0  0.75663  0.52757  0.41889  1.0000
  H   H2457     1.0  0.77925  0.54961  0.58410  1.0000
  S   S609      1.0  0.81106  0.62827  0.59397  1.0000
  C   C1540     1.0  0.71236  0.55415  0.33255  1.0000
  Fe  Fe300     1.0  0.78986  0.64253  0.44745  1.0000
  S   S610      1.0  0.79936  0.62958  0.41897  1.0000
  Fe  Fe301     1.0  0.79455  0.59945  0.47702  1.0000
  S   S611      1.0  0.80487  0.58265  0.45103  1.0000
  S   S612      1.0  0.79124  0.58713  0.51243  1.0000
  H   H2458     1.0  0.74408  0.60829  0.33767  1.0000
  Fe  Fe302     1.0  0.79178  0.60096  0.43338  1.0000
  S   S613      1.0  0.78769  0.58925  0.40835  1.0000
  S   S614      1.0  0.80256  0.62727  0.46585  1.0000
  S   S615      1.0  0.78096  0.61579  0.46035  1.0000
  C   C1541     1.0  0.77839  0.58001  0.65511  1.0000
  H   H2459     1.0  0.80019  0.57413  0.61483  1.0000
  H   H2460     1.0  0.76013  0.57909  0.33631  1.0000
  H   H2461     1.0  0.81913  0.72365  0.53704  1.0000
  C   C1542     1.0  0.80723  0.59822  0.55036  1.0000
  C   C1543     1.0  0.79903  0.59692  0.54166  1.0000
  C   C1544     1.0  0.80150  0.58907  0.52312  1.0000
  H   H2462     1.0  0.75191  0.62692  0.33641  1.0000
  C   C1545     1.0  0.81791  0.59162  0.54054  1.0000
  H   H2463     1.0  0.80528  0.60456  0.56448  1.0000
  H   H2464     1.0  0.79080  0.60244  0.54905  1.0000
  H   H2465     1.0  0.80351  0.67942  0.41125  1.0000
  H   H2466     1.0  0.81600  0.71553  0.39127  1.0000
  S   S616      1.0  0.75418  0.99478  0.35914  1.0000
  C   C1546     1.0  0.76569  0.54374  0.41633  1.0000
  C   C1547     1.0  0.76556  0.55190  0.43362  1.0000
  C   C1548     1.0  0.77244  0.56546  0.43168  1.0000
  C   C1549     1.0  0.77950  0.57091  0.41240  1.0000
  C   C1550     1.0  0.77975  0.56241  0.39525  1.0000
  C   C1551     1.0  0.77290  0.54887  0.39720  1.0000
  H   H2467     1.0  0.76004  0.54792  0.44852  1.0000
  H   H2468     1.0  0.77219  0.57193  0.44497  1.0000
  H   H2469     1.0  0.78528  0.56638  0.38036  1.0000
  H   H2470     1.0  0.77327  0.54222  0.38397  1.0000
  Fe  Fe303     1.0  0.81141  0.73258  0.48931  1.0000
  C   C1552     1.0  0.78834  0.58257  0.64201  1.0000
  H   H2471     1.0  0.78826  0.71902  0.44171  1.0000
  C   C1553     1.0  0.78686  0.55888  0.62158  1.0000
  H   H2472     1.0  0.76842  0.57338  0.35508  1.0000
  H   H2473     1.0  0.75974  0.55440  0.59451  1.0000
  H   H2474     1.0  0.74417  0.57562  0.36557  1.0000
  N   N154      1.0  0.75415  0.59787  0.36024  1.0000
  H   H2475     1.0  0.81276  0.84805  0.41798  1.0000
  H   H2476     1.0  0.76333  0.59475  0.38311  1.0000
  C   C1554     1.0  0.77273  0.56680  0.65159  1.0000
  H   H2477     1.0  0.67612  0.97878  0.43563  1.0000
  H   H2478     1.0  0.75265  0.56898  0.38410  1.0000
  N   N155      1.0  0.76812  0.57658  0.57050  1.0000
  C   C1555     1.0  0.76719  0.59056  0.54951  1.0000
  C   C1556     1.0  0.77836  0.56059  0.56857  1.0000
  C   C1557     1.0  0.75919  0.56527  0.57875  1.0000
  C   C1558     1.0  0.76775  0.58987  0.58522  1.0000
  H   H2479     1.0  0.76827  0.58103  0.53748  1.0000
  H   H2480     1.0  0.77340  0.60037  0.54348  1.0000
  H   H2481     1.0  0.75928  0.60191  0.55006  1.0000
  H   H2482     1.0  0.78531  0.56842  0.56260  1.0000
  C   C1559     1.0  0.81710  0.84265  0.38623  1.0000
  H   H2483     1.0  0.77470  0.59773  0.58009  1.0000
  H   H2484     1.0  0.76791  0.58004  0.60145  1.0000
  H   H2485     1.0  0.76033  0.60267  0.58638  1.0000
  H   H2486     1.0  0.78710  0.65922  0.48678  1.0000
  S   S617      1.0  0.78398  0.67828  0.44399  1.0000
  H   H2487     1.0  0.74103  0.59041  0.38595  1.0000
  S   S618      1.0  0.77015  0.53886  0.63064  1.0000
  Fe  Fe304     1.0  0.81080  0.60409  0.62494  1.0000
  C   C1560     1.0  0.79241  0.68257  0.49601  1.0000
  C   C1561     1.0  0.77700  0.55597  0.63500  1.0000
  H   H2488     1.0  0.79023  0.55059  0.60867  1.0000
  C   C1562     1.0  0.78950  0.70875  0.45677  1.0000
  H   H2489     1.0  0.81670  0.62495  0.49862  1.0000
  C   C1563     1.0  0.79253  0.57215  0.62507  1.0000
  S   S619      1.0  0.76206  0.53074  0.35508  1.0000
  C   C1564     1.0  0.81684  0.71576  0.55400  1.0000
  C   C1565     1.0  0.81989  0.63851  0.48710  1.0000
  H   H2490     1.0  0.81416  0.57640  0.49907  1.0000
  C   C1566     1.0  0.74734  0.61502  0.34744  1.0000
  C   C1567     1.0  0.74772  0.58256  0.37462  1.0000
  Fe  Fe305     1.0  0.81194  0.86753  0.33372  1.0000
  Fe  Fe306     1.0  0.74539  0.54136  0.34950  1.0000
  H   H2491     1.0  0.75187  0.61643  0.38345  1.0000
  Fe  Fe307     1.0  0.78952  0.89458  0.33588  1.0000
  N   N156      1.0  0.78242  0.85222  0.40824  1.0000
  H   H2492     1.0  0.81288  0.65171  0.48410  1.0000
  H   H2493     1.0  0.79610  0.86513  0.39034  1.0000
  Fe  Fe308     1.0  0.81157  0.61249  0.43835  1.0000
  C   C1568     1.0  0.76311  0.58647  0.34600  1.0000
  H   H2494     1.0  0.79277  0.84848  0.42918  1.0000
  C   C1569     1.0  0.75918  0.96772  0.35793  1.0000
  H   H2495     1.0  0.76880  0.83752  0.41950  1.0000
  H   H2496     1.0  0.67753  0.49975  0.33587  1.0000
  H   H2497     1.0  0.79036  0.73894  0.56130  1.0000
  S   S620      1.0  0.79959  0.71196  0.50723  1.0000
  H   H2498     1.0  0.80315  0.69991  0.58808  1.0000
  S   S621      1.0  0.80307  0.89538  0.34914  1.0000
  C   C1570     1.0  0.67106  0.99469  0.43011  1.0000
  C   C1571     1.0  0.76737  0.92452  0.35557  1.0000
  C   C1572     1.0  0.78753  0.68802  0.46236  1.0000
  C   C1573     1.0  0.80379  0.71662  0.58694  1.0000
  C   C1574     1.0  0.79322  0.71615  0.47048  1.0000
  H   H2499     1.0  0.77901  0.55057  0.55724  1.0000
  C   C1575     1.0  0.78741  0.83983  0.42629  1.0000
  H   H2500     1.0  0.77140  0.84932  0.39163  1.0000
  C   C1576     1.0  0.75247  0.95525  0.35693  1.0000
  H   H2501     1.0  0.75124  0.92382  0.35597  1.0000
  H   H2502     1.0  0.73663  0.50232  0.42073  1.0000
  C   C1577     1.0  0.75841  0.60735  0.37283  1.0000
  H   H2503     1.0  0.81017  0.75863  0.54739  1.0000
  H   H2504     1.0  0.74409  0.96222  0.35726  1.0000
  H   H2505     1.0  0.75132  0.57676  0.58079  1.0000
  C   C1578     1.0  0.79472  0.70304  0.49009  1.0000
  H   H2506     1.0  0.77977  0.82435  0.40176  1.0000
  H   H2507     1.0  0.79465  0.73221  0.46610  1.0000
  H   H2508     1.0  0.77523  0.96826  0.35821  1.0000
  C   C1579     1.0  0.81219  0.58256  0.51332  1.0000
  C   C1580     1.0  0.77617  0.87334  0.41252  1.0000
  H   H2509     1.0  0.79338  0.67248  0.51129  1.0000
  H   H2510     1.0  0.80668  0.71288  0.41640  1.0000
  H   H2511     1.0  0.80007  0.73843  0.53683  1.0000
  H   H2512     1.0  0.79708  0.71383  0.55367  1.0000
  S   S622      1.0  0.74199  0.52238  0.65409  1.0000
  H   H2513     1.0  0.80889  0.67856  0.44324  1.0000
  H   H2514     1.0  0.79241  0.82398  0.42340  1.0000
  H   H2515     1.0  0.74040  0.62377  0.35764  1.0000
  S   S623      1.0  0.81509  0.74470  0.45419  1.0000
  H   H2516     1.0  0.79603  0.72505  0.59534  1.0000
  C   C1581     1.0  0.79083  0.85547  0.38884  1.0000
  H   H2517     1.0  0.78134  0.88285  0.41473  1.0000
  C   C1582     1.0  0.77002  0.95864  0.35746  1.0000
  H   H2518     1.0  0.76972  0.87159  0.42704  1.0000
  H   H2519     1.0  0.79596  0.83992  0.38542  1.0000
  H   H2520     1.0  0.78735  0.86416  0.37479  1.0000
  H   H2521     1.0  0.80055  0.75930  0.57201  1.0000
  H   H2522     1.0  0.80992  0.71538  0.59583  1.0000
  S   S624      1.0  0.79545  0.59822  0.64780  1.0000
  C   C1583     1.0  0.77416  0.93717  0.35584  1.0000
  H   H2523     1.0  0.77235  0.88312  0.39912  1.0000
  H   H2524     1.0  0.78132  0.83673  0.44120  1.0000
  S   S625      1.0  0.77252  0.89766  0.35366  1.0000
  H   H2525     1.0  0.78256  0.93033  0.35527  1.0000
  H   H2526     1.0  0.82005  0.71499  0.41482  1.0000
  C   C1584     1.0  0.77527  0.84030  0.40517  1.0000
  C   C1585     1.0  0.75652  0.93353  0.35621  1.0000
  N   N157      1.0  0.80670  0.72798  0.56466  1.0000
  S   S626      1.0  0.74447  0.50999  0.34460  1.0000
  C   C1586     1.0  0.81667  0.81426  0.41819  1.0000
  S   S627      1.0  0.81331  0.80681  0.44603  1.0000
  H   H2527     1.0  0.70172  0.51132  0.32957  1.0000
  N   N158      1.0  0.81869  0.68440  0.41194  1.0000
  Fe  Fe309     1.0  0.81912  0.77221  0.46156  1.0000
  C   C1587     1.0  0.81741  0.67528  0.43489  1.0000
  H   H2528     1.0  0.81273  0.68246  0.38602  1.0000
  C   C1588     1.0  0.81211  0.67574  0.40326  1.0000
  C   C1589     1.0  0.81525  0.83612  0.40839  1.0000
  H   H2529     1.0  0.66856  0.99398  0.41588  1.0000
  H   H2530     1.0  0.81468  0.65796  0.40550  1.0000
  H   H2531     1.0  0.81608  0.85953  0.37881  1.0000
  H   H2532     1.0  0.81626  0.69914  0.55470  1.0000
  Fe  Fe310     1.0  0.76061  0.49856  0.35262  1.0000
  C   C1590     1.0  0.73221  0.49938  0.43743  1.0000
  C   C1591     1.0  0.82028  0.82734  0.37375  1.0000
  Fe  Fe311     1.0  0.73824  0.50198  0.37961  1.0000
  H   H2533     1.0  0.69201  0.99299  0.41307  1.0000
  H   H2534     1.0  0.81462  0.66422  0.51465  1.0000
  H   H2535     1.0  0.81917  0.63700  0.52769  1.0000
  C   C1592     1.0  0.82020  0.79890  0.40569  1.0000
  C   C1593     1.0  0.82036  0.58361  0.52217  1.0000
  H   H2536     1.0  0.71482  0.49946  0.35308  1.0000
  H   H2537     1.0  0.82034  0.65757  0.43813  1.0000
  H   H2538     1.0  0.72473  0.50739  0.33016  1.0000
  S   S628      1.0  0.82115  0.77157  0.64880  1.0000
  H   H2539     1.0  0.72373  0.50073  0.43711  1.0000
  H   H2540     1.0  0.82136  0.78200  0.41312  1.0000
  S   S629      1.0  0.79783  0.86517  0.32314  1.0000
  C   C1594     1.0  0.82185  0.65102  0.51597  1.0000
  S   S630      1.0  0.82185  0.83527  0.34603  1.0000
  H   H2541     1.0  0.82190  0.68227  0.44200  1.0000
  H   H2542     1.0  0.82197  0.80234  0.54791  1.0000
  C   C1595     1.0  0.82202  0.80545  0.38349  1.0000
  C   C1596     1.0  0.82007  0.82906  0.69719  1.0000
  S   S631      1.0  0.71867  0.55516  0.69083  1.0000
  H   H2543     1.0  0.68201  0.63074  0.83688  1.0000
  H   H2544     1.0  0.80245  0.92420  0.86688  1.0000
  C   C1597     1.0  0.81292  0.96169  0.87521  1.0000
  Fe  Fe312     1.0  0.68925  0.55324  0.80216  1.0000
  S   S632      1.0  0.67382  0.57180  0.79309  1.0000
  S   S633      1.0  0.70511  0.56189  0.78679  1.0000
  Fe  Fe313     1.0  0.67857  0.52183  0.83762  1.0000
  S   S634      1.0  0.66222  0.53767  0.83157  1.0000
  Fe  Fe314     1.0  0.67042  0.53920  0.79734  1.0000
  S   S635      1.0  0.66523  0.53073  0.77191  1.0000
  Fe  Fe315     1.0  0.66734  0.56842  0.82823  1.0000
  H   H2545     1.0  0.65563  0.75779  0.96852  1.0000
  H   H2546     1.0  0.81605  0.86355  0.86134  1.0000
  S   S636      1.0  0.68309  0.55216  0.83684  1.0000
  S   S637      1.0  0.67081  0.63756  0.90369  1.0000
  C   C1598     1.0  0.66082  0.60737  0.86010  1.0000
  H   H2547     1.0  0.72250  0.99276  0.74296  1.0000
  C   C1599     1.0  0.66667  0.62610  0.88719  1.0000
  C   C1600     1.0  0.67327  0.60756  0.88057  1.0000
  C   C1601     1.0  0.67032  0.59815  0.86724  1.0000
  H   H2548     1.0  0.68066  0.60038  0.88589  1.0000
  H   H2549     1.0  0.67538  0.58372  0.86263  1.0000
  H   H2550     1.0  0.66484  0.52766  0.87947  1.0000
  H   H2551     1.0  0.78837  0.95543  0.87569  1.0000
  H   H2552     1.0  0.68361  0.64250  0.93367  1.0000
  C   C1602     1.0  0.79229  0.89929  0.71235  1.0000
  H   H2553     1.0  0.70770  0.62621  0.79659  1.0000
  H   H2554     1.0  0.82046  0.95105  0.87923  1.0000
  H   H2555     1.0  0.70158  0.58313  0.82021  1.0000
  H   H2556     1.0  0.70465  0.60155  0.83165  1.0000
  H   H2557     1.0  0.74630  0.96219  0.73051  1.0000
  H   H2558     1.0  0.68033  0.62311  0.79561  1.0000
  C   C1603     1.0  0.71506  0.55822  0.71714  1.0000
  C   C1604     1.0  0.72259  0.55078  0.72990  1.0000
  C   C1605     1.0  0.71953  0.55230  0.75120  1.0000
  C   C1606     1.0  0.70886  0.56057  0.76000  1.0000
  C   C1607     1.0  0.70130  0.56780  0.74733  1.0000
  C   C1608     1.0  0.70444  0.56700  0.72581  1.0000
  H   H2559     1.0  0.72540  0.54666  0.76097  1.0000
  H   H2560     1.0  0.69307  0.57437  0.75400  1.0000
  H   H2561     1.0  0.69861  0.57290  0.71596  1.0000
  S   S638      1.0  0.67091  0.85609  0.98276  1.0000
  H   H2562     1.0  0.69221  0.59292  0.84205  1.0000
  N   N159      1.0  0.69299  0.61580  0.81230  1.0000
  C   C1609     1.0  0.68829  0.63445  0.82240  1.0000
  C   C1610     1.0  0.69807  0.59758  0.82723  1.0000
  C   C1611     1.0  0.70113  0.62142  0.79296  1.0000
  C   C1612     1.0  0.68448  0.60965  0.80656  1.0000
  H   H2563     1.0  0.77505  0.58831  0.66802  1.0000
  H   H2564     1.0  0.66364  0.55619  0.87151  1.0000
  H   H2565     1.0  0.69445  0.63942  0.82720  1.0000
  Fe  Fe316     1.0  0.73489  0.53362  0.68459  1.0000
  H   H2566     1.0  0.66671  0.63777  0.95954  1.0000
  H   H2567     1.0  0.68182  0.52819  0.73392  1.0000
  C   C1613     1.0  0.79584  0.52146  0.70306  1.0000
  H   H2568     1.0  0.78395  0.85285  0.73743  1.0000
  C   C1614     1.0  0.76476  0.99409  0.82584  1.0000
  H   H2569     1.0  0.81490  0.97033  0.85844  1.0000
  C   C1615     1.0  0.82169  0.86724  0.70621  1.0000
  H   H2570     1.0  0.77795  0.54924  0.69470  1.0000
  H   H2571     1.0  0.71122  0.51733  0.72592  1.0000
  H   H2572     1.0  0.69642  0.60077  0.97418  1.0000
  Fe  Fe317     1.0  0.75748  0.52665  0.65804  1.0000
  H   H2573     1.0  0.80363  0.51028  0.69884  1.0000
  H   H2574     1.0  0.68781  0.59596  0.79847  1.0000
  H   H2575     1.0  0.69758  0.63491  0.78117  1.0000
  H   H2576     1.0  0.80135  0.98128  0.72342  1.0000
  H   H2577     1.0  0.68446  0.64854  0.81151  1.0000
  H   H2578     1.0  0.70485  0.60752  0.78510  1.0000
  C   C1616     1.0  0.76268  0.99215  0.91248  1.0000
  H   H2579     1.0  0.73079  0.54393  0.72338  1.0000
  H   H2580     1.0  0.79625  0.85956  0.73639  1.0000
  Fe  Fe318     1.0  0.81356  0.90243  0.74191  1.0000
  Fe  Fe319     1.0  0.66247  0.83782  0.97149  1.0000
  H   H2581     1.0  0.77529  0.99373  0.78578  1.0000
  H   H2582     1.0  0.78283  0.96401  0.93780  1.0000
  C   C1617     1.0  0.66208  0.54287  0.88533  1.0000
  C   C1618     1.0  0.77839  0.97699  0.92775  1.0000
  H   H2583     1.0  0.67831  0.60477  0.82075  1.0000
  H   H2584     1.0  0.78918  0.98482  0.71486  1.0000
  H   H2585     1.0  0.76239  0.91655  0.81210  1.0000
  H   H2586     1.0  0.76710  0.99175  0.74643  1.0000
  H   H2587     1.0  0.81020  0.97396  0.88513  1.0000
  C   C1619     1.0  0.71837  0.86942  0.95709  1.0000
  C   C1620     1.0  0.77720  0.53230  0.70165  1.0000
  Fe  Fe320     1.0  0.68444  0.84858  0.95538  1.0000
  S   S639      1.0  0.69260  0.87465  0.93327  1.0000
  Fe  Fe321     1.0  0.68224  0.80262  0.96317  1.0000
  S   S640      1.0  0.67522  0.83305  0.94241  1.0000
  H   H2588     1.0  0.77140  0.87766  0.71554  1.0000
  H   H2589     1.0  0.79942  0.95005  0.91164  1.0000
  C   C1621     1.0  0.70907  0.86562  0.95410  1.0000
  C   C1622     1.0  0.67873  0.76251  0.94562  1.0000
  C   C1623     1.0  0.67265  0.77861  0.93269  1.0000
  C   C1624     1.0  0.70810  0.50349  0.72563  1.0000
  H   H2590     1.0  0.79579  0.92937  0.90434  1.0000
  C   C1625     1.0  0.67192  0.73564  0.93790  1.0000
  C   C1626     1.0  0.67830  0.74104  0.94830  1.0000
  H   H2591     1.0  0.67297  0.79520  0.93043  1.0000
  H   H2592     1.0  0.67169  0.71905  0.94003  1.0000
  H   H2593     1.0  0.72202  0.85918  0.96991  1.0000
  C   C1627     1.0  0.70436  0.87863  0.93742  1.0000
  C   C1628     1.0  0.70907  0.89534  0.92373  1.0000
  H   H2594     1.0  0.70547  0.90541  0.91077  1.0000
  S   S641      1.0  0.68703  0.76876  0.95835  1.0000
  C   C1629     1.0  0.71833  0.89923  0.92682  1.0000
  H   H2595     1.0  0.72179  0.91234  0.91635  1.0000
  H   H2596     1.0  0.70554  0.85265  0.96466  1.0000
  H   H2597     1.0  0.78134  0.96421  0.83812  1.0000
  H   H2598     1.0  0.66764  0.50866  0.73909  1.0000
  C   C1630     1.0  0.72295  0.88640  0.94365  1.0000
  H   H2599     1.0  0.68292  0.72854  0.95841  1.0000
  H   H2600     1.0  0.68705  0.61447  0.93416  1.0000
  S   S642      1.0  0.69253  0.81754  0.97391  1.0000
  S   S643      1.0  0.73402  0.89196  0.94908  1.0000
  S   S644      1.0  0.73723  0.94548  0.90355  1.0000
  S   S645      1.0  0.66694  0.68182  0.93421  1.0000
  C   C1631     1.0  0.68986  0.52133  0.73766  1.0000
  H   H2601     1.0  0.79175  0.97662  0.88256  1.0000
  C   C1632     1.0  0.81917  0.99380  0.81236  1.0000
  H   H2602     1.0  0.81626  0.85258  0.73883  1.0000
  H   H2603     1.0  0.67022  0.60975  0.95971  1.0000
  H   H2604     1.0  0.77068  0.52962  0.69603  1.0000
  H   H2605     1.0  0.76773  0.91214  0.83504  1.0000
  C   C1633     1.0  0.76546  0.87453  0.81195  1.0000
  H   H2606     1.0  0.78030  0.86663  0.83499  1.0000
  H   H2607     1.0  0.79218  0.91068  0.69678  1.0000
  C   C1634     1.0  0.81733  0.83193  0.71810  1.0000
  C   C1635     1.0  0.79485  0.96418  0.87286  1.0000
  H   H2608     1.0  0.68993  0.53035  0.69534  1.0000
  H   H2609     1.0  0.78869  0.98696  0.74116  1.0000
  H   H2610     1.0  0.79704  0.53813  0.69573  1.0000
  S   S646      1.0  0.74995  0.54086  0.68675  1.0000
  H   H2611     1.0  0.78388  0.51708  0.66628  1.0000
  C   C1636     1.0  0.79030  0.51956  0.67248  1.0000
  H   H2612     1.0  0.80078  0.89312  0.71357  1.0000
  H   H2613     1.0  0.76307  0.98772  0.84328  1.0000
  H   H2614     1.0  0.79186  0.88097  0.68150  1.0000
  C   C1637     1.0  0.66614  0.75165  0.92438  1.0000
  N   N160      1.0  0.78734  0.51703  0.69574  1.0000
  H   H2615     1.0  0.77142  0.89920  0.72695  1.0000
  H   H2616     1.0  0.71836  0.49827  0.83248  1.0000
  H   H2617     1.0  0.66721  0.54198  0.89622  1.0000
  C   C1638     1.0  0.78778  0.86648  0.73519  1.0000
  H   H2618     1.0  0.79642  0.97268  0.85595  1.0000
  C   C1639     1.0  0.65707  0.63511  0.88038  1.0000
  C   C1640     1.0  0.68785  0.60117  0.97556  1.0000
  C   C1641     1.0  0.74044  0.98192  0.85010  1.0000
  S   S647      1.0  0.75027  0.99053  0.90935  1.0000
  H   H2619     1.0  0.70402  0.51941  0.68764  1.0000
  Fe  Fe322     1.0  0.75063  0.95661  0.90872  1.0000
  S   S648      1.0  0.76258  0.94670  0.88066  1.0000
  S   S649      1.0  0.65679  0.59599  0.84333  1.0000
  Fe  Fe323     1.0  0.76672  0.91536  0.90277  1.0000
  S   S650      1.0  0.78381  0.89982  0.90384  1.0000
  C   C1642     1.0  0.77032  0.95712  0.75492  1.0000
  S   S651      1.0  0.75577  0.92610  0.93150  1.0000
  H   H2620     1.0  0.78875  0.85638  0.69868  1.0000
  Fe  Fe324     1.0  0.80815  0.89463  0.78990  1.0000
  C   C1643     1.0  0.66624  0.50339  0.77271  1.0000
  S   S652      1.0  0.81228  0.87253  0.81966  1.0000
  Fe  Fe325     1.0  0.79067  0.91394  0.76581  1.0000
  S   S653      1.0  0.80087  0.93295  0.73933  1.0000
  S   S654      1.0  0.77412  0.91303  0.76509  1.0000
  N   N161      1.0  0.78702  0.88161  0.71467  1.0000
  Fe  Fe326     1.0  0.80633  0.94027  0.76503  1.0000
  C   C1644     1.0  0.75604  0.97932  0.73751  1.0000
  S   S655      1.0  0.80285  0.88309  0.76692  1.0000
  S   S656      1.0  0.79488  0.92379  0.79110  1.0000
  C   C1645     1.0  0.75839  0.94055  0.74640  1.0000
  C   C1646     1.0  0.74168  0.97791  0.81479  1.0000
  H   H2621     1.0  0.77705  0.95569  0.76163  1.0000
  H   H2622     1.0  0.78830  0.90863  0.72489  1.0000
  H   H2623     1.0  0.77378  0.87198  0.80229  1.0000
  H   H2624     1.0  0.69273  0.53482  0.73950  1.0000
  C   C1647     1.0  0.74262  0.96871  0.83575  1.0000
  H   H2625     1.0  0.81456  0.81938  0.73092  1.0000
  Fe  Fe327     1.0  0.74968  0.93353  0.87681  1.0000
  H   H2626     1.0  0.74792  0.89848  0.83257  1.0000
  H   H2627     1.0  0.75262  0.89413  0.85610  1.0000
  N   N162      1.0  0.68237  0.62227  0.96492  1.0000
  S   S657      1.0  0.80526  0.97466  0.76640  1.0000
  H   H2628     1.0  0.75073  0.87176  0.84853  1.0000
  C   C1648     1.0  0.80221  0.93838  0.90108  1.0000
  C   C1649     1.0  0.81059  0.98136  0.78458  1.0000
  C   C1650     1.0  0.78253  0.97173  0.82092  1.0000
  H   H2629     1.0  0.75587  0.92634  0.74651  1.0000
  C   C1651     1.0  0.79132  0.89151  0.88062  1.0000
  C   C1652     1.0  0.78726  0.89790  0.86225  1.0000
  C   C1653     1.0  0.79365  0.89197  0.84349  1.0000
  C   C1654     1.0  0.80407  0.87976  0.84305  1.0000
  C   C1655     1.0  0.80803  0.87315  0.86154  1.0000
  C   C1656     1.0  0.80169  0.87913  0.88027  1.0000
  H   H2630     1.0  0.77924  0.90746  0.86253  1.0000
  H   H2631     1.0  0.79045  0.89643  0.82952  1.0000
  S   S658      1.0  0.82008  0.91159  0.76515  1.0000
  H   H2632     1.0  0.80483  0.87415  0.89449  1.0000
  C   C1657     1.0  0.68299  0.63918  0.97475  1.0000
  H   H2633     1.0  0.66199  0.78563  0.91150  1.0000
  C   C1658     1.0  0.77564  0.89054  0.71390  1.0000
  H   H2634     1.0  0.76025  0.88540  0.80118  1.0000
  H   H2635     1.0  0.74132  0.97510  0.86615  1.0000
  H   H2636     1.0  0.74339  0.96778  0.80358  1.0000
  C   C1659     1.0  0.76713  0.93866  0.75496  1.0000
  H   H2637     1.0  0.77137  0.87604  0.85753  1.0000
  H   H2638     1.0  0.68751  0.58805  0.96855  1.0000
  C   C1660     1.0  0.71832  0.92253  0.98501  1.0000
  C   C1661     1.0  0.81821  0.85082  0.72261  1.0000
  C   C1662     1.0  0.77180  0.86935  0.84374  1.0000
  H   H2639     1.0  0.81079  0.94109  0.84805  1.0000
  H   H2640     1.0  0.69951  0.54118  0.70091  1.0000
  H   H2641     1.0  0.71511  0.92062  0.97213  1.0000
  C   C1663     1.0  0.68756  0.62668  0.94217  1.0000
  C   C1664     1.0  0.69769  0.52600  0.70031  1.0000
  S   S659      1.0  0.75508  0.90067  0.89600  1.0000
  H   H2642     1.0  0.79123  0.97111  0.81449  1.0000
  Fe  Fe328     1.0  0.74361  0.91364  0.92334  1.0000
  H   H2643     1.0  0.79383  0.51977  0.72055  1.0000
  C   C1665     1.0  0.76787  0.90485  0.82189  1.0000
  N   N163      1.0  0.80465  0.94938  0.87857  1.0000
  C   C1666     1.0  0.76468  0.97751  0.74642  1.0000
  N   N164      1.0  0.77622  0.99401  0.81712  1.0000
  H   H2644     1.0  0.77476  0.90218  0.69871  1.0000
  S   S660      1.0  0.68642  0.52106  0.80379  1.0000
  C   C1667     1.0  0.78250  0.99531  0.91708  1.0000
  H   H2645     1.0  0.76961  0.85342  0.85019  1.0000
  C   C1668     1.0  0.75297  0.96082  0.73739  1.0000
  H   H2646     1.0  0.76303  0.85880  0.81738  1.0000
  H   H2647     1.0  0.71632  0.93989  0.98521  1.0000
  S   S661      1.0  0.74711  0.94092  0.84375  1.0000
  N   N165      1.0  0.76466  0.88395  0.82999  1.0000
  H   H2648     1.0  0.66681  0.61891  0.98416  1.0000
  H   H2649     1.0  0.77604  0.90318  0.81169  1.0000
  C   C1669     1.0  0.75351  0.88712  0.84231  1.0000
  C   C1670     1.0  0.66645  0.77316  0.92191  1.0000
  C   C1671     1.0  0.80860  0.93336  0.86511  1.0000
  S   S662      1.0  0.81832  0.80540  0.69240  1.0000
  H   H2650     1.0  0.65992  0.70619  0.98054  1.0000
  H   H2651     1.0  0.80098  0.86355  0.69725  1.0000
  H   H2652     1.0  0.76541  0.96111  0.93346  1.0000
  H   H2653     1.0  0.67887  0.65534  0.96723  1.0000
  C   C1672     1.0  0.76855  0.97529  0.92521  1.0000
  Fe  Fe329     1.0  0.65546  0.71172  0.92279  1.0000
  H   H2654     1.0  0.69613  0.62690  0.93973  1.0000
  H   H2655     1.0  0.78385  0.87459  0.74868  1.0000
  H   H2656     1.0  0.79170  0.53594  0.66446  1.0000
  Fe  Fe330     1.0  0.65974  0.66507  0.91837  1.0000
  C   C1673     1.0  0.79235  0.87015  0.69726  1.0000
  S   S663      1.0  0.65844  0.74512  0.91055  1.0000
  C   C1674     1.0  0.79298  0.99074  0.72432  1.0000
  H   H2657     1.0  0.76501  0.56524  0.66161  1.0000
  S   S664      1.0  0.73742  0.50082  0.70546  1.0000
  N   N166      1.0  0.69730  0.51065  0.72098  1.0000
  C   C1675     1.0  0.67106  0.62203  0.96722  1.0000
  H   H2658     1.0  0.69140  0.63989  0.97338  1.0000
  H   H2659     1.0  0.77453  0.53043  0.71914  1.0000
  H   H2660     1.0  0.68882  0.51005  0.75336  1.0000
  S   S665      1.0  0.75954  0.49803  0.73433  1.0000
  H   H2661     1.0  0.81582  0.92148  0.86936  1.0000
  H   H2662     1.0  0.76197  0.98399  0.81860  1.0000
  H   H2663     1.0  0.69888  0.51239  0.83986  1.0000
  H   H2664     1.0  0.72718  0.91755  0.98046  1.0000
  H   H2665     1.0  0.78016  0.96151  0.81310  1.0000
  H   H2666     1.0  0.81973  0.94963  0.79466  1.0000
  Fe  Fe331     1.0  0.75322  0.50677  0.70483  1.0000
  C   C1676     1.0  0.81749  0.96610  0.79647  1.0000
  H   H2667     1.0  0.79775  0.50790  0.66743  1.0000
  H   H2668     1.0  0.80934  0.92667  0.90587  1.0000
  C   C1677     1.0  0.82191  0.97240  0.81001  1.0000
  H   H2669     1.0  0.70638  0.49694  0.66421  1.0000
  C   C1678     1.0  0.66753  0.49686  0.75383  1.0000
  H   H2670     1.0  0.68564  0.49674  0.71588  1.0000
  C   C1679     1.0  0.90405  0.30487  0.04161  1.0000
  Fe  Fe332     1.0  0.85620  0.17411  0.12103  1.0000
  S   S666      1.0  0.84122  0.19337  0.11038  1.0000
  S   S667      1.0  0.85791  0.13829  0.13460  1.0000
  Fe  Fe333     1.0  0.86597  0.21409  0.11180  1.0000
  S   S668      1.0  0.85138  0.23578  0.10105  1.0000
  S   S669      1.0  0.87965  0.23135  0.10484  1.0000
  Fe  Fe334     1.0  0.84211  0.21592  0.12885  1.0000
  S   S670      1.0  0.82800  0.22742  0.15325  1.0000
  Fe  Fe335     1.0  0.85207  0.21087  0.08364  1.0000
  S   S671      1.0  0.85130  0.22090  0.04905  1.0000
  S   S672      1.0  0.85657  0.19596  0.14109  1.0000
  S   S673      1.0  0.86716  0.18992  0.09271  1.0000
  H   H2671     1.0  0.83291  0.14029  0.20988  1.0000
  H   H2672     1.0  0.90133  0.22660  0.01635  1.0000
  H   H2673     1.0  0.90357  0.28231  0.07148  1.0000
  Fe  Fe336     1.0  0.92231  0.32889  0.14598  1.0000
  C   C1680     1.0  0.90613  0.29670  0.06192  1.0000
  C   C1681     1.0  0.94004  0.27228  0.17199  1.0000
  S   S674      1.0  0.92519  0.30431  0.12602  1.0000
  H   H2674     1.0  0.85554  0.13956  0.09173  1.0000
  C   C1682     1.0  0.96634  0.48593  0.24561  1.0000
  H   H2675     1.0  0.94757  0.31126  0.01173  1.0000
  Fe  Fe337     1.0  0.90834  0.29992  0.14123  1.0000
  S   S675      1.0  0.90260  0.26839  0.15464  1.0000
  H   H2676     1.0  0.85438  0.32585  0.16538  1.0000
  H   H2677     1.0  0.85203  0.35586  0.02477  1.0000
  S   S676      1.0  0.96559  0.49184  0.31792  1.0000
  C   C1683     1.0  0.87699  0.37885  0.09007  1.0000
  H   H2678     1.0  0.89676  0.22060  0.06485  1.0000
  S   S677      1.0  0.83514  0.32595  0.05652  1.0000
  C   C1684     1.0  0.91173  0.30673  0.06979  1.0000
  H   H2679     1.0  0.93011  0.28651  0.20738  1.0000
  H   H2680     1.0  0.91348  0.29995  0.08533  1.0000
  H   H2681     1.0  0.91726  0.25293  0.18975  1.0000
  C   C1685     1.0  0.92412  0.25885  0.17804  1.0000
  C   C1686     1.0  0.92497  0.28127  0.20009  1.0000
  H   H2682     1.0  0.94029  0.23202  0.19475  1.0000
  H   H2683     1.0  0.85180  0.18751  0.99220  1.0000
  H   H2684     1.0  0.85851  0.29945  0.13285  1.0000
  C   C1687     1.0  0.82567  0.26402  0.00909  1.0000
  C   C1688     1.0  0.88478  0.24274  0.11999  1.0000
  C   C1689     1.0  0.88991  0.25984  0.10942  1.0000
  C   C1690     1.0  0.89516  0.26812  0.11994  1.0000
  C   C1691     1.0  0.89550  0.25915  0.14119  1.0000
  C   C1692     1.0  0.89012  0.24239  0.15199  1.0000
  C   C1693     1.0  0.88472  0.23431  0.14151  1.0000
  H   H2685     1.0  0.88992  0.26650  0.09284  1.0000
  H   H2686     1.0  0.89921  0.28104  0.11142  1.0000
  H   H2687     1.0  0.89028  0.23536  0.16847  1.0000
  H   H2688     1.0  0.88088  0.22102  0.14985  1.0000
  C   C1694     1.0  0.82959  0.25210  0.15501  1.0000
  C   C1695     1.0  0.82887  0.25617  0.17474  1.0000
  C   C1696     1.0  0.83105  0.27530  0.17589  1.0000
  C   C1697     1.0  0.83366  0.29050  0.15734  1.0000
  C   C1698     1.0  0.83409  0.28664  0.13770  1.0000
  C   C1699     1.0  0.83214  0.26736  0.13653  1.0000
  H   H2689     1.0  0.83340  0.17222  0.15515  1.0000
  H   H2690     1.0  0.93987  0.37884  0.00882  1.0000
  H   H2691     1.0  0.83605  0.29835  0.12332  1.0000
  H   H2692     1.0  0.83257  0.26437  0.12128  1.0000
  C   C1700     1.0  0.85127  0.20270  0.01711  1.0000
  C   C1701     1.0  0.84745  0.20325  0.03861  1.0000
  C   C1702     1.0  0.84048  0.19008  0.05132  1.0000
  C   C1703     1.0  0.84844  0.18848  0.00854  1.0000
  H   H2693     1.0  0.83730  0.19079  0.06779  1.0000
  C   C1704     1.0  0.82885  0.10781  0.15003  1.0000
  C   C1705     1.0  0.83745  0.09753  0.15986  1.0000
  C   C1706     1.0  0.84637  0.10695  0.15501  1.0000
  C   C1707     1.0  0.84662  0.12682  0.14069  1.0000
  C   C1708     1.0  0.83796  0.13703  0.13108  1.0000
  C   C1709     1.0  0.82921  0.12746  0.13551  1.0000
  H   H2694     1.0  0.83727  0.08228  0.17098  1.0000
  H   H2695     1.0  0.85307  0.09884  0.16244  1.0000
  H   H2696     1.0  0.83807  0.15207  0.11983  1.0000
  H   H2697     1.0  0.93091  0.36262  0.02648  1.0000
  C   C1710     1.0  0.83747  0.17621  0.04262  1.0000
  H   H2698     1.0  0.86911  0.34134  0.00171  1.0000
  C   C1711     1.0  0.86429  0.29578  0.14323  1.0000
  N   N167      1.0  0.88733  0.23177  0.04114  1.0000
  C   C1712     1.0  0.88044  0.24970  0.05090  1.0000
  C   C1713     1.0  0.89604  0.23956  0.02435  1.0000
  C   C1714     1.0  0.88088  0.22333  0.03191  1.0000
  H   H2699     1.0  0.87709  0.26323  0.03892  1.0000
  H   H2700     1.0  0.88499  0.25609  0.05854  1.0000
  H   H2701     1.0  0.87363  0.24448  0.06336  1.0000
  C   C1715     1.0  0.84809  0.10525  0.09246  1.0000
  H   H2702     1.0  0.88566  0.20834  0.07037  1.0000
  C   C1716     1.0  0.90773  0.32312  0.02898  1.0000
  H   H2703     1.0  0.90105  0.24616  0.03073  1.0000
  H   H2704     1.0  0.88588  0.21039  0.02358  1.0000
  H   H2705     1.0  0.87700  0.23612  0.02003  1.0000
  H   H2706     1.0  0.87442  0.21671  0.04425  1.0000
  H   H2707     1.0  0.87876  0.32385  0.15571  1.0000
  H   H2708     1.0  0.85344  0.13135  0.04080  1.0000
  H   H2709     1.0  0.83193  0.16633  0.05243  1.0000
  H   H2710     1.0  0.91833  0.27577  0.21281  1.0000
  H   H2711     1.0  0.96408  0.42128  0.32175  1.0000
  H   H2712     1.0  0.84908  0.08889  0.08987  1.0000
  H   H2713     1.0  0.85611  0.15128  0.06411  1.0000
  H   H2714     1.0  0.94095  0.24877  0.21114  1.0000
  H   H2715     1.0  0.87483  0.35890  0.04481  1.0000
  C   C1717     1.0  0.87289  0.34273  0.04923  1.0000
  N   N168      1.0  0.85376  0.11887  0.07383  1.0000
  H   H2716     1.0  0.92847  0.24631  0.16877  1.0000
  H   H2717     1.0  0.85666  0.21286  0.00716  1.0000
  H   H2718     1.0  0.88031  0.31076  0.11416  1.0000
  C   C1718     1.0  0.86530  0.10903  0.06975  1.0000
  H   H2719     1.0  0.88286  0.29724  0.15098  1.0000
  N   N169      1.0  0.93118  0.26436  0.18832  1.0000
  C   C1719     1.0  0.93558  0.24509  0.20314  1.0000
  H   H2720     1.0  0.87209  0.30310  0.17278  1.0000
  H   H2721     1.0  0.88107  0.33121  0.01199  1.0000
  H   H2722     1.0  0.83915  0.32554  0.01250  1.0000
  H   H2723     1.0  0.92064  0.27311  0.16686  1.0000
  C   C1720     1.0  0.84950  0.12084  0.05511  1.0000
  H   H2724     1.0  0.86683  0.09272  0.06657  1.0000
  H   H2725     1.0  0.82724  0.27443  0.99298  1.0000
  N   N170      1.0  0.94555  0.34489  0.01048  1.0000
  H   H2726     1.0  0.83935  0.11228  0.09609  1.0000
  H   H2727     1.0  0.93699  0.28651  0.16027  1.0000
  H   H2728     1.0  0.94505  0.25984  0.16303  1.0000
  H   H2729     1.0  0.92432  0.43925  0.29668  1.0000
  S   S678      1.0  0.89638  0.29242  0.03308  1.0000
  S   S679      1.0  0.83825  0.15638  0.01119  1.0000
  H   H2730     1.0  0.86010  0.28936  0.15958  1.0000
  H   H2731     1.0  0.84077  0.12800  0.05768  1.0000
  H   H2732     1.0  0.92909  0.23870  0.21565  1.0000
  C   C1721     1.0  0.84154  0.17514  0.02126  1.0000
  H   H2733     1.0  0.86876  0.10742  0.08357  1.0000
  C   C1722     1.0  0.86434  0.31893  0.04145  1.0000
  H   H2734     1.0  0.94532  0.27744  0.17903  1.0000
  H   H2735     1.0  0.86979  0.11894  0.05577  1.0000
  C   C1723     1.0  0.82593  0.34801  0.00067  1.0000
  H   H2736     1.0  0.92134  0.29583  0.18942  1.0000
  N   N171      1.0  0.86812  0.31506  0.14217  1.0000
  C   C1724     1.0  0.87578  0.30956  0.15606  1.0000
  C   C1725     1.0  0.89199  0.21458  0.05738  1.0000
  H   H2737     1.0  0.89280  0.25254  0.01191  1.0000
  H   H2738     1.0  0.90612  0.32962  0.01331  1.0000
  S   S680      1.0  0.93315  0.32835  0.16784  1.0000
  C   C1726     1.0  0.85898  0.33185  0.14928  1.0000
  H   H2739     1.0  0.85069  0.10498  0.05122  1.0000
  H   H2740     1.0  0.87176  0.30608  0.04110  1.0000
  C   C1727     1.0  0.85217  0.14039  0.07803  1.0000
  H   H2741     1.0  0.89728  0.20085  0.05054  1.0000
  H   H2742     1.0  0.84353  0.14809  0.08173  1.0000
  H   H2743     1.0  0.85112  0.10340  0.10688  1.0000
  N   N172      1.0  0.98071  0.40669  0.31240  1.0000
  H   H2744     1.0  0.87101  0.28268  0.13818  1.0000
  S   S681      1.0  0.83570  0.31494  0.15876  1.0000
  C   C1728     1.0  0.82682  0.15566  0.20859  1.0000
  S   S682      1.0  0.90085  0.32582  0.11729  1.0000
  H   H2745     1.0  0.94529  0.33948  0.04361  1.0000
  H   H2746     1.0  0.94362  0.32941  0.19966  1.0000
  H   H2747     1.0  0.95448  0.35550  0.02636  1.0000
  C   C1729     1.0  0.91527  0.32516  0.05743  1.0000
  S   S683      1.0  0.90609  0.32184  0.16311  1.0000
  C   C1730     1.0  0.93679  0.36420  0.01104  1.0000
  C   C1731     1.0  0.82815  0.34099  0.03676  1.0000
  H   H2748     1.0  0.88055  0.33055  0.04902  1.0000
  H   H2749     1.0  0.83766  0.17981  0.17454  1.0000
  H   H2750     1.0  0.82700  0.24427  0.18904  1.0000
  H   H2751     1.0  0.83069  0.27833  0.19110  1.0000
  H   H2752     1.0  0.87527  0.35947  0.00731  1.0000
  H   H2753     1.0  0.84322  0.26317  0.02211  1.0000
  C   C1732     1.0  0.91330  0.33331  0.03693  1.0000
  Fe  Fe338     1.0  0.91737  0.33180  0.10315  1.0000
  H   H2754     1.0  0.86167  0.34600  0.15001  1.0000
  C   C1733     1.0  0.94926  0.45534  0.30169  1.0000
  S   S684      1.0  0.83037  0.37910  0.07580  1.0000
  H   H2755     1.0  0.92123  0.41827  0.18782  1.0000
  H   H2756     1.0  0.85973  0.31676  0.03095  1.0000
  H   H2757     1.0  0.85334  0.33753  0.13842  1.0000
  C   C1734     1.0  0.86625  0.38422  0.13092  1.0000
  C   C1735     1.0  0.93974  0.45829  0.31700  1.0000
  C   C1736     1.0  0.87345  0.32315  0.12014  1.0000
  C   C1737     1.0  0.83465  0.16701  0.17163  1.0000
  S   S685      1.0  0.95816  0.43616  0.20447  1.0000
  C   C1738     1.0  0.94714  0.37998  0.15549  1.0000
  Fe  Fe339     1.0  0.95675  0.42155  0.23894  1.0000
  S   S686      1.0  0.94096  0.43030  0.26110  1.0000
  N   N173      1.0  0.92785  0.41108  0.21544  1.0000
  C   C1739     1.0  0.94448  0.34364  0.18734  1.0000
  C   C1740     1.0  0.94986  0.44590  0.28491  1.0000
  C   C1741     1.0  0.94082  0.44042  0.28283  1.0000
  C   C1742     1.0  0.92802  0.43362  0.21407  1.0000
  H   H2758     1.0  0.95619  0.45990  0.30308  1.0000
  H   H2759     1.0  0.95724  0.44296  0.27352  1.0000
  H   H2760     1.0  0.87662  0.33738  0.11894  1.0000
  C   C1743     1.0  0.92829  0.40814  0.19418  1.0000
  H   H2761     1.0  0.93573  0.32249  0.02889  1.0000
  H   H2762     1.0  0.92858  0.39112  0.19440  1.0000
  H   H2763     1.0  0.93554  0.41256  0.18263  1.0000
  C   C1744     1.0  0.93132  0.44357  0.29807  1.0000
  C   C1745     1.0  0.98254  0.42213  0.29193  1.0000
  C   C1746     1.0  0.93718  0.39675  0.22345  1.0000
  H   H2764     1.0  0.93742  0.37958  0.22453  1.0000
  H   H2765     1.0  0.96454  0.47278  0.25937  1.0000
  S   S687      1.0  0.85865  0.38413  0.07681  1.0000
  C   C1747     1.0  0.93084  0.45211  0.31528  1.0000
  H   H2766     1.0  0.85936  0.31634  0.05783  1.0000
  Fe  Fe340     1.0  0.83236  0.34341  0.08252  1.0000
  H   H2767     1.0  0.91759  0.38889  0.23140  1.0000
  S   S688      1.0  0.97242  0.42698  0.23978  1.0000
  C   C1748     1.0  0.95023  0.35788  0.18919  1.0000
  H   H2768     1.0  0.91071  0.41637  0.22460  1.0000
  S   S689      1.0  0.96309  0.38789  0.23406  1.0000
  H   H2769     1.0  0.91589  0.34768  0.02733  1.0000
  H   H2770     1.0  0.92105  0.44494  0.20825  1.0000
  S   S690      1.0  0.83307  0.37293  0.12463  1.0000
  Fe  Fe341     1.0  0.97911  0.39456  0.23202  1.0000
  S   S691      1.0  0.91576  0.35666  0.12168  1.0000
  S   S692      1.0  0.95891  0.39481  0.17434  1.0000
  H   H2771     1.0  0.92790  0.43632  0.22978  1.0000
  C   C1749     1.0  0.94126  0.36593  0.15380  1.0000
  C   C1750     1.0  0.83706  0.27845  0.02146  1.0000
  H   H2772     1.0  0.84112  0.15221  0.17231  1.0000
  H   H2773     1.0  0.86820  0.34076  0.06584  1.0000
  H   H2774     1.0  0.83157  0.24844  0.00912  1.0000
  C   C1751     1.0  0.95170  0.37611  0.17314  1.0000
  Fe  Fe342     1.0  0.97457  0.43895  0.20470  1.0000
  H   H2775     1.0  0.94611  0.49337  0.26855  1.0000
  S   S693      1.0  0.98230  0.40665  0.19651  1.0000
  H   H2776     1.0  0.95755  0.32696  0.02822  1.0000
  C   C1752     1.0  0.88279  0.37602  0.10551  1.0000
  H   H2777     1.0  0.85163  0.35528  0.05171  1.0000
  H   H2778     1.0  0.86208  0.38621  0.14674  1.0000
  Fe  Fe343     1.0  0.84376  0.37158  0.09258  1.0000
  S   S694      1.0  0.88441  0.37101  0.14640  1.0000
  H   H2779     1.0  0.83771  0.28641  0.03353  1.0000
  C   C1753     1.0  0.95099  0.34155  0.02791  1.0000
  H   H2780     1.0  0.93791  0.36917  0.14002  1.0000
  H   H2781     1.0  0.89143  0.37186  0.10156  1.0000
  H   H2782     1.0  0.93539  0.43805  0.20300  1.0000
  H   H2783     1.0  0.91743  0.40780  0.24628  1.0000
  H   H2784     1.0  0.94820  0.39397  0.14293  1.0000
  H   H2785     1.0  0.82260  0.13542  0.12777  1.0000
  C   C1754     1.0  0.87336  0.34325  0.01299  1.0000
  C   C1755     1.0  0.87740  0.37817  0.12609  1.0000
  Fe  Fe344     1.0  0.83428  0.33793  0.12783  1.0000
  H   H2786     1.0  0.85835  0.37353  0.03099  1.0000
  N   N174      1.0  0.86684  0.34050  0.03481  1.0000
  H   H2787     1.0  0.82990  0.16757  0.21284  1.0000
  H   H2788     1.0  0.95373  0.35448  0.20278  1.0000
  S   S695      1.0  0.84634  0.33596  0.09759  1.0000
  C   C1756     1.0  0.93997  0.34748  0.16962  1.0000
  H   H2789     1.0  0.82440  0.26750  0.05925  1.0000
  Fe  Fe345     1.0  0.96550  0.40262  0.19916  1.0000
  N   N175      1.0  0.82621  0.27448  0.02545  1.0000
  H   H2790     1.0  0.94476  0.40035  0.21276  1.0000
  S   S696      1.0  0.97875  0.47174  0.19188  1.0000
  C   C1757     1.0  0.83177  0.33698  0.01632  1.0000
  H   H2791     1.0  0.86785  0.32812  0.10926  1.0000
  H   H2792     1.0  0.88118  0.37676  0.07429  1.0000
  C   C1758     1.0  0.85679  0.35703  0.03553  1.0000
  H   H2793     1.0  0.93717  0.39862  0.23942  1.0000
  C   C1759     1.0  0.91794  0.40581  0.23009  1.0000
  H   H2794     1.0  0.85181  0.39051  0.11963  1.0000
  C   C1760     1.0  0.86044  0.38643  0.11567  1.0000
  C   C1761     1.0  0.86581  0.38345  0.09533  1.0000
  Fe  Fe346     1.0  0.89989  0.34808  0.13771  1.0000
  S   S697      1.0  0.92238  0.33761  0.06741  1.0000
  H   H2795     1.0  0.82676  0.13150  0.18231  1.0000
  H   H2796     1.0  0.97096  0.39199  0.30231  1.0000
  C   C1762     1.0  0.94113  0.32592  0.01308  1.0000
  H   H2797     1.0  0.97540  0.42729  0.28481  1.0000
  H   H2798     1.0  0.83916  0.28903  0.00563  1.0000
  H   H2799     1.0  0.95034  0.47050  0.24235  1.0000
  C   C1763     1.0  0.97819  0.38761  0.30914  1.0000
  Fe  Fe347     1.0  0.89785  0.29688  0.99813  1.0000
  H   H2800     1.0  0.82956  0.24446  0.04752  1.0000
  H   H2801     1.0  0.98449  0.43670  0.29376  1.0000
  N   N176      1.0  0.82468  0.16329  0.18706  1.0000
  H   H2802     1.0  0.93646  0.32832  0.00089  1.0000
  C   C1764     1.0  0.82383  0.26030  0.04656  1.0000
  H   H2803     1.0  0.97248  0.47868  0.23310  1.0000
  H   H2804     1.0  0.98484  0.37947  0.29795  1.0000
  H   H2805     1.0  0.95819  0.47838  0.21644  1.0000
  H   H2806     1.0  0.93239  0.36711  0.99834  1.0000
  C   C1765     1.0  0.95327  0.34787  0.98994  1.0000
  C   C1766     1.0  0.95233  0.48461  0.22984  1.0000
  H   H2807     1.0  0.94495  0.49351  0.22403  1.0000
  C   C1767     1.0  0.98300  0.43289  0.36491  1.0000
  H   H2808     1.0  0.97810  0.42199  0.36573  1.0000
  S   S698      1.0  0.93879  0.46889  0.33887  1.0000
  C   C1768     1.0  0.97858  0.45500  0.36283  1.0000
  H   H2809     1.0  0.90777  0.47648  0.39664  1.0000
  H   H2810     1.0  0.91591  0.47726  0.37035  1.0000
  H   H2811     1.0  0.92349  0.45419  0.32714  1.0000
  H   H2812     1.0  0.97026  0.46117  0.36205  1.0000
  C   C1769     1.0  0.98489  0.46901  0.36227  1.0000
  H   H2813     1.0  0.92346  0.47744  0.40898  1.0000
  Fe  Fe348     1.0  0.94824  0.49409  0.33287  1.0000
  H   H2814     1.0  0.97034  0.40593  0.34326  1.0000
  H   H2815     1.0  0.97675  0.37559  0.32426  1.0000
  H   H2816     1.0  0.97311  0.43181  0.32964  1.0000
  C   C1770     1.0  0.97166  0.41690  0.32739  1.0000
  C   C1771     1.0  0.91067  0.48744  0.38158  1.0000
  H   H2817     1.0  0.93153  0.47890  0.38259  1.0000
  C   C1772     1.0  0.92587  0.48868  0.39377  1.0000
  H   H2818     1.0  0.82300  0.18068  0.84709  1.0000
  Fe  Fe349     1.0  0.83316  0.18851  0.93681  1.0000
  S   S699      1.0  0.84787  0.17581  0.91450  1.0000
  S   S700      1.0  0.85691  0.14639  0.95562  1.0000
  Fe  Fe350     1.0  0.85687  0.18020  0.93637  1.0000
  S   S701      1.0  0.86969  0.20020  0.92287  1.0000
  Fe  Fe351     1.0  0.84616  0.14361  0.93573  1.0000
  S   S702      1.0  0.84769  0.11550  0.92027  1.0000
  S   S703      1.0  0.84210  0.19536  0.95694  1.0000
  S   S704      1.0  0.83096  0.15648  0.95727  1.0000
  H   H2819     1.0  0.84106  0.25591  0.90551  1.0000
  Fe  Fe352     1.0  0.89479  0.27195  0.96877  1.0000
  S   S705      1.0  0.88956  0.24013  0.97584  1.0000
  Fe  Fe353     1.0  0.91046  0.30292  0.95286  1.0000
  H   H2820     1.0  0.83786  0.28777  0.94508  1.0000
  C   C1773     1.0  0.87493  0.21150  0.93794  1.0000
  C   C1774     1.0  0.87356  0.20463  0.95993  1.0000
  C   C1775     1.0  0.87796  0.21381  0.97127  1.0000
  C   C1776     1.0  0.88357  0.23029  0.96088  1.0000
  C   C1777     1.0  0.88470  0.23754  0.93895  1.0000
  C   C1778     1.0  0.88054  0.22797  0.92754  1.0000
  H   H2821     1.0  0.86936  0.19187  0.96814  1.0000
  H   H2822     1.0  0.88910  0.25001  0.93069  1.0000
  H   H2823     1.0  0.88174  0.23329  0.91052  1.0000
  C   C1779     1.0  0.83810  0.10688  0.91219  1.0000
  C   C1780     1.0  0.83472  0.15788  0.87577  1.0000
  H   H2824     1.0  0.94952  0.34934  0.97661  1.0000
  C   C1781     1.0  0.83438  0.08480  0.89205  1.0000
  C   C1782     1.0  0.84164  0.09130  0.89968  1.0000
  C   C1783     1.0  0.98847  0.45925  0.91377  1.0000
  H   H2825     1.0  0.83732  0.07308  0.88219  1.0000
  H   H2826     1.0  0.85010  0.08443  0.89557  1.0000
  H   H2827     1.0  0.85326  0.27874  0.90515  1.0000
  S   S706      1.0  0.90011  0.32619  0.97276  1.0000
  S   S707      1.0  0.88344  0.29375  0.98933  1.0000
  Fe  Fe354     1.0  0.88683  0.32064  0.96199  1.0000
  S   S708      1.0  0.89714  0.29903  0.94030  1.0000
  N   N177      1.0  0.84527  0.25926  0.93291  1.0000
  C   C1784     1.0  0.84745  0.24580  0.95339  1.0000
  C   C1785     1.0  0.84277  0.24622  0.92102  1.0000
  H   H2828     1.0  0.82883  0.27132  0.94663  1.0000
  H   H2829     1.0  0.85404  0.23161  0.95103  1.0000
  H   H2830     1.0  0.84986  0.25487  0.96232  1.0000
  H   H2831     1.0  0.84030  0.23966  0.96352  1.0000
  H   H2832     1.0  0.84954  0.23246  0.91783  1.0000
  H   H2833     1.0  0.83563  0.23950  0.92996  1.0000
  C   C1786     1.0  0.85420  0.35146  0.94637  1.0000
  H   H2834     1.0  0.98522  0.44781  0.79000  1.0000
  H   H2835     1.0  0.82427  0.16957  0.91206  1.0000
  C   C1787     1.0  0.82711  0.11540  0.91745  1.0000
  H   H2836     1.0  0.83435  0.19531  0.88448  1.0000
  H   H2837     1.0  0.98077  0.45501  0.92045  1.0000
  H   H2838     1.0  0.85706  0.27745  0.92907  1.0000
  H   H2839     1.0  0.86594  0.31137  0.90903  1.0000
  S   S709      1.0  0.92551  0.31147  0.92980  1.0000
  H   H2840     1.0  0.83403  0.28737  0.92170  1.0000
  H   H2841     1.0  0.86177  0.25476  0.91667  1.0000
  C   C1788     1.0  0.85477  0.26789  0.92041  1.0000
  C   C1789     1.0  0.83608  0.27719  0.93680  1.0000
  H   H2842     1.0  0.91061  0.39210  0.91662  1.0000
  H   H2843     1.0  0.87774  0.32021  0.92658  1.0000
  S   S710      1.0  0.84339  0.32502  0.91102  1.0000
  C   C1790     1.0  0.86264  0.32244  0.91956  1.0000
  C   C1791     1.0  0.86932  0.32739  0.92956  1.0000
  H   H2844     1.0  0.98231  0.47106  0.82793  1.0000
  H   H2845     1.0  0.96180  0.45710  0.79838  1.0000
  C   C1792     1.0  0.90326  0.38387  0.88690  1.0000
  C   C1793     1.0  0.84747  0.34611  0.93677  1.0000
  H   H2846     1.0  0.85091  0.36275  0.95668  1.0000
  H   H2847     1.0  0.90201  0.40136  0.88601  1.0000
  C   C1794     1.0  0.90464  0.34838  0.90925  1.0000
  C   C1795     1.0  0.86512  0.34200  0.94287  1.0000
  H   H2848     1.0  0.94251  0.33105  0.90199  1.0000
  Fe  Fe355     1.0  0.96005  0.39697  0.91181  1.0000
  S   S711      1.0  0.96334  0.42764  0.91482  1.0000
  S   S712      1.0  0.94807  0.38101  0.93861  1.0000
  S   S713      1.0  0.97944  0.42800  0.86819  1.0000
  Fe  Fe356     1.0  0.96207  0.43906  0.88089  1.0000
  S   S714      1.0  0.95571  0.47375  0.86809  1.0000
  S   S715      1.0  0.95758  0.40970  0.87842  1.0000
  H   H2849     1.0  0.89197  0.36941  0.93915  1.0000
  H   H2850     1.0  0.91249  0.34237  0.89917  1.0000
  H   H2851     1.0  0.82487  0.05482  0.93054  1.0000
  C   C1796     1.0  0.96192  0.46860  0.80701  1.0000
  C   C1797     1.0  0.95935  0.46378  0.82928  1.0000
  C   C1798     1.0  0.95911  0.47898  0.84043  1.0000
  H   H2852     1.0  0.92232  0.33407  0.96349  1.0000
  H   H2853     1.0  0.95730  0.44855  0.83779  1.0000
  H   H2854     1.0  0.95635  0.36272  0.98675  1.0000
  H   H2855     1.0  0.90466  0.33861  0.92553  1.0000
  Fe  Fe357     1.0  0.98059  0.41431  0.90181  1.0000
  Fe  Fe358     1.0  0.82632  0.33478  0.92729  1.0000
  C   C1799     1.0  0.94493  0.35338  0.91744  1.0000
  C   C1800     1.0  0.94176  0.36203  0.93553  1.0000
  C   C1801     1.0  0.93350  0.35508  0.95199  1.0000
  H   H2856     1.0  0.89694  0.38151  0.88037  1.0000
  H   H2857     1.0  0.93089  0.36185  0.96590  1.0000
  Fe  Fe359     1.0  0.97533  0.39743  0.86902  1.0000
  H   H2858     1.0  0.91134  0.36586  0.93360  1.0000
  C   C1802     1.0  0.82344  0.09399  0.89662  1.0000
  H   H2859     1.0  0.83903  0.35338  0.93963  1.0000
  H   H2860     1.0  0.97754  0.42474  0.82356  1.0000
  S   S716      1.0  0.87348  0.34862  0.95505  1.0000
  H   H2861     1.0  0.87710  0.20793  0.98819  1.0000
  H   H2862     1.0  0.95130  0.35851  0.90467  1.0000
  N   N178      1.0  0.90295  0.37143  0.90887  1.0000
  H   H2863     1.0  0.91956  0.36915  0.90744  1.0000
  H   H2864     1.0  0.89825  0.34496  0.90375  1.0000
  C   C1803     1.0  0.89243  0.37847  0.92243  1.0000
  C   C1804     1.0  0.93996  0.33775  0.91599  1.0000
  H   H2865     1.0  0.88580  0.37567  0.91712  1.0000
  C   C1805     1.0  0.91147  0.37485  0.91695  1.0000
  C   C1806     1.0  0.92857  0.33942  0.95059  1.0000
  Fe  Fe360     1.0  0.84164  0.16188  0.97540  1.0000
  H   H2866     1.0  0.98324  0.49035  0.92169  1.0000
  S   S717      1.0  0.90923  0.27358  0.97928  1.0000
  H   H2867     1.0  0.89079  0.39583  0.92246  1.0000
  C   C1807     1.0  0.85170  0.33172  0.92323  1.0000
  H   H2868     1.0  0.96024  0.33407  0.98926  1.0000
  S   S718      1.0  0.97758  0.38244  0.90214  1.0000
  C   C1808     1.0  0.93176  0.33068  0.93254  1.0000
  H   H2869     1.0  0.91112  0.37885  0.87632  1.0000
  N   N179      1.0  0.82542  0.17596  0.87848  1.0000
  C   C1809     1.0  0.96461  0.48827  0.79602  1.0000
  H   H2870     1.0  0.83387  0.19969  0.85721  1.0000
  H   H2871     1.0  0.83218  0.14259  0.87814  1.0000
  H   H2872     1.0  0.82677  0.02666  0.93158  1.0000
  C   C1810     1.0  0.98506  0.41841  0.81380  1.0000
  H   H2873     1.0  0.83978  0.15520  0.88737  1.0000
  S   S719      1.0  0.96706  0.49552  0.76824  1.0000
  H   H2874     1.0  0.82422  0.12688  0.92757  1.0000
  H   H2875     1.0  0.83992  0.16071  0.85966  1.0000
  H   H2876     1.0  0.82237  0.21006  0.87598  1.0000
  S   S720      1.0  0.98497  0.38016  0.84318  1.0000
  H   H2877     1.0  0.98463  0.48347  0.71230  1.0000
  S   S721      1.0  0.82532  0.00168  0.82841  1.0000
  C   C1811     1.0  0.82918  0.19613  0.87373  1.0000
  H   H2878     1.0  0.82893  0.34528  0.98480  1.0000
  H   H2879     1.0  0.97366  0.49217  0.88685  1.0000
  S   S722      1.0  0.96792  0.53239  0.26575  1.0000
  C   C1812     1.0  0.83147  0.84938  0.26246  1.0000
  C   C1813     1.0  0.95940  0.51665  0.22050  1.0000
  H   H2880     1.0  0.83804  0.81878  0.30862  1.0000
  Fe  Fe361     1.0  0.96055  0.52578  0.30067  1.0000
  H   H2881     1.0  0.83504  0.84732  0.30057  1.0000
  H   H2882     1.0  0.82631  0.84911  0.25206  1.0000
  H   H2883     1.0  0.96560  0.51089  0.20714  1.0000
  C   C1814     1.0  0.97922  0.54388  0.25721  1.0000
  H   H2884     1.0  0.97453  0.56251  0.28121  1.0000
  S   S723      1.0  0.94302  0.52671  0.31343  1.0000
  C   C1815     1.0  0.98057  0.55816  0.26770  1.0000
  H   H2885     1.0  0.82832  0.86491  0.26766  1.0000
  H   H2886     1.0  0.83968  0.84957  0.25266  1.0000
  H   H2887     1.0  0.96267  0.52741  0.22604  1.0000
  H   H2888     1.0  0.83077  0.80917  0.26284  1.0000
  C   C1816     1.0  0.98701  0.53857  0.23954  1.0000
  C   C1817     1.0  0.83807  0.83228  0.29444  1.0000
  S   S724      1.0  0.82445  0.99077  0.21464  1.0000
  N   N180      1.0  0.95662  0.49846  0.23782  1.0000
  H   H2889     1.0  0.84402  0.80980  0.26382  1.0000
  H   H2890     1.0  0.82688  0.94657  0.23682  1.0000
  H   H2891     1.0  0.95136  0.51710  0.26182  1.0000
  H   H2892     1.0  0.95232  0.52651  0.21406  1.0000
  H   H2893     1.0  0.84651  0.83198  0.28580  1.0000
  H   H2894     1.0  0.98573  0.50960  0.19045  1.0000
  H   H2895     1.0  0.98767  0.52135  0.29572  1.0000
  H   H2896     1.0  0.98599  0.52761  0.23128  1.0000
  N   N181      1.0  0.83140  0.83092  0.28076  1.0000
  C   C1818     1.0  0.83566  0.81069  0.27316  1.0000
  C   C1819     1.0  0.94843  0.50669  0.25526  1.0000
  C   C1820     1.0  0.82346  0.95651  0.24836  1.0000
  H   H2897     1.0  0.83566  0.79648  0.28663  1.0000
  H   H2898     1.0  0.94105  0.51642  0.24984  1.0000
  H   H2899     1.0  0.98736  0.49668  0.31505  1.0000
  H   H2900     1.0  0.97010  0.49617  0.25064  1.0000
  C   C1821     1.0  0.86997  0.69345  0.44541  1.0000
  H   H2901     1.0  0.93047  0.63178  0.65595  1.0000
  H   H2902     1.0  0.85475  0.56660  0.58618  1.0000
  H   H2903     1.0  0.90224  0.52506  0.39404  1.0000
  H   H2904     1.0  0.87694  0.64573  0.60827  1.0000
  H   H2905     1.0  0.84159  0.62481  0.48187  1.0000
  H   H2906     1.0  0.85062  0.53264  0.56721  1.0000
  S   S725      1.0  0.82818  0.61845  0.42427  1.0000
  C   C1822     1.0  0.83986  0.74538  0.55880  1.0000
  C   C1823     1.0  0.92012  0.51599  0.36463  1.0000
  C   C1824     1.0  0.92790  0.67520  0.64632  1.0000
  H   H2907     1.0  0.82684  0.77949  0.52149  1.0000
  N   N182      1.0  0.92107  0.62226  0.42143  1.0000
  H   H2908     1.0  0.90657  0.50478  0.41575  1.0000
  S   S726      1.0  0.93141  0.56522  0.35202  1.0000
  H   H2909     1.0  0.91653  0.63416  0.45006  1.0000
  H   H2910     1.0  0.90394  0.63196  0.43028  1.0000
  Fe  Fe362     1.0  0.89885  0.57857  0.46605  1.0000
  S   S727      1.0  0.88767  0.56392  0.49449  1.0000
  S   S728      1.0  0.91399  0.55767  0.45095  1.0000
  Fe  Fe363     1.0  0.88611  0.62329  0.46803  1.0000
  S   S729      1.0  0.87366  0.61287  0.49623  1.0000
  Fe  Fe364     1.0  0.88746  0.59064  0.50906  1.0000
  S   S730      1.0  0.88590  0.58340  0.54435  1.0000
  Fe  Fe365     1.0  0.87460  0.58701  0.47991  1.0000
  S   S731      1.0  0.85985  0.57429  0.48593  1.0000
  S   S732      1.0  0.89998  0.60323  0.48222  1.0000
  S   S733      1.0  0.88573  0.59963  0.44998  1.0000
  S   S734      1.0  0.91173  0.64032  0.63427  1.0000
  H   H2911     1.0  0.86233  0.71863  0.52246  1.0000
  Fe  Fe366     1.0  0.89940  0.63499  0.62032  1.0000
  C   C1825     1.0  0.92264  0.62165  0.44252  1.0000
  H   H2912     1.0  0.87468  0.71516  0.48805  1.0000
  C   C1826     1.0  0.88971  0.60054  0.55541  1.0000
  C   C1827     1.0  0.89291  0.61930  0.54296  1.0000
  C   C1828     1.0  0.89598  0.63258  0.55228  1.0000
  C   C1829     1.0  0.89590  0.62708  0.57401  1.0000
  C   C1830     1.0  0.89255  0.60848  0.58645  1.0000
  C   C1831     1.0  0.88940  0.59531  0.57719  1.0000
  H   H2913     1.0  0.89320  0.62337  0.52614  1.0000
  H   H2914     1.0  0.86040  0.68522  0.48747  1.0000
  H   H2915     1.0  0.89249  0.60406  0.60317  1.0000
  H   H2916     1.0  0.88691  0.58082  0.58689  1.0000
  H   H2917     1.0  0.89861  0.64693  0.54260  1.0000
  C   C1832     1.0  0.92912  0.60494  0.41239  1.0000
  C   C1833     1.0  0.92634  0.56214  0.37957  1.0000
  C   C1834     1.0  0.93226  0.54805  0.39395  1.0000
  C   C1835     1.0  0.92821  0.54640  0.41582  1.0000
  C   C1836     1.0  0.91817  0.55864  0.42349  1.0000
  C   C1837     1.0  0.91207  0.57217  0.40913  1.0000
  C   C1838     1.0  0.91620  0.57408  0.38722  1.0000
  H   H2918     1.0  0.94012  0.53892  0.38825  1.0000
  H   H2919     1.0  0.93299  0.53593  0.42684  1.0000
  H   H2920     1.0  0.90423  0.58134  0.41486  1.0000
  H   H2921     1.0  0.91153  0.58483  0.37615  1.0000
  H   H2922     1.0  0.85002  0.59129  0.55370  1.0000
  H   H2923     1.0  0.92784  0.60404  0.39700  1.0000
  C   C1839     1.0  0.83709  0.60596  0.44111  1.0000
  C   C1840     1.0  0.83458  0.58967  0.45861  1.0000
  C   C1841     1.0  0.84180  0.57964  0.47189  1.0000
  C   C1842     1.0  0.85140  0.58624  0.46808  1.0000
  C   C1843     1.0  0.85388  0.60273  0.45068  1.0000
  C   C1844     1.0  0.84674  0.61251  0.43713  1.0000
  H   H2924     1.0  0.82717  0.58448  0.46167  1.0000
  H   H2925     1.0  0.83997  0.56660  0.48507  1.0000
  H   H2926     1.0  0.86129  0.60790  0.44767  1.0000
  H   H2927     1.0  0.84870  0.62513  0.42357  1.0000
  H   H2928     1.0  0.92182  0.66996  0.64158  1.0000
  S   S735      1.0  0.82722  0.79575  0.58821  1.0000
  S   S736      1.0  0.83710  0.61562  0.58769  1.0000
  H   H2929     1.0  0.93739  0.60725  0.40968  1.0000
  H   H2930     1.0  0.93068  0.62427  0.44152  1.0000
  C   C1845     1.0  0.87363  0.73124  0.64701  1.0000
  H   H2931     1.0  0.86448  0.68037  0.59735  1.0000
  H   H2932     1.0  0.86865  0.56378  0.57364  1.0000
  H   H2933     1.0  0.86964  0.52901  0.55033  1.0000
  H   H2934     1.0  0.85407  0.67378  0.61991  1.0000
  C   C1846     1.0  0.92223  0.64329  0.40729  1.0000
  H   H2935     1.0  0.84220  0.63180  0.50537  1.0000
  C   C1847     1.0  0.83005  0.67849  0.40135  1.0000
  S   S737      1.0  0.89978  0.64404  0.58520  1.0000
  Fe  Fe367     1.0  0.85059  0.77331  0.64254  1.0000
  H   H2936     1.0  0.86672  0.64034  0.63166  1.0000
  S   S738      1.0  0.88574  0.65832  0.45485  1.0000
  C   C1848     1.0  0.83173  0.69928  0.64526  1.0000
  H   H2937     1.0  0.91329  0.52681  0.35794  1.0000
  H   H2938     1.0  0.84673  0.55187  0.54444  1.0000
  H   H2939     1.0  0.82391  0.63287  0.47214  1.0000
  H   H2940     1.0  0.84488  0.72953  0.56193  1.0000
  H   H2941     1.0  0.86652  0.73187  0.64186  1.0000
  H   H2942     1.0  0.91618  0.65664  0.41362  1.0000
  H   H2943     1.0  0.92521  0.50665  0.35263  1.0000
  C   C1849     1.0  0.83685  0.62799  0.49751  1.0000
  Fe  Fe368     1.0  0.94483  0.53901  0.34001  1.0000
  S   S739      1.0  0.89790  0.60349  0.64303  1.0000
  C   C1850     1.0  0.86453  0.70087  0.52808  1.0000
  C   C1851     1.0  0.86792  0.54630  0.54248  1.0000
  H   H2944     1.0  0.85464  0.58314  0.52888  1.0000
  H   H2945     1.0  0.84234  0.55846  0.57002  1.0000
  C   C1852     1.0  0.91023  0.61913  0.42360  1.0000
  C   C1853     1.0  0.84923  0.54998  0.55948  1.0000
  H   H2946     1.0  0.90876  0.61918  0.40809  1.0000
  Fe  Fe369     1.0  0.83501  0.74416  0.65427  1.0000
  C   C1854     1.0  0.85677  0.58143  0.54424  1.0000
  C   C1855     1.0  0.86975  0.63860  0.61494  1.0000
  N   N183      1.0  0.85884  0.55873  0.55556  1.0000
  H   H2947     1.0  0.86391  0.58843  0.54084  1.0000
  Fe  Fe370     1.0  0.83490  0.59292  0.61915  1.0000
  H   H2948     1.0  0.92876  0.58896  0.42322  1.0000
  H   H2949     1.0  0.85157  0.68012  0.59385  1.0000
  C   C1856     1.0  0.82802  0.68276  0.61421  1.0000
  H   H2950     1.0  0.87521  0.70297  0.44620  1.0000
  H   H2951     1.0  0.86629  0.54750  0.52676  1.0000
  H   H2952     1.0  0.86302  0.54041  0.58505  1.0000
  H   H2953     1.0  0.93468  0.67687  0.63241  1.0000
  C   C1857     1.0  0.86143  0.55729  0.57598  1.0000
  H   H2954     1.0  0.82719  0.65633  0.52267  1.0000
  H   H2955     1.0  0.90907  0.60353  0.43437  1.0000
  H   H2956     1.0  0.92407  0.69142  0.64974  1.0000
  H   H2957     1.0  0.87959  0.68933  0.48127  1.0000
  H   H2958     1.0  0.87145  0.57014  0.63331  1.0000
  C   C1858     1.0  0.87012  0.59113  0.65380  1.0000
  S   S740      1.0  0.85022  0.57383  0.62881  1.0000
  H   H2959     1.0  0.91360  0.52600  0.40283  1.0000
  H   H2960     1.0  0.93029  0.64634  0.40538  1.0000
  C   C1859     1.0  0.88507  0.74937  0.65492  1.0000
  H   H2961     1.0  0.83463  0.61267  0.50697  1.0000
  S   S741      1.0  0.94886  0.50626  0.36040  1.0000
  C   C1860     1.0  0.85776  0.67181  0.60335  1.0000
  H   H2962     1.0  0.87534  0.55229  0.53956  1.0000
  H   H2963     1.0  0.82861  0.57833  0.51470  1.0000
  S   S742      1.0  0.96197  0.54121  0.32525  1.0000
  C   C1861     1.0  0.87684  0.69761  0.49474  1.0000
  S   S743      1.0  0.82843  0.59452  0.54982  1.0000
  H   H2964     1.0  0.82765  0.65355  0.63804  1.0000
  H   H2965     1.0  0.92197  0.60579  0.45342  1.0000
  C   C1862     1.0  0.83115  0.71219  0.62516  1.0000
  H   H2966     1.0  0.85740  0.69606  0.53976  1.0000
  S   S744      1.0  0.86712  0.77520  0.64271  1.0000
  H   H2967     1.0  0.88379  0.69463  0.50208  1.0000
  H   H2968     1.0  0.85651  0.71189  0.49234  1.0000
  H   H2969     1.0  0.92113  0.64413  0.39123  1.0000
  S   S745      1.0  0.82802  0.71445  0.49068  1.0000
  H   H2970     1.0  0.84886  0.63900  0.62794  1.0000
  H   H2971     1.0  0.83133  0.68509  0.38399  1.0000
  H   H2972     1.0  0.83667  0.66963  0.48519  1.0000
  N   N184      1.0  0.91650  0.50176  0.38504  1.0000
  N   N185      1.0  0.86148  0.64887  0.60238  1.0000
  S   S746      1.0  0.88582  0.65472  0.63953  1.0000
  C   C1863     1.0  0.85237  0.63812  0.61109  1.0000
  H   H2973     1.0  0.85997  0.65422  0.57032  1.0000
  C   C1864     1.0  0.86604  0.64685  0.58018  1.0000
  Fe  Fe371     1.0  0.83195  0.72822  0.45608  1.0000
  C   C1865     1.0  0.85860  0.69454  0.49993  1.0000
  S   S747      1.0  0.84008  0.70365  0.43628  1.0000
  S   S748      1.0  0.83654  0.75663  0.46053  1.0000
  C   C1866     1.0  0.86604  0.58102  0.64292  1.0000
  H   H2974     1.0  0.85483  0.62084  0.61034  1.0000
  S   S749      1.0  0.82216  0.61675  0.63528  1.0000
  C   C1867     1.0  0.83061  0.67801  0.64972  1.0000
  H   H2975     1.0  0.82373  0.67832  0.47857  1.0000
  H   H2976     1.0  0.82903  0.71400  0.59410  1.0000
  Fe  Fe372     1.0  0.83274  0.78331  0.61923  1.0000
  C   C1868     1.0  0.85503  0.58529  0.64405  1.0000
  S   S750      1.0  0.83818  0.80327  0.63500  1.0000
  H   H2977     1.0  0.87361  0.65778  0.50482  1.0000
  C   C1869     1.0  0.85297  0.69135  0.44039  1.0000
  C   C1870     1.0  0.85655  0.66913  0.44229  1.0000
  C   C1871     1.0  0.86662  0.65895  0.44677  1.0000
  C   C1872     1.0  0.85965  0.70351  0.44207  1.0000
  H   H2978     1.0  0.85151  0.65969  0.44056  1.0000
  H   H2979     1.0  0.85696  0.72073  0.44032  1.0000
  C   C1873     1.0  0.82965  0.77343  0.53610  1.0000
  C   C1874     1.0  0.83065  0.77890  0.56993  1.0000
  H   H2980     1.0  0.83293  0.66073  0.40384  1.0000
  S   S751      1.0  0.83996  0.73628  0.52149  1.0000
  C   C1875     1.0  0.88085  0.71151  0.65155  1.0000
  H   H2981     1.0  0.87862  0.58779  0.65274  1.0000
  H   H2982     1.0  0.87760  0.66225  0.52633  1.0000
  H   H2983     1.0  0.85756  0.84179  0.65496  1.0000
  H   H2984     1.0  0.84589  0.64567  0.60224  1.0000
  C   C1876     1.0  0.87087  0.66640  0.51811  1.0000
  N   N186      1.0  0.86770  0.68984  0.51024  1.0000
  H   H2985     1.0  0.86897  0.62965  0.57909  1.0000
  Fe  Fe373     1.0  0.83087  0.74423  0.49549  1.0000
  C   C1877     1.0  0.82868  0.66983  0.63428  1.0000
  H   H2986     1.0  0.86922  0.64172  0.44876  1.0000
  C   C1878     1.0  0.83619  0.75294  0.53991  1.0000
  H   H2987     1.0  0.92495  0.52630  0.36649  1.0000
  H   H2988     1.0  0.87926  0.69701  0.64995  1.0000
  C   C1879     1.0  0.82941  0.70389  0.60962  1.0000
  H   H2989     1.0  0.87111  0.69741  0.53653  1.0000
  H   H2990     1.0  0.85128  0.69056  0.51152  1.0000
  C   C1880     1.0  0.87335  0.67110  0.44827  1.0000
  H   H2991     1.0  0.87300  0.65468  0.57318  1.0000
  H   H2992     1.0  0.83995  0.75226  0.58822  1.0000
  H   H2993     1.0  0.87245  0.62113  0.61514  1.0000
  S   S752      1.0  0.84628  0.75486  0.62403  1.0000
  H   H2994     1.0  0.90362  0.49679  0.37478  1.0000
  H   H2995     1.0  0.86409  0.65983  0.52933  1.0000
  C   C1881     1.0  0.83706  0.75826  0.57379  1.0000
  N   N187      1.0  0.82731  0.64548  0.49524  1.0000
  H   H2996     1.0  0.83192  0.72867  0.62164  1.0000
  S   S753      1.0  0.82562  0.67296  0.59448  1.0000
  Fe  Fe374     1.0  0.89786  0.65730  0.65553  1.0000
  S   S754      1.0  0.82350  0.57810  0.61167  1.0000
  C   C1882     1.0  0.82691  0.78637  0.55106  1.0000
  H   H2997     1.0  0.83527  0.68465  0.40761  1.0000
  C   C1883     1.0  0.83066  0.66449  0.48015  1.0000
  Fe  Fe375     1.0  0.82358  0.63865  0.60312  1.0000
  Fe  Fe376     1.0  0.96577  0.50725  0.34353  1.0000
  H   H2998     1.0  0.83439  0.66107  0.46414  1.0000
  C   C1884     1.0  0.87580  0.75020  0.64855  1.0000
  Fe  Fe377     1.0  0.82456  0.60310  0.58149  1.0000
  H   H2999     1.0  0.94317  0.63930  0.64589  1.0000
  C   C1885     1.0  0.90940  0.51494  0.40008  1.0000
  H   H3000     1.0  0.82460  0.79352  0.37389  1.0000
  H   H3001     1.0  0.85690  0.81697  0.65004  1.0000
  H   H3002     1.0  0.82354  0.71444  0.56149  1.0000
  S   S755      1.0  0.97970  0.49672  0.35910  1.0000
  H   H3003     1.0  0.93035  0.49899  0.39692  1.0000
  H   H3004     1.0  0.88681  0.76397  0.65604  1.0000
  Fe  Fe378     1.0  0.82781  0.78897  0.66509  1.0000
  Fe  Fe379     1.0  0.98484  0.55841  0.73428  1.0000
  C   C1886     1.0  0.96524  0.52319  0.90945  1.0000
  H   H3005     1.0  0.87137  0.82201  0.67590  1.0000
  C   C1887     1.0  0.92209  0.65818  0.68283  1.0000
  S   S756      1.0  0.83394  0.70939  0.66491  1.0000
  H   H3006     1.0  0.92879  0.56152  0.74611  1.0000
  C   C1888     1.0  0.85366  0.82781  0.66143  1.0000
  S   S757      1.0  0.97500  0.58584  0.74956  1.0000
  Fe  Fe380     1.0  0.96984  0.52894  0.75911  1.0000
  S   S758      1.0  0.95880  0.55400  0.77597  1.0000
  Fe  Fe381     1.0  0.96101  0.57640  0.74424  1.0000
  S   S759      1.0  0.94572  0.59855  0.73600  1.0000
  Fe  Fe382     1.0  0.97383  0.56030  0.77965  1.0000
  C   C1889     1.0  0.86320  0.60537  0.66607  1.0000
  H   H3007     1.0  0.96201  0.51008  0.83784  1.0000
  C   C1890     1.0  0.86855  0.66754  0.69154  1.0000
  H   H3008     1.0  0.93169  0.51753  0.79380  1.0000
  H   H3009     1.0  0.92470  0.61559  0.72796  1.0000
  N   N188      1.0  0.96453  0.52430  0.88762  1.0000
  C   C1891     1.0  0.93954  0.59416  0.71791  1.0000
  C   C1892     1.0  0.92897  0.60510  0.71714  1.0000
  C   C1893     1.0  0.92392  0.60267  0.70238  1.0000
  C   C1894     1.0  0.92939  0.58914  0.68834  1.0000
  C   C1895     1.0  0.93984  0.57770  0.68955  1.0000
  C   C1896     1.0  0.94493  0.58027  0.70420  1.0000
  C   C1897     1.0  0.85483  0.67745  0.72123  1.0000
  H   H3010     1.0  0.95308  0.57185  0.70453  1.0000
  N   N189      1.0  0.85729  0.67831  0.69826  1.0000
  H   H3011     1.0  0.85458  0.84598  0.69155  1.0000
  C   C1898     1.0  0.93935  0.66760  0.67093  1.0000
  H   H3012     1.0  0.96769  0.51726  0.79926  1.0000
  H   H3013     1.0  0.87064  0.79739  0.67068  1.0000
  H   H3014     1.0  0.94218  0.65632  0.68493  1.0000
  N   N190      1.0  0.93142  0.65987  0.66495  1.0000
  H   H3015     1.0  0.98379  0.50040  0.72971  1.0000
  C   C1899     1.0  0.93876  0.51704  0.78035  1.0000
  H   H3016     1.0  0.95857  0.53483  0.91705  1.0000
  H   H3017     1.0  0.91580  0.61126  0.70184  1.0000
  H   H3018     1.0  0.85141  0.65003  0.70183  1.0000
  H   H3019     1.0  0.85177  0.66782  0.67637  1.0000
  C   C1900     1.0  0.85021  0.66728  0.69363  1.0000
  S   S760      1.0  0.92356  0.58643  0.66886  1.0000
  S   S761      1.0  0.86820  0.61940  0.67858  1.0000
  H   H3020     1.0  0.96491  0.50688  0.91955  1.0000
  H   H3021     1.0  0.93710  0.55963  0.76371  1.0000
  H   H3022     1.0  0.93588  0.68359  0.67510  1.0000
  C   C1901     1.0  0.85216  0.60920  0.66768  1.0000
  S   S762      1.0  0.97103  0.55065  0.72695  1.0000
  N   N191      1.0  0.93583  0.52922  0.76003  1.0000
  H   H3023     1.0  0.93114  0.50286  0.75486  1.0000
  C   C1902     1.0  0.94547  0.52785  0.74275  1.0000
  H   H3024     1.0  0.92405  0.55369  0.77422  1.0000
  H   H3025     1.0  0.84225  0.83711  0.69916  1.0000
  S   S763      1.0  0.89925  0.68652  0.66446  1.0000
  C   C1903     1.0  0.85560  0.70095  0.68663  1.0000
  H   H3026     1.0  0.92555  0.52883  0.74053  1.0000
  H   H3027     1.0  0.92049  0.52082  0.76852  1.0000
  H   H3028     1.0  0.94412  0.56719  0.67874  1.0000
  S   S764      1.0  0.97594  0.55691  0.81268  1.0000
  C   C1904     1.0  0.92790  0.52002  0.75582  1.0000
  C   C1905     1.0  0.93123  0.55197  0.76110  1.0000
  H   H3029     1.0  0.85097  0.78972  0.70703  1.0000
  H   H3030     1.0  0.84500  0.83383  0.66155  1.0000
  S   S765      1.0  0.89592  0.62798  0.68115  1.0000
  H   H3031     1.0  0.86107  0.70963  0.68907  1.0000
  H   H3032     1.0  0.85601  0.66055  0.73043  1.0000
  H   H3033     1.0  0.82710  0.87705  0.67244  1.0000
  C   C1906     1.0  0.95448  0.51858  0.88809  1.0000
  H   H3034     1.0  0.87021  0.65054  0.70035  1.0000
  H   H3035     1.0  0.84139  0.80347  0.69088  1.0000
  H   H3036     1.0  0.94736  0.52949  0.89556  1.0000
  H   H3037     1.0  0.94245  0.49986  0.77995  1.0000
  C   C1907     1.0  0.96499  0.50272  0.80734  1.0000
  H   H3038     1.0  0.94357  0.53661  0.72711  1.0000
  H   H3039     1.0  0.85696  0.70217  0.66928  1.0000
  H   H3040     1.0  0.89926  0.72922  0.66487  1.0000
  H   H3041     1.0  0.95362  0.51947  0.87186  1.0000
  H   H3042     1.0  0.98646  0.54429  0.84729  1.0000
  H   H3043     1.0  0.95761  0.55817  0.88121  1.0000
  H   H3044     1.0  0.98147  0.51248  0.87797  1.0000
  S   S766      1.0  0.84060  0.76000  0.67344  1.0000
  H   H3045     1.0  0.91776  0.67419  0.68626  1.0000
  N   N192      1.0  0.85547  0.81654  0.68280  1.0000
  C   C1908     1.0  0.93632  0.63854  0.65977  1.0000
  H   H3046     1.0  0.84675  0.62013  0.67722  1.0000
  H   H3047     1.0  0.94934  0.51088  0.74177  1.0000
  H   H3048     1.0  0.82760  0.96073  0.81845  1.0000
  H   H3049     1.0  0.94649  0.66913  0.65778  1.0000
  H   H3050     1.0  0.97288  0.52692  0.90971  1.0000
  H   H3051     1.0  0.84163  0.67490  0.69857  1.0000
  H   H3052     1.0  0.84638  0.68549  0.72677  1.0000
  H   H3053     1.0  0.85350  0.78628  0.68045  1.0000
  H   H3054     1.0  0.87421  0.67583  0.69394  1.0000
  C   C1909     1.0  0.97372  0.50904  0.87800  1.0000
  S   S767      1.0  0.98466  0.53379  0.76454  1.0000
  C   C1910     1.0  0.96468  0.54635  0.87496  1.0000
  C   C1911     1.0  0.85105  0.83149  0.69737  1.0000
  C   C1912     1.0  0.86707  0.80859  0.68171  1.0000
  H   H3055     1.0  0.97192  0.55155  0.87510  1.0000
  H   H3056     1.0  0.85255  0.82371  0.71349  1.0000
  C   C1913     1.0  0.85010  0.79821  0.69067  1.0000
  H   H3057     1.0  0.84726  0.70975  0.69177  1.0000
  Fe  Fe383     1.0  0.88498  0.62369  0.66319  1.0000
  C   C1914     1.0  0.96194  0.49843  0.82940  1.0000
  H   H3058     1.0  0.93937  0.62679  0.67328  1.0000
  H   H3059     1.0  0.95152  0.53497  0.74532  1.0000
  H   H3060     1.0  0.96464  0.54759  0.85810  1.0000
  H   H3061     1.0  0.91623  0.65115  0.67936  1.0000
  H   H3062     1.0  0.87045  0.66723  0.67449  1.0000
  C   C1915     1.0  0.98790  0.56176  0.81492  1.0000
  H   H3063     1.0  0.92451  0.64790  0.69754  1.0000
  H   H3064     1.0  0.86006  0.68558  0.72525  1.0000
  H   H3065     1.0  0.94472  0.52358  0.78405  1.0000
  H   H3066     1.0  0.86874  0.79971  0.69748  1.0000
  H   H3067     1.0  0.83104  0.66793  0.66525  1.0000
  C   C1916     1.0  0.82443  0.86441  0.68526  1.0000
  H   H3068     1.0  0.82548  0.84363  0.66454  1.0000
  C   C1917     1.0  0.89213  0.72970  0.65987  1.0000
  H   H3069     1.0  0.98412  0.50904  0.81717  1.0000
  C   C1918     1.0  0.84808  0.59928  0.65659  1.0000
  H   H3070     1.0  0.97354  0.50981  0.86138  1.0000
  H   H3071     1.0  0.83957  0.60241  0.65781  1.0000
  C   C1919     1.0  0.89010  0.71075  0.65805  1.0000
  S   S768      1.0  0.82267  0.89142  0.71130  1.0000
  H   H3072     1.0  0.95420  0.50185  0.89715  1.0000
  Fe  Fe384     1.0  0.90907  0.61057  0.65897  1.0000
  C   C1920     1.0  0.82361  0.84542  0.68075  1.0000
