data_image0
_chemical_formula_structural       FeH2CNCHCH4SH2CHSH2FeS2FeS2FeSFeS3FeS2FeHSHFeSHSCHC7HSH2CSHCH2CHSH5C7H8C6H3C6H5CHNHCSHC2HCSH3CH3S3H2FeCHNFeCH4C4HCHCHNH4NH6FeCH2CH3CH3CH11Fe2S2FeSFeCS2HFeHSCFeSHSFeS2FeS2FeSFeS3FeS2FeS2FeSFeS3FeSFeSCH4CH3C3HCH4CFeSNHFeC7H4NHC2H4CHC6H4C6H4NC6H4C6H7FeCHSC2HFeHSHNH2CSHCHCHC2HC5HSH2CH2C2H2SCNH2NC3H13CHCH8C2HSH2SHC2HSH2C2NC4H13SH3SH6CH3NCH3CS2C2H3CHCHFeSFeS2FeSFeS2FeSFeS2FeSFeS2C2HCHC6H4SC6H5C4H5SHCNC4H5CH6NC2HCH3C2H2CH3CSH3CH3C5H3CH3C2N2H5SH2CH2C2SCHC2HCH4CHCH5CHSH4CH5CHCNH5CFeHCH2SFeS2FeHSCFe2S3FeS2FeS2FeSCHS2HC6H3SC4HCHC2HCH2C4H4C6H4CH2C2H3NH3CH3FeH2CHCH2CH2CH5FeH2NH3CH3CH2SNH3CNH2C2HC2H3FeS2FeSFeHSHFeS2HSHFeSFeS3C5H6C4H5C3H3NC7H4C2H2CH3SNHC3HSC2H4C3FeH2C4HSHNSCH2CH10C2H10NCH3CFeH2C2H2CH4CNH2CH3CH2CSC2H2SFeSFeS2FeSFeS2FeS2FeSFeSFeS2CSH2C4H2C2H2FeC2SHC6H4C6H5FeH2C2H2CHC2H2C2HNCHCHCHCHC3H6SHS2HCH2CH2NHSNH3SHCHNC4H11CH2CHSH4CH5CH2CFeH2CSH2FeSCSFeS2FeS2FeSFeS3FeS2FeS2FeSFeS3HFeCSFeSCSHFeS2HFeSH2SHCHC2HSCH3C6H4C6H4C2NCH2C6H2SHC6H4C6H5CHCH6CSC3SHSHCHC2H2CSHC2H5NCHC2H2FeNH7NC4H12CHC2HCHCSHFeHC2HSCNH4N2HNC2H3CH3C3HCH4CH3NH6NCH5CFeH9CH2C2HC2FeCFeH4CHCH2SC3H2C2H4CH2SC2H4CH4FeS2Fe2SFeCS3FeS2FeS2FeHFeS3H2CHSH2SHCHSHCH2CH3SCHSHCHCH4C6H4NC6H5C6H5C6H5NC3H4CH3C2H5NH5CHCH2NC2HSCH2CH3CH5C2H3NH4CH2CH2CNSH2S2H3CH3CHCHSH2FeC2H3NHCH2CFeHCH2C3H2CH3SHCH6FeS2FeS2FeSFeNS2HSFeS2FeCFeSHSHCHSHCNSHCHSC4H6CH2CH4C2H5C7H5C6H4C6H3NH3SCH2CH2CH4CSH5SH2NCH3SCSHC3HCH2C2HC2H2NCHCH2CH2SCHC2H3FeHSCHFeSCSFeS2FeS2FeSFeS3FeS2FeS2FeSFeS3FeS2CFeSH2SHFeSFeSHC6H4C3H8CHSHC2FeH2C6H4C6H4C6H4C6H4CNC4H15CSH7C2H4CFeHFeHCHC2H2NCSH2C2HCH4CHCH5NHSNHSH2CHCH4NHSHCNH2CH2FeC2HCH3CHCHS2HCHNC2NSC2H4CH4CH4CHCH2C3HCH2C2H2CH2NHC2H3S2HCH2NH4CFeCHSC2H4CH2CHFeCH4FeHNFeS2FeSFe2S3FeSFeS2FeSFeS2HS3C6H4C6H4CHC3H2SC5H3C3H5C2HNHCHSH2CH2CNH4C3SHCH2NH3CH2CH9C2SH2CH2CHC3H2CHFeSCH2CHCHC2HC2SFeCHCH9C2H5C2H3CH2NHCH3CHCHNSH6CH2FeH2FeS2FeCSHCFeS3FeS2FeS2FeNFeHS3H2CHC6H5C2H2C6H3SFeC3NH4C4H4CH5C3H4CH4CHCSNHCH6CHFeH3CH3CHSHSH2S2FeSFeS2HCSNFeS2FeSFeS2HCHC6H4C6H4C4H3CHNHCHFeH2CH2CH2CHCHCH4CFeCH5CSHCH2CH2CFeHCNH2FeCHCH4CHCH3CH3FeNHCHC3SCH6FeSFeS2Fe2S3FeS2FeSFe2S3C4HCH3SC2SHCH3NH3SC6H5C6H2S2CH2C3SH2C3H3SNHC2H2C2H2CHCHCHCH3NSCHCHCH2CH11C2H2NHCH3CHCHNHCH5SCH2NCH5CH2CHCH5C3H3CH3CHC2H3SFeSHFeSFeS2CHCFeHS2FeS2FeS2FeSFeS3FeS2FeS2FeSFeS3FeHSHFeSHS2CHC6H4C6FeSH2SH4C6H4C6H4C6H4C6FeH5C2H3CHSH2CS2H3FeCH2N2H3FeHNC2HNC4H6CHFeCH3CHSCHNH3SCH5C2HNCH2NH2FeCHC2HS2H4NH2CH2CHCH9CHCHCHNC2SH3CH2FeH2C2FeH2C3HCH2CH8CHCHCH2C2H3CH3FeHC2HCH2CNFeS2FeS2FeSFeHS2FeS2FeCHNFeS3H3CH9CHCH5CSCHCH7CH2SH4C2HC7H4C6H4C5H5CHC6H6SCHS2HCHC2H3CHNCHCHSNH2C3H2CH2CHCHCH2CHSHSH8NH3SH3S2H4
_chemical_formula_sum              "Fe192 H1536 C960 N96 S384"
_cell_length_a       56.9115
_cell_length_b       56.9166
_cell_length_c       63.285
_cell_angle_alpha    86.9572
_cell_angle_beta     86.8224
_cell_angle_gamma    87.967

_space_group_name_H-M_alt    "P 1"
_space_group_IT_number       1

loop_
  _space_group_symop_operation_xyz
  'x, y, z'

loop_
  _atom_site_type_symbol
  _atom_site_label
  _atom_site_symmetry_multiplicity
  _atom_site_fract_x
  _atom_site_fract_y
  _atom_site_fract_z
  _atom_site_occupancy
  Fe  Fe1       1.0  0.13199  0.12129  0.18372  1.0000
  H   H1        1.0  0.18412  0.10671  0.18759  1.0000
  H   H2        1.0  0.30160  0.04964  0.01104  1.0000
  C   C1        1.0  0.34599  0.14143  0.12347  1.0000
  N   N1        1.0  0.33344  0.06181  0.02289  1.0000
  C   C2        1.0  0.34088  0.07340  0.18623  1.0000
  H   H3        1.0  0.33458  0.38426  0.12284  1.0000
  C   C3        1.0  0.31624  0.06160  0.00624  1.0000
  H   H4        1.0  0.47698  0.38206  0.99973  1.0000
  H   H5        1.0  0.16224  0.15409  0.10339  1.0000
  H   H6        1.0  0.15958  0.41992  0.16776  1.0000
  H   H7        1.0  0.36029  0.09682  0.13110  1.0000
  S   S1        1.0  0.09757  0.14133  0.18013  1.0000
  H   H8        1.0  0.39071  0.23385  0.99835  1.0000
  H   H9        1.0  0.36828  0.39569  0.09850  1.0000
  C   C4        1.0  0.32143  0.06961  0.04275  1.0000
  H   H10       1.0  0.39118  0.15315  0.12472  1.0000
  S   S2        1.0  0.14891  0.10093  0.15677  1.0000
  H   H11       1.0  0.22508  0.09032  0.18976  1.0000
  H   H12       1.0  0.35374  0.03172  0.01219  1.0000
  Fe  Fe2       1.0  0.30829  0.42256  0.09965  1.0000
  S   S3        1.0  0.28207  0.45017  0.08853  1.0000
  S   S4        1.0  0.31751  0.38941  0.08231  1.0000
  Fe  Fe3       1.0  0.31985  0.44971  0.13764  1.0000
  S   S5        1.0  0.29537  0.48016  0.12891  1.0000
  S   S6        1.0  0.34491  0.44993  0.16416  1.0000
  Fe  Fe4       1.0  0.27007  0.45162  0.12307  1.0000
  S   S7        1.0  0.23192  0.45501  0.13613  1.0000
  Fe  Fe5       1.0  0.30953  0.47609  0.09522  1.0000
  S   S8        1.0  0.32302  0.50042  0.06765  1.0000
  S   S9        1.0  0.29402  0.42163  0.13359  1.0000
  S   S10       1.0  0.33614  0.44800  0.10473  1.0000
  Fe  Fe6       1.0  0.30952  0.08380  0.10295  1.0000
  S   S11       1.0  0.28024  0.05871  0.10168  1.0000
  S   S12       1.0  0.31071  0.11695  0.08196  1.0000
  Fe  Fe7       1.0  0.33463  0.05338  0.13638  1.0000
  H   H13       1.0  0.35595  0.03716  0.03980  1.0000
  S   S13       1.0  0.17052  0.36921  0.17350  1.0000
  H   H14       1.0  0.33730  0.15845  0.12780  1.0000
  Fe  Fe8       1.0  0.28137  0.05570  0.13728  1.0000
  S   S14       1.0  0.25301  0.05929  0.16375  1.0000
  H   H15       1.0  0.38401  0.11208  0.11727  1.0000
  S   S15       1.0  0.30830  0.08344  0.13826  1.0000
  C   C5        1.0  0.37339  0.35686  0.12445  1.0000
  H   H16       1.0  0.14050  0.13654  0.09263  1.0000
  C   C6        1.0  0.14662  0.14321  0.10752  1.0000
  C   C7        1.0  0.17892  0.09205  0.15760  1.0000
  C   C8        1.0  0.19204  0.09663  0.17488  1.0000
  C   C9        1.0  0.21521  0.08735  0.17609  1.0000
  C   C10       1.0  0.22561  0.07396  0.15984  1.0000
  C   C11       1.0  0.21289  0.07039  0.14207  1.0000
  C   C12       1.0  0.18955  0.07928  0.14104  1.0000
  H   H17       1.0  0.32685  0.37452  0.00419  1.0000
  S   S16       1.0  0.11008  0.34105  0.18685  1.0000
  H   H18       1.0  0.31291  0.08743  0.04056  1.0000
  H   H19       1.0  0.17951  0.07566  0.12762  1.0000
  C   C13       1.0  0.34594  0.38727  0.13611  1.0000
  S   S17       1.0  0.40672  0.12295  0.02754  1.0000
  H   H20       1.0  0.11271  0.12593  0.13473  1.0000
  C   C14       1.0  0.38309  0.07537  0.18826  1.0000
  H   H21       1.0  0.17561  0.26011  0.16567  1.0000
  H   H22       1.0  0.40401  0.38053  0.14549  1.0000
  C   C15       1.0  0.38151  0.15012  0.14036  1.0000
  H   H23       1.0  0.13695  0.29788  0.16848  1.0000
  S   S18       1.0  0.30803  0.02514  0.13729  1.0000
  H   H24       1.0  0.19703  0.32143  0.16619  1.0000
  H   H25       1.0  0.34516  0.09640  0.01311  1.0000
  H   H26       1.0  0.35469  0.14411  0.10736  1.0000
  H   H27       1.0  0.39531  0.10221  0.06861  1.0000
  H   H28       1.0  0.10583  0.18782  0.11376  1.0000
  C   C16       1.0  0.18686  0.39335  0.16261  1.0000
  C   C17       1.0  0.17756  0.41645  0.16204  1.0000
  C   C18       1.0  0.19154  0.43511  0.15374  1.0000
  C   C19       1.0  0.21488  0.43090  0.14596  1.0000
  C   C20       1.0  0.22411  0.40779  0.14653  1.0000
  C   C21       1.0  0.21014  0.38913  0.15475  1.0000
  C   C22       1.0  0.15490  0.30308  0.16255  1.0000
  H   H29       1.0  0.18419  0.45292  0.15316  1.0000
  H   H30       1.0  0.24197  0.40428  0.14049  1.0000
  H   H31       1.0  0.21748  0.37133  0.15504  1.0000
  H   H32       1.0  0.39204  0.35188  0.12007  1.0000
  H   H33       1.0  0.11278  0.17152  0.09051  1.0000
  H   H34       1.0  0.15277  0.12762  0.11738  1.0000
  H   H35       1.0  0.37056  0.35698  0.02671  1.0000
  H   H36       1.0  0.31443  0.41043  0.17420  1.0000
  C   C23       1.0  0.33765  0.12004  0.06741  1.0000
  C   C24       1.0  0.35819  0.10922  0.07492  1.0000
  C   C25       1.0  0.37948  0.11081  0.06282  1.0000
  C   C26       1.0  0.38023  0.12289  0.04297  1.0000
  C   C27       1.0  0.35979  0.13414  0.03558  1.0000
  C   C28       1.0  0.33853  0.13287  0.04790  1.0000
  H   H37       1.0  0.35773  0.09973  0.09010  1.0000
  H   H38       1.0  0.36041  0.14395  0.02047  1.0000
  H   H39       1.0  0.32270  0.14150  0.04214  1.0000
  C   C29       1.0  0.37701  0.39351  0.03067  1.0000
  C   C30       1.0  0.37021  0.41344  0.04186  1.0000
  C   C31       1.0  0.35158  0.41248  0.05733  1.0000
  C   C32       1.0  0.34020  0.39135  0.06226  1.0000
  C   C33       1.0  0.34715  0.37134  0.05118  1.0000
  C   C34       1.0  0.36533  0.37248  0.03522  1.0000
  H   H40       1.0  0.37904  0.42982  0.03829  1.0000
  H   H41       1.0  0.34603  0.42816  0.06534  1.0000
  H   H42       1.0  0.33840  0.35494  0.05488  1.0000
  H   H43       1.0  0.38605  0.10251  0.14467  1.0000
  H   H44       1.0  0.33668  0.11615  0.16006  1.0000
  C   C35       1.0  0.34375  0.03785  0.02659  1.0000
  H   H45       1.0  0.36719  0.34453  0.13768  1.0000
  N   N2        1.0  0.17281  0.29492  0.17758  1.0000
  H   H46       1.0  0.33404  0.07057  0.05546  1.0000
  C   C36       1.0  0.34702  0.42518  0.18187  1.0000
  S   S19       1.0  0.36765  0.05278  0.15457  1.0000
  H   H47       1.0  0.39463  0.14399  0.15205  1.0000
  C   C37       1.0  0.35233  0.07814  0.01597  1.0000
  C   C38       1.0  0.35057  0.12939  0.16025  1.0000
  H   H48       1.0  0.15449  0.32263  0.16007  1.0000
  C   C39       1.0  0.17233  0.26901  0.18084  1.0000
  S   S20       1.0  0.33829  0.05623  0.10104  1.0000
  H   H49       1.0  0.32984  0.02494  0.03108  1.0000
  H   H50       1.0  0.22066  0.05987  0.12959  1.0000
  H   H51       1.0  0.15843  0.29551  0.14680  1.0000
  C   C40       1.0  0.36656  0.42234  0.19441  1.0000
  H   H52       1.0  0.37394  0.16741  0.14532  1.0000
  H   H53       1.0  0.30759  0.05723  0.04886  1.0000
  H   H54       1.0  0.34195  0.14604  0.16562  1.0000
  S   S21       1.0  0.04690  0.37156  0.17932  1.0000
  S   S22       1.0  0.39983  0.39552  0.01083  1.0000
  S   S23       1.0  0.11117  0.20702  0.17969  1.0000
  H   H55       1.0  0.37891  0.37383  0.16306  1.0000
  H   H56       1.0  0.09938  0.25598  0.17175  1.0000
  Fe  Fe9       1.0  0.13524  0.36950  0.19252  1.0000
  C   C41       1.0  0.32980  0.40816  0.18347  1.0000
  H   H57       1.0  0.36166  0.07290  0.00091  1.0000
  N   N3        1.0  0.36296  0.13278  0.13920  1.0000
  Fe  Fe10      1.0  0.30930  0.03063  0.10161  1.0000
  C   C42       1.0  0.37385  0.11012  0.13276  1.0000
  H   H58       1.0  0.36289  0.12296  0.17252  1.0000
  H   H59       1.0  0.39776  0.39328  0.10739  1.0000
  H   H60       1.0  0.14303  0.15028  0.14906  1.0000
  H   H61       1.0  0.12279  0.17508  0.14776  1.0000
  C   C43       1.0  0.36359  0.06783  0.17811  1.0000
  C   C44       1.0  0.13671  0.16517  0.13854  1.0000
  C   C45       1.0  0.37910  0.39734  0.11246  1.0000
  C   C46       1.0  0.11993  0.17718  0.10538  1.0000
  H   H62       1.0  0.10038  0.13462  0.10996  1.0000
  C   C47       1.0  0.38505  0.38498  0.14895  1.0000
  H   H63       1.0  0.38367  0.40361  0.15363  1.0000
  C   C48       1.0  0.10754  0.14146  0.12435  1.0000
  H   H64       1.0  0.13473  0.18905  0.10092  1.0000
  N   N4        1.0  0.12771  0.15674  0.11893  1.0000
  H   H65       1.0  0.09293  0.15110  0.13300  1.0000
  H   H66       1.0  0.15171  0.17705  0.13515  1.0000
  H   H67       1.0  0.37776  0.41614  0.11661  1.0000
  H   H68       1.0  0.33925  0.37627  0.15007  1.0000
  N   N5        1.0  0.37092  0.38158  0.13049  1.0000
  H   H69       1.0  0.34338  0.40605  0.13994  1.0000
  H   H70       1.0  0.33180  0.12868  0.12212  1.0000
  H   H71       1.0  0.36281  0.35390  0.11055  1.0000
  H   H72       1.0  0.32576  0.06717  0.17884  1.0000
  H   H73       1.0  0.20095  0.29394  0.15351  1.0000
  H   H74       1.0  0.51727  0.09610  0.01986  1.0000
  Fe  Fe11      1.0  0.11457  0.17056  0.19564  1.0000
  C   C49       1.0  0.10519  0.25374  0.18774  1.0000
  H   H75       1.0  0.36573  0.07871  0.02809  1.0000
  H   H76       1.0  0.21254  0.41485  0.19385  1.0000
  C   C50       1.0  0.31286  0.38836  0.00695  1.0000
  H   H77       1.0  0.29556  0.37990  0.00665  1.0000
  H   H78       1.0  0.45347  0.39874  0.01254  1.0000
  H   H79       1.0  0.10060  0.29061  0.19388  1.0000
  C   C51       1.0  0.46110  0.39344  0.99684  1.0000
  H   H80       1.0  0.18577  0.26218  0.19193  1.0000
  H   H81       1.0  0.31447  0.39433  0.02328  1.0000
  H   H82       1.0  0.29818  0.43322  0.01171  1.0000
  C   C52       1.0  0.19634  0.30192  0.16893  1.0000
  H   H83       1.0  0.30837  0.07951  0.00287  1.0000
  H   H84       1.0  0.50960  0.34951  0.99869  1.0000
  H   H85       1.0  0.37996  0.43545  0.19322  1.0000
  H   H86       1.0  0.21025  0.29635  0.18001  1.0000
  H   H87       1.0  0.15492  0.26329  0.18784  1.0000
  H   H88       1.0  0.47962  0.43345  0.00768  1.0000
  H   H89       1.0  0.34115  0.42496  0.00767  1.0000
  H   H90       1.0  0.40072  0.07094  0.18211  1.0000
  H   H91       1.0  0.18263  0.05269  0.19411  1.0000
  H   H92       1.0  0.04074  0.15351  0.19582  1.0000
  H   H93       1.0  0.43839  0.43544  0.99614  1.0000
  Fe  Fe12      1.0  0.17765  0.44223  0.37438  1.0000
  Fe  Fe13      1.0  0.18573  0.46519  0.32985  1.0000
  S   S24       1.0  0.22170  0.47672  0.33679  1.0000
  S   S25       1.0  0.17278  0.47454  0.29716  1.0000
  Fe  Fe14      1.0  0.22689  0.44061  0.35240  1.0000
  S   S26       1.0  0.25365  0.41092  0.34539  1.0000
  Fe  Fe15      1.0  0.20440  0.48702  0.36820  1.0000
  C   C53       1.0  0.15320  0.04739  0.24230  1.0000
  S   S27       1.0  0.19173  0.42867  0.34342  1.0000
  S   S28       1.0  0.16815  0.47794  0.35993  1.0000
  H   H94       1.0  0.15797  0.04698  0.25916  1.0000
  Fe  Fe16      1.0  0.19553  0.05024  0.34651  1.0000
  H   H95       1.0  0.12554  0.24577  0.24516  1.0000
  S   S29       1.0  0.16753  0.05097  0.32239  1.0000
  C   C54       1.0  0.37982  0.08896  0.20621  1.0000
  Fe  Fe17      1.0  0.24825  0.05142  0.35213  1.0000
  S   S30       1.0  0.28393  0.05034  0.33420  1.0000
  H   H96       1.0  0.50848  0.40541  0.31392  1.0000
  S   S31       1.0  0.21980  0.07971  0.35095  1.0000
  Fe  Fe18      1.0  0.42651  0.37365  0.26977  1.0000
  S   S32       1.0  0.41128  0.34088  0.25860  1.0000
  S   S33       1.0  0.46356  0.37927  0.25554  1.0000
  Fe  Fe19      1.0  0.38078  0.38613  0.29582  1.0000
  S   S34       1.0  0.36305  0.35366  0.28719  1.0000
  S   S35       1.0  0.36200  0.41537  0.31417  1.0000
  Fe  Fe20      1.0  0.39794  0.33497  0.29232  1.0000
  S   S36       1.0  0.40517  0.29981  0.30961  1.0000
  Fe  Fe21      1.0  0.37818  0.36264  0.25430  1.0000
  S   S37       1.0  0.35449  0.36030  0.22703  1.0000
  S   S38       1.0  0.41477  0.36677  0.30392  1.0000
  S   S39       1.0  0.39427  0.39606  0.26251  1.0000
  Fe  Fe22      1.0  0.40009  0.17208  0.26771  1.0000
  S   S40       1.0  0.41582  0.15523  0.29688  1.0000
  S   S41       1.0  0.39686  0.21015  0.25560  1.0000
  Fe  Fe23      1.0  0.38092  0.12548  0.25436  1.0000
  S   S42       1.0  0.39565  0.10493  0.28208  1.0000
  S   S43       1.0  0.35170  0.11305  0.23543  1.0000
  Fe  Fe24      1.0  0.38215  0.13502  0.30128  1.0000
  S   S44       1.0  0.35662  0.13305  0.33020  1.0000
  Fe  Fe25      1.0  0.42811  0.12657  0.27512  1.0000
  S   S45       1.0  0.46426  0.10799  0.27344  1.0000
  S   S46       1.0  0.36586  0.15438  0.27398  1.0000
  S   S47       1.0  0.41413  0.14469  0.24554  1.0000
  Fe  Fe26      1.0  0.10749  0.38353  0.23273  1.0000
  S   S48       1.0  0.10087  0.40702  0.26025  1.0000
  Fe  Fe27      1.0  0.13659  0.13666  0.22828  1.0000
  S   S49       1.0  0.16485  0.13443  0.25206  1.0000
  C   C55       1.0  0.35702  0.09495  0.21396  1.0000
  H   H97       1.0  0.19942  0.07828  0.22077  1.0000
  H   H98       1.0  0.04370  0.40962  0.26463  1.0000
  H   H99       1.0  0.04121  0.41236  0.20617  1.0000
  H   H100      1.0  0.44607  0.31854  0.28677  1.0000
  C   C56       1.0  0.51057  0.37276  0.26172  1.0000
  H   H101      1.0  0.31092  0.40318  0.26624  1.0000
  H   H102      1.0  0.18139  0.44551  0.19856  1.0000
  H   H103      1.0  0.39487  0.09496  0.21390  1.0000
  C   C57       1.0  0.49019  0.11957  0.28246  1.0000
  C   C58       1.0  0.51116  0.10571  0.28183  1.0000
  C   C59       1.0  0.35167  0.23284  0.31321  1.0000
  H   H104      1.0  0.38451  0.40006  0.21744  1.0000
  C   C60       1.0  0.49050  0.14226  0.28989  1.0000
  H   H105      1.0  0.51098  0.08803  0.27634  1.0000
  H   H106      1.0  0.38795  0.20571  0.32549  1.0000
  H   H107      1.0  0.47449  0.15308  0.29050  1.0000
  H   H108      1.0  0.29538  0.02964  0.37796  1.0000
  C   C61       1.0  0.19217  0.03279  0.23165  1.0000
  Fe  Fe28      1.0  0.08787  0.12780  0.21319  1.0000
  S   S50       1.0  0.13823  0.35859  0.22700  1.0000
  N   N6        1.0  0.19561  0.42351  0.22377  1.0000
  H   H109      1.0  0.17046  0.08923  0.22844  1.0000
  Fe  Fe29      1.0  0.21303  0.07034  0.38578  1.0000
  C   C62       1.0  0.02784  0.42396  0.21438  1.0000
  C   C63       1.0  0.40396  0.27506  0.29421  1.0000
  C   C64       1.0  0.39371  0.27692  0.27463  1.0000
  C   C65       1.0  0.39215  0.25689  0.26283  1.0000
  C   C66       1.0  0.40084  0.23488  0.27047  1.0000
  C   C67       1.0  0.41172  0.23310  0.28982  1.0000
  C   C68       1.0  0.41305  0.25313  0.30177  1.0000
  H   H110      1.0  0.38659  0.29371  0.26869  1.0000
  H   H111      1.0  0.38386  0.25842  0.24780  1.0000
  H   H112      1.0  0.41912  0.21633  0.29551  1.0000
  H   H113      1.0  0.42121  0.25166  0.31685  1.0000
  N   N7        1.0  0.35091  0.20763  0.32012  1.0000
  H   H114      1.0  0.19941  0.46042  0.21559  1.0000
  C   C69       1.0  0.48807  0.39239  0.28950  1.0000
  C   C70       1.0  0.48884  0.38131  0.27026  1.0000
  H   H115      1.0  0.05137  0.39486  0.24094  1.0000
  H   H116      1.0  0.02578  0.44035  0.20419  1.0000
  H   H117      1.0  0.36441  0.24229  0.32216  1.0000
  H   H118      1.0  0.47143  0.39923  0.29615  1.0000
  C   C71       1.0  0.50909  0.39590  0.29952  1.0000
  H   H119      1.0  0.20948  0.40867  0.25268  1.0000
  C   C72       1.0  0.30414  0.07318  0.33432  1.0000
  C   C73       1.0  0.29951  0.09323  0.34593  1.0000
  C   C74       1.0  0.31583  0.11141  0.34481  1.0000
  C   C75       1.0  0.33660  0.10983  0.33179  1.0000
  C   C76       1.0  0.34111  0.08976  0.32022  1.0000
  C   C77       1.0  0.32509  0.07144  0.32166  1.0000
  H   H120      1.0  0.28339  0.09477  0.35574  1.0000
  H   H121      1.0  0.31223  0.12681  0.35392  1.0000
  H   H122      1.0  0.35714  0.08815  0.31038  1.0000
  H   H123      1.0  0.32891  0.05593  0.31275  1.0000
  C   C78       1.0  0.16653  0.07478  0.30344  1.0000
  C   C79       1.0  0.18523  0.09006  0.30017  1.0000
  C   C80       1.0  0.18428  0.10854  0.28459  1.0000
  C   C81       1.0  0.16472  0.11177  0.27209  1.0000
  C   C82       1.0  0.14603  0.09645  0.27524  1.0000
  C   C83       1.0  0.14693  0.07803  0.29093  1.0000
  H   H124      1.0  0.20045  0.08761  0.30958  1.0000
  H   H125      1.0  0.19876  0.12037  0.28221  1.0000
  H   H126      1.0  0.13080  0.09896  0.26578  1.0000
  H   H127      1.0  0.13236  0.06633  0.29349  1.0000
  N   N8        1.0  0.47988  0.31138  0.29955  1.0000
  C   C84       1.0  0.28363  0.41300  0.33651  1.0000
  C   C85       1.0  0.29530  0.39308  0.32819  1.0000
  C   C86       1.0  0.31926  0.39354  0.32142  1.0000
  C   C87       1.0  0.33197  0.41384  0.32324  1.0000
  C   C88       1.0  0.32035  0.43375  0.33172  1.0000
  C   C89       1.0  0.29621  0.43345  0.33810  1.0000
  H   H128      1.0  0.28577  0.37713  0.32703  1.0000
  H   H129      1.0  0.32794  0.37804  0.31513  1.0000
  H   H130      1.0  0.33005  0.44952  0.33328  1.0000
  H   H131      1.0  0.28750  0.44882  0.34469  1.0000
  C   C90       1.0  0.15404  0.45460  0.28665  1.0000
  C   C91       1.0  0.14682  0.45879  0.26590  1.0000
  C   C92       1.0  0.13170  0.44331  0.25717  1.0000
  C   C93       1.0  0.12344  0.42371  0.26927  1.0000
  C   C94       1.0  0.13059  0.41959  0.29003  1.0000
  C   C95       1.0  0.14606  0.43482  0.29862  1.0000
  H   H132      1.0  0.15263  0.47428  0.25670  1.0000
  H   H133      1.0  0.12558  0.44711  0.24143  1.0000
  H   H134      1.0  0.12371  0.40487  0.29971  1.0000
  H   H135      1.0  0.15119  0.43161  0.31474  1.0000
  H   H136      1.0  0.22412  0.39893  0.21633  1.0000
  H   H137      1.0  0.35734  0.23515  0.29610  1.0000
  H   H138      1.0  0.18637  0.43043  0.25635  1.0000
  Fe  Fe30      1.0  0.11148  0.33179  0.22159  1.0000
  C   C96       1.0  0.46396  0.32587  0.28614  1.0000
  H   H139      1.0  0.15446  0.06580  0.20148  1.0000
  S   S51       1.0  0.21303  0.45183  0.38463  1.0000
  C   C97       1.0  0.20200  0.42558  0.24592  1.0000
  C   C98       1.0  0.03779  0.40661  0.24853  1.0000
  H   H140      1.0  0.48774  0.28636  0.27565  1.0000
  Fe  Fe31      1.0  0.08105  0.36696  0.19642  1.0000
  H   H141      1.0  0.33949  0.19758  0.29018  1.0000
  S   S52       1.0  0.05263  0.11133  0.22217  1.0000
  H   H142      1.0  0.33375  0.17659  0.31190  1.0000
  N   N9        1.0  0.17400  0.05147  0.22769  1.0000
  H   H143      1.0  0.22845  0.39411  0.38218  1.0000
  H   H144      1.0  0.18872  0.07559  0.24802  1.0000
  C   C99       1.0  0.02520  0.14312  0.19850  1.0000
  S   S53       1.0  0.10266  0.15842  0.22880  1.0000
  H   H145      1.0  0.38039  0.19688  0.29992  1.0000
  C   C100      1.0  0.32896  0.40998  0.26337  1.0000
  H   H146      1.0  0.29828  0.44161  0.27880  1.0000
  C   C101      1.0  0.51160  0.15096  0.29657  1.0000
  H   H147      1.0  0.33413  0.24188  0.31544  1.0000
  C   C102      1.0  0.02646  0.12169  0.21035  1.0000
  C   C103      1.0  0.35204  0.38523  0.20961  1.0000
  H   H148      1.0  0.21519  0.43935  0.24715  1.0000
  C   C104      1.0  0.21210  0.38858  0.39126  1.0000
  C   C105      1.0  0.21672  0.41635  0.21068  1.0000
  C   C106      1.0  0.47066  0.31144  0.32185  1.0000
  C   C107      1.0  0.36912  0.40237  0.20819  1.0000
  C   C108      1.0  0.18623  0.44646  0.21530  1.0000
  H   H149      1.0  0.07158  0.43034  0.22622  1.0000
  S   S54       1.0  0.18669  0.04271  0.38139  1.0000
  H   H150      1.0  0.31993  0.09149  0.20999  1.0000
  H   H151      1.0  0.35555  0.21369  0.35283  1.0000
  C   C109      1.0  0.19927  0.36705  0.36245  1.0000
  H   H152      1.0  0.32535  0.21328  0.34582  1.0000
  H   H153      1.0  0.23079  0.42943  0.21077  1.0000
  C   C110      1.0  0.22382  0.34775  0.38853  1.0000
  C   C111      1.0  0.11877  0.22836  0.21675  1.0000
  H   H154      1.0  0.46925  0.32963  0.32757  1.0000
  H   H155      1.0  0.50326  0.33969  0.30292  1.0000
  S   S55       1.0  0.11619  0.29509  0.23650  1.0000
  C   C112      1.0  0.16710  0.05106  0.20552  1.0000
  N   N10       1.0  0.20461  0.36546  0.38509  1.0000
  H   H156      1.0  0.51130  0.36414  0.24685  1.0000
  H   H157      1.0  0.46202  0.34419  0.29143  1.0000
  N   N11       1.0  0.32852  0.43548  0.25754  1.0000
  C   C113      1.0  0.31614  0.43989  0.23772  1.0000
  C   C114      1.0  0.31615  0.44843  0.27472  1.0000
  C   C115      1.0  0.35291  0.44361  0.25436  1.0000
  H   H158      1.0  0.32496  0.43011  0.22456  1.0000
  H   H159      1.0  0.31586  0.45889  0.23252  1.0000
  H   H160      1.0  0.32607  0.44669  0.28941  1.0000
  H   H161      1.0  0.31427  0.46757  0.27038  1.0000
  H   H162      1.0  0.36279  0.44032  0.26903  1.0000
  H   H163      1.0  0.35328  0.46281  0.25007  1.0000
  H   H164      1.0  0.36279  0.43430  0.24146  1.0000
  H   H165      1.0  0.33808  0.39967  0.25076  1.0000
  H   H166      1.0  0.05585  0.45828  0.22472  1.0000
  H   H167      1.0  0.16141  0.41024  0.23319  1.0000
  H   H168      1.0  0.21465  0.37333  0.35226  1.0000
  H   H169      1.0  0.34251  0.18621  0.34833  1.0000
  H   H170      1.0  0.33848  0.40591  0.27803  1.0000
  C   C116      1.0  0.50363  0.32128  0.29767  1.0000
  H   H171      1.0  0.46333  0.27912  0.29374  1.0000
  C   C117      1.0  0.37461  0.19657  0.31701  1.0000
  H   H172      1.0  0.19829  0.40242  0.38819  1.0000
  H   H173      1.0  0.49295  0.27546  0.30223  1.0000
  H   H174      1.0  0.37502  0.17785  0.32296  1.0000
  H   H175      1.0  0.16866  0.32526  0.19648  1.0000
  H   H176      1.0  0.20817  0.03541  0.22090  1.0000
  H   H177      1.0  0.47057  0.32694  0.26923  1.0000
  H   H178      1.0  0.03161  0.35993  0.22336  1.0000
  H   H179      1.0  0.19439  0.34972  0.35696  1.0000
  C   C118      1.0  0.34321  0.20515  0.34280  1.0000
  C   C119      1.0  0.48107  0.28699  0.29249  1.0000
  H   H180      1.0  0.15860  0.03435  0.20249  1.0000
  S   S56       1.0  0.15034  0.42133  0.39374  1.0000
  H   H181      1.0  0.21884  0.33003  0.38404  1.0000
  H   H182      1.0  0.48221  0.30069  0.33250  1.0000
  S   S57       1.0  0.24370  0.04461  0.38725  1.0000
  H   H183      1.0  0.15214  0.51181  0.32494  1.0000
  C   C120      1.0  0.17746  0.40565  0.22317  1.0000
  C   C121      1.0  0.33427  0.19579  0.30741  1.0000
  H   H184      1.0  0.31607  0.20335  0.30964  1.0000
  S   S58       1.0  0.12103  0.10499  0.21556  1.0000
  H   H185      1.0  0.51097  0.32180  0.28098  1.0000
  H   H186      1.0  0.17018  0.45233  0.22464  1.0000
  C   C122      1.0  0.11349  0.27063  0.22090  1.0000
  C   C123      1.0  0.11979  0.24806  0.22914  1.0000
  N   N12       1.0  0.28882  0.09958  0.26948  1.0000
  C   C124      1.0  0.29489  0.12149  0.25711  1.0000
  C   C125      1.0  0.30961  0.08325  0.26957  1.0000
  C   C126      1.0  0.26928  0.08839  0.25977  1.0000
  C   C127      1.0  0.28149  0.10516  0.29147  1.0000
  H   H187      1.0  0.27976  0.13439  0.25688  1.0000
  H   H188      1.0  0.30034  0.11790  0.24038  1.0000
  H   H189      1.0  0.30997  0.13005  0.26377  1.0000
  H   H190      1.0  0.30585  0.06669  0.27913  1.0000
  H   H191      1.0  0.31551  0.07846  0.25323  1.0000
  H   H192      1.0  0.32489  0.09135  0.27634  1.0000
  H   H193      1.0  0.26434  0.07177  0.26878  1.0000
  H   H194      1.0  0.27423  0.08394  0.24314  1.0000
  H   H195      1.0  0.25327  0.10021  0.25951  1.0000
  H   H196      1.0  0.27617  0.08908  0.30109  1.0000
  H   H197      1.0  0.26617  0.11786  0.29204  1.0000
  H   H198      1.0  0.29608  0.11295  0.29951  1.0000
  H   H199      1.0  0.06343  0.44489  0.25000  1.0000
  S   S59       1.0  0.22443  0.02244  0.34506  1.0000
  H   H200      1.0  0.12373  0.21103  0.22324  1.0000
  H   H201      1.0  0.19774  0.03258  0.24827  1.0000
  H   H202      1.0  0.17185  0.40390  0.20678  1.0000
  S   S60       1.0  0.08094  0.35558  0.23077  1.0000
  H   H203      1.0  0.14954  0.30189  0.20442  1.0000
  H   H204      1.0  0.18407  0.38796  0.22897  1.0000
  H   H205      1.0  0.17992  0.29917  0.21024  1.0000
  H   H206      1.0  0.51625  0.31072  0.30746  1.0000
  H   H207      1.0  0.29764  0.43414  0.23963  1.0000
  H   H208      1.0  0.02112  0.39689  0.25042  1.0000
  C   C128      1.0  0.33761  0.08702  0.20402  1.0000
  H   H209      1.0  0.24010  0.35257  0.37887  1.0000
  H   H210      1.0  0.45270  0.30413  0.32375  1.0000
  H   H211      1.0  0.51166  0.16854  0.30230  1.0000
  N   N13       1.0  0.03482  0.42895  0.23581  1.0000
  C   C129      1.0  0.18361  0.07461  0.23136  1.0000
  H   H212      1.0  0.13941  0.06157  0.24021  1.0000
  H   H213      1.0  0.18424  0.37967  0.35955  1.0000
  H   H214      1.0  0.14509  0.03034  0.23973  1.0000
  C   C130      1.0  0.05735  0.44125  0.23409  1.0000
  S   S61       1.0  0.14968  0.15155  0.19637  1.0000
  S   S62       1.0  0.10606  0.39664  0.19867  1.0000
  C   C131      1.0  0.16759  0.30579  0.19807  1.0000
  C   C132      1.0  0.10599  0.27340  0.20021  1.0000
  H   H215      1.0  0.19038  0.52045  0.33940  1.0000
  H   H216      1.0  0.31909  0.37495  0.19831  1.0000
  H   H217      1.0  0.02105  0.44788  0.26250  1.0000
  C   C133      1.0  0.33242  0.38813  0.19716  1.0000
  H   H218      1.0  0.16832  0.37143  0.39533  1.0000
  C   C134      1.0  0.11156  0.23117  0.19598  1.0000
  H   H219      1.0  0.17742  0.34101  0.39435  1.0000
  Fe  Fe32      1.0  0.11860  0.39144  0.54800  1.0000
  S   S63       1.0  0.11270  0.39928  0.51354  1.0000
  Fe  Fe33      1.0  0.11895  0.33768  0.54188  1.0000
  S   S64       1.0  0.11284  0.34247  0.50716  1.0000
  S   S65       1.0  0.12277  0.30140  0.55855  1.0000
  Fe  Fe34      1.0  0.13955  0.37056  0.50733  1.0000
  S   S66       1.0  0.17083  0.37455  0.48413  1.0000
  Fe  Fe35      1.0  0.08643  0.37062  0.51712  1.0000
  S   S67       1.0  0.05102  0.37752  0.50293  1.0000
  S   S68       1.0  0.14747  0.36431  0.54161  1.0000
  Fe  Fe36      1.0  0.14006  0.12562  0.55073  1.0000
  S   S69       1.0  0.11106  0.10528  0.53875  1.0000
  Fe  Fe37      1.0  0.12872  0.16944  0.52209  1.0000
  S   S70       1.0  0.09973  0.15133  0.50719  1.0000
  S   S71       1.0  0.13452  0.20696  0.50890  1.0000
  Fe  Fe38      1.0  0.08924  0.13877  0.54038  1.0000
  S   S72       1.0  0.05205  0.14271  0.55475  1.0000
  Fe  Fe39      1.0  0.12438  0.11971  0.50673  1.0000
  S   S73       1.0  0.12810  0.09296  0.48159  1.0000
  S   S74       1.0  0.15451  0.13865  0.51859  1.0000
  C   C135      1.0  0.17199  0.07880  0.57411  1.0000
  C   C136      1.0  0.02680  0.35458  0.53648  1.0000
  H   H220      1.0  0.21864  0.05164  0.47502  1.0000
  C   C137      1.0  0.18618  0.03097  0.57157  1.0000
  H   H221      1.0  0.04376  0.34934  0.54234  1.0000
  C   C138      1.0  0.14959  0.09602  0.46061  1.0000
  C   C139      1.0  0.15320  0.07769  0.44673  1.0000
  C   C140      1.0  0.17140  0.07854  0.43083  1.0000
  C   C141      1.0  0.18606  0.09780  0.42863  1.0000
  C   C142      1.0  0.18230  0.11629  0.44239  1.0000
  C   C143      1.0  0.16405  0.11546  0.45832  1.0000
  H   H222      1.0  0.14202  0.06265  0.44839  1.0000
  H   H223      1.0  0.17420  0.06417  0.42044  1.0000
  H   H224      1.0  0.19357  0.13127  0.44073  1.0000
  H   H225      1.0  0.16127  0.12976  0.46886  1.0000
  S   S75       1.0  0.11584  0.42431  0.56734  1.0000
  C   C144      1.0  0.16430  0.38940  0.45994  1.0000
  C   C145      1.0  0.18160  0.40262  0.44863  1.0000
  C   C146      1.0  0.17701  0.41372  0.42885  1.0000
  C   C147      1.0  0.15547  0.41078  0.41986  1.0000
  C   C148      1.0  0.13810  0.39774  0.43129  1.0000
  C   C149      1.0  0.14237  0.38734  0.45141  1.0000
  H   H226      1.0  0.19849  0.40451  0.45531  1.0000
  H   H227      1.0  0.19027  0.42429  0.42050  1.0000
  H   H228      1.0  0.12135  0.39548  0.42449  1.0000
  H   H229      1.0  0.12890  0.37719  0.46005  1.0000
  H   H230      1.0  0.06580  0.42351  0.51447  1.0000
  C   C150      1.0  0.12380  0.27500  0.54479  1.0000
  C   C151      1.0  0.12255  0.27527  0.52277  1.0000
  C   C152      1.0  0.12594  0.25429  0.51207  1.0000
  C   C153      1.0  0.12979  0.23267  0.52329  1.0000
  H   H231      1.0  0.21125  0.03788  0.59454  1.0000
  H   H232      1.0  0.16306  0.29715  0.50051  1.0000
  H   H233      1.0  0.11933  0.29167  0.51389  1.0000
  H   H234      1.0  0.12548  0.25478  0.49497  1.0000
  H   H235      1.0  0.16731  0.05886  0.48795  1.0000
  S   S76       1.0  0.11715  0.15828  0.55547  1.0000
  H   H236      1.0  0.04755  0.24258  0.51002  1.0000
  C   C154      1.0  0.12733  0.25333  0.55606  1.0000
  N   N14       1.0  0.19966  0.06676  0.50166  1.0000
  C   C155      1.0  0.21229  0.06906  0.48063  1.0000
  C   C156      1.0  0.16798  0.04064  0.55948  1.0000
  C   C157      1.0  0.17917  0.05176  0.50033  1.0000
  C   C158      1.0  0.13896  0.46168  0.58146  1.0000
  H   H237      1.0  0.16314  0.40656  0.57704  1.0000
  H   H238      1.0  0.23145  0.06675  0.51853  1.0000
  H   H239      1.0  0.03579  0.40831  0.56682  1.0000
  H   H240      1.0  0.19617  0.42558  0.59289  1.0000
  H   H241      1.0  0.18468  0.03350  0.49642  1.0000
  C   C159      1.0  0.16096  0.06445  0.56068  1.0000
  H   H242      1.0  0.07376  0.19645  0.50206  1.0000
  H   H243      1.0  0.05101  0.39681  0.54395  1.0000
  H   H244      1.0  0.20625  0.10243  0.50886  1.0000
  H   H245      1.0  0.02983  0.19283  0.54761  1.0000
  H   H246      1.0  0.06247  0.45473  0.51643  1.0000
  H   H247      1.0  0.06158  0.24850  0.53395  1.0000
  N   N15       1.0  0.04575  0.43430  0.54227  1.0000
  C   C160      1.0  0.14069  0.43779  0.57669  1.0000
  C   C161      1.0  0.18967  0.06891  0.58681  1.0000
  H   H248      1.0  0.15417  0.31449  0.52262  1.0000
  C   C162      1.0  0.19143  0.09029  0.50830  1.0000
  H   H249      1.0  0.18305  0.32459  0.54817  1.0000
  H   H250      1.0  0.21356  0.31639  0.54353  1.0000
  H   H251      1.0  0.05416  0.17739  0.51752  1.0000
  C   C163      1.0  0.15794  0.47267  0.58990  1.0000
  C   C164      1.0  0.17857  0.45966  0.59433  1.0000
  H   H252      1.0  0.20065  0.07715  0.46848  1.0000
  H   H253      1.0  0.07722  0.21653  0.55643  1.0000
  C   C165      1.0  0.02541  0.36776  0.51729  1.0000
  H   H254      1.0  0.09266  0.20213  0.53501  1.0000
  H   H255      1.0  0.20679  0.05446  0.53345  1.0000
  H   H256      1.0  0.17872  0.09852  0.49718  1.0000
  C   C166      1.0  0.03136  0.13192  0.51812  1.0000
  S   S77       1.0  0.16435  0.10909  0.57507  1.0000
  H   H257      1.0  0.17183  0.28397  0.54746  1.0000
  H   H258      1.0  0.14722  0.07175  0.55097  1.0000
  H   H259      1.0  0.06205  0.45469  0.56462  1.0000
  C   C167      1.0  0.13014  0.23220  0.54539  1.0000
  H   H260      1.0  0.22774  0.08047  0.48087  1.0000
  H   H261      1.0  0.18226  0.08935  0.52431  1.0000
  H   H262      1.0  0.17942  0.26688  0.52497  1.0000
  C   C168      1.0  0.06494  0.43785  0.52583  1.0000
  C   C169      1.0  0.19684  0.04506  0.58549  1.0000
  C   C170      1.0  0.03357  0.21110  0.54129  1.0000
  C   C171      1.0  0.06119  0.23603  0.52100  1.0000
  C   C172      1.0  0.05006  0.41185  0.55446  1.0000
  H   H263      1.0  0.06701  0.41179  0.56246  1.0000
  H   H264      1.0  0.07165  0.18653  0.55176  1.0000
  H   H265      1.0  0.12292  0.47177  0.57847  1.0000
  C   C173      1.0  0.16159  0.42498  0.58051  1.0000
  H   H266      1.0  0.04244  0.20083  0.50083  1.0000
  H   H267      1.0  0.08241  0.43805  0.53297  1.0000
  H   H268      1.0  0.15958  0.02975  0.54881  1.0000
  C   C174      1.0  0.05675  0.19596  0.51167  1.0000
  C   C175      1.0  0.02800  0.13841  0.53910  1.0000
  N   N16       1.0  0.05668  0.21180  0.52944  1.0000
  N   N17       1.0  0.19036  0.30283  0.52171  1.0000
  H   H269      1.0  0.16834  0.05090  0.51547  1.0000
  H   H270      1.0  0.20173  0.27395  0.54249  1.0000
  H   H271      1.0  0.04898  0.12892  0.51128  1.0000
  H   H272      1.0  0.19976  0.33842  0.52636  1.0000
  H   H273      1.0  0.18630  0.35837  0.41538  1.0000
  S   S78       1.0  0.09069  0.36413  0.55195  1.0000
  H   H274      1.0  0.12832  0.25291  0.57311  1.0000
  H   H275      1.0  0.13321  0.21566  0.55421  1.0000
  C   C176      1.0  0.20964  0.29843  0.50565  1.0000
  H   H276      1.0  0.21337  0.31465  0.49555  1.0000
  H   H277      1.0  0.20505  0.28450  0.49500  1.0000
  C   C177      1.0  0.21567  0.05600  0.51734  1.0000
  C   C178      1.0  0.18571  0.28093  0.53469  1.0000
  S   S79       1.0  0.20999  0.09856  0.40975  1.0000
  C   C179      1.0  0.07534  0.20397  0.54380  1.0000
  H   H278      1.0  0.22621  0.29256  0.51319  1.0000
  C   C180      1.0  0.19706  0.32136  0.53554  1.0000
  C   C181      1.0  0.16891  0.31072  0.51093  1.0000
  H   H279      1.0  0.17174  0.32714  0.50089  1.0000
  C   C182      1.0  0.18029  0.43580  0.58953  1.0000
  H   H280      1.0  0.07859  0.23683  0.51202  1.0000
  H   H281      1.0  0.03082  0.45169  0.56943  1.0000
  H   H282      1.0  0.03302  0.22254  0.55503  1.0000
  H   H283      1.0  0.15654  0.49111  0.59317  1.0000
  C   C183      1.0  0.04505  0.45386  0.55675  1.0000
  H   H284      1.0  0.04191  0.47113  0.54810  1.0000
  C   C184      1.0  0.02307  0.43352  0.53203  1.0000
  H   H285      1.0  0.02340  0.41912  0.52073  1.0000
  H   H286      1.0  0.22182  0.03795  0.51319  1.0000
  H   H287      1.0  0.16356  0.50950  0.39799  1.0000
  H   H288      1.0  0.21566  0.38836  0.40838  1.0000
  H   H289      1.0  0.22834  0.34632  0.40545  1.0000
  C   C185      1.0  0.18329  0.35867  0.39811  1.0000
  H   H290      1.0  0.32918  0.51714  0.70402  1.0000
  S   S80       1.0  0.20193  0.47204  0.60704  1.0000
  H   H291      1.0  0.32602  0.51792  0.74341  1.0000
  H   H292      1.0  0.12673  0.49835  0.62174  1.0000
  H   H293      1.0  0.12414  0.02159  0.65600  1.0000
  H   H294      1.0  0.14834  0.51719  0.63069  1.0000
  C   C186      1.0  0.13189  0.50792  0.63555  1.0000
  H   H295      1.0  0.16640  0.02901  0.64562  1.0000
  H   H296      1.0  0.11746  0.03666  0.60927  1.0000
  H   H297      1.0  0.15772  0.51526  0.66866  1.0000
  H   H298      1.0  0.15057  0.46378  0.63580  1.0000
  H   H299      1.0  0.12727  0.51892  0.67626  1.0000
  C   C187      1.0  0.14131  0.50547  0.67233  1.0000
  H   H300      1.0  0.15783  0.46206  0.66313  1.0000
  C   C188      1.0  0.15454  0.47445  0.64935  1.0000
  N   N18       1.0  0.13527  0.49177  0.65427  1.0000
  H   H301      1.0  0.14403  0.49394  0.68679  1.0000
  H   H302      1.0  0.17137  0.48324  0.64480  1.0000
  H   H303      1.0  0.10831  0.46869  0.64650  1.0000
  H   H304      1.0  0.14787  0.04154  0.60238  1.0000
  H   H305      1.0  0.11519  0.46695  0.67391  1.0000
  C   C189      1.0  0.11329  0.47926  0.65980  1.0000
  Fe  Fe40      1.0  0.20490  0.51101  0.61239  1.0000
  H   H306      1.0  0.13511  0.05121  0.62700  1.0000
  C   C190      1.0  0.13522  0.03677  0.61579  1.0000
  H   H307      1.0  0.09836  0.49183  0.66346  1.0000
  H   H308      1.0  0.19832  0.07993  0.59721  1.0000
  S   S81       1.0  0.32419  0.49015  0.92373  1.0000
  Fe  Fe41      1.0  0.37852  0.36350  0.94392  1.0000
  S   S82       1.0  0.40988  0.38227  0.95321  1.0000
  S   S83       1.0  0.35270  0.38109  0.92155  1.0000
  Fe  Fe42      1.0  0.39029  0.31943  0.97182  1.0000
  H   H309      1.0  0.51408  0.35215  0.92022  1.0000
  S   S84       1.0  0.42196  0.33575  0.98419  1.0000
  C   C191      1.0  0.36311  0.04289  0.89708  1.0000
  Fe  Fe43      1.0  0.31061  0.51431  0.89679  1.0000
  Fe  Fe44      1.0  0.42980  0.34777  0.95041  1.0000
  S   S85       1.0  0.46607  0.34406  0.93413  1.0000
  S   S86       1.0  0.36663  0.35153  0.97710  1.0000
  S   S87       1.0  0.39934  0.32978  0.93775  1.0000
  Fe  Fe45      1.0  0.38100  0.10133  0.95642  1.0000
  S   S88       1.0  0.41236  0.09211  0.97556  1.0000
  S   S89       1.0  0.35211  0.07508  0.95316  1.0000
  Fe  Fe46      1.0  0.39324  0.15366  0.95179  1.0000
  S   S90       1.0  0.42545  0.14858  0.97058  1.0000
  S   S91       1.0  0.38208  0.18842  0.93528  1.0000
  Fe  Fe47      1.0  0.43262  0.11605  0.95241  1.0000
  S   S92       1.0  0.46845  0.10425  0.93875  1.0000
  C   C192      1.0  0.47817  0.27385  0.93274  1.0000
  H   H310      1.0  0.30725  0.12570  0.89929  1.0000
  S   S93       1.0  0.40198  0.12266  0.93163  1.0000
  S   S94       1.0  0.36996  0.13284  0.97520  1.0000
  H   H311      1.0  0.44184  0.30111  0.91985  1.0000
  C   C193      1.0  0.38327  0.21457  0.94916  1.0000
  C   C194      1.0  0.37947  0.23658  0.93848  1.0000
  C   C195      1.0  0.37988  0.25760  0.94931  1.0000
  C   C196      1.0  0.38385  0.25672  0.97098  1.0000
  C   C197      1.0  0.38776  0.23473  0.98157  1.0000
  C   C198      1.0  0.38767  0.21377  0.97071  1.0000
  H   H312      1.0  0.51734  0.09959  0.92503  1.0000
  H   H313      1.0  0.37645  0.27440  0.94106  1.0000
  H   H314      1.0  0.42854  0.28133  0.96430  1.0000
  S   S95       1.0  0.38368  0.28245  0.98559  1.0000
  C   C199      1.0  0.51565  0.11320  0.93638  1.0000
  C   C200      1.0  0.49031  0.34628  0.97059  1.0000
  C   C201      1.0  0.49142  0.34730  0.94844  1.0000
  C   C202      1.0  0.51306  0.35140  0.93737  1.0000
  H   H315      1.0  0.47386  0.34271  0.97930  1.0000
  C   C203      1.0  0.34445  0.02726  0.89753  1.0000
  H   H316      1.0  0.45881  0.23671  0.95447  1.0000
  C   C204      1.0  0.49335  0.11922  0.94555  1.0000
  C   C205      1.0  0.49133  0.13685  0.96016  1.0000
  H   H317      1.0  0.33336  0.10804  0.89367  1.0000
  C   C206      1.0  0.44751  0.28257  0.95928  1.0000
  H   H318      1.0  0.47440  0.14142  0.96753  1.0000
  H   H319      1.0  0.36364  0.14913  0.87556  1.0000
  C   C207      1.0  0.51132  0.14860  0.96536  1.0000
  C   C208      1.0  0.36572  0.05767  0.91394  1.0000
  C   C209      1.0  0.34954  0.05708  0.93140  1.0000
  C   C210      1.0  0.33069  0.04170  0.93174  1.0000
  H   H320      1.0  0.32756  0.17321  0.88382  1.0000
  H   H321      1.0  0.49211  0.39569  0.96248  1.0000
  H   H322      1.0  0.38035  0.06936  0.91346  1.0000
  H   H323      1.0  0.33964  0.51812  0.99473  1.0000
  C   C211      1.0  0.33376  0.46039  0.92132  1.0000
  C   C212      1.0  0.34923  0.45014  0.93602  1.0000
  C   C213      1.0  0.35593  0.42609  0.93569  1.0000
  C   C214      1.0  0.34675  0.41190  0.92096  1.0000
  C   C215      1.0  0.33146  0.42220  0.90614  1.0000
  C   C216      1.0  0.32514  0.44638  0.90618  1.0000
  H   H324      1.0  0.35607  0.46089  0.94770  1.0000
  H   H325      1.0  0.36782  0.41842  0.94708  1.0000
  H   H326      1.0  0.32428  0.41137  0.89468  1.0000
  H   H327      1.0  0.31312  0.45401  0.89485  1.0000
  C   C217      1.0  0.31217  0.39967  0.96962  1.0000
  H   H328      1.0  0.32296  0.13499  0.93345  1.0000
  H   H329      1.0  0.45153  0.30158  0.95772  1.0000
  C   C218      1.0  0.36376  0.14335  0.89262  1.0000
  C   C219      1.0  0.44799  0.24566  0.94213  1.0000
  H   H330      1.0  0.31107  0.50679  0.96877  1.0000
  H   H331      1.0  0.48238  0.29285  0.93032  1.0000
  H   H332      1.0  0.35106  0.14823  0.93383  1.0000
  N   N19       1.0  0.45302  0.27098  0.93917  1.0000
  H   H333      1.0  0.37593  0.23737  0.92184  1.0000
  H   H334      1.0  0.31062  0.16756  0.90832  1.0000
  H   H335      1.0  0.37501  0.15562  0.90043  1.0000
  C   C220      1.0  0.32872  0.16699  0.90071  1.0000
  H   H336      1.0  0.44900  0.44535  0.96993  1.0000
  H   H337      1.0  0.41929  0.28037  0.92693  1.0000
  H   H338      1.0  0.48975  0.26598  0.94501  1.0000
  Fe  Fe48      1.0  0.40300  0.12513  0.99233  1.0000
  H   H339      1.0  0.39054  0.19697  0.97915  1.0000
  H   H340      1.0  0.37254  0.12555  0.89366  1.0000
  C   C221      1.0  0.44546  0.42947  0.98048  1.0000
  H   H341      1.0  0.43109  0.41998  0.97375  1.0000
  C   C222      1.0  0.43839  0.28199  0.92253  1.0000
  H   H342      1.0  0.34062  0.43353  0.98000  1.0000
  H   H343      1.0  0.37582  0.04333  0.88370  1.0000
  C   C223      1.0  0.32810  0.02692  0.91489  1.0000
  H   H344      1.0  0.42921  0.24300  0.94729  1.0000
  H   H345      1.0  0.32451  0.13109  0.87494  1.0000
  C   C224      1.0  0.32556  0.12628  0.89215  1.0000
  H   H346      1.0  0.49016  0.44313  0.98143  1.0000
  H   H347      1.0  0.50951  0.16226  0.97663  1.0000
  H   H348      1.0  0.31275  0.41436  0.95727  1.0000
  H   H349      1.0  0.29765  0.44164  0.98392  1.0000
  H   H350      1.0  0.47875  0.42147  0.95013  1.0000
  Fe  Fe49      1.0  0.39922  0.36860  0.98610  1.0000
  H   H351      1.0  0.34932  0.11794  0.92747  1.0000
  H   H352      1.0  0.48299  0.26533  0.91761  1.0000
  N   N20       1.0  0.33968  0.14309  0.90268  1.0000
  H   H353      1.0  0.33918  0.17997  0.90855  1.0000
  H   H354      1.0  0.35086  0.51739  0.95590  1.0000
  H   H355      1.0  0.45775  0.27441  0.97238  1.0000
  C   C225      1.0  0.34080  0.13574  0.92535  1.0000
  H   H356      1.0  0.44195  0.27362  0.90713  1.0000
  H   H357      1.0  0.45152  0.23635  0.92719  1.0000
  H   H358      1.0  0.31793  0.04128  0.94506  1.0000
  C   C226      1.0  0.47534  0.40630  0.96157  1.0000
  H   H359      1.0  0.46235  0.39514  0.95462  1.0000
  H   H360      1.0  0.29509  0.39098  0.96864  1.0000
  S   S96       1.0  0.29768  0.51016  0.86416  1.0000
  N   N21       1.0  0.46682  0.41414  0.98264  1.0000
  H   H361      1.0  0.44788  0.38248  0.99004  1.0000
  H   H362      1.0  0.32642  0.38667  0.96508  1.0000
  H   H363      1.0  0.32471  0.05561  0.99107  1.0000
  C   C227      1.0  0.51057  0.35011  0.98155  1.0000
  N   N22       1.0  0.31500  0.40819  0.99098  1.0000
  H   H364      1.0  0.35284  0.40523  0.98825  1.0000
  H   H365      1.0  0.50178  0.41623  0.99353  1.0000
  C   C228      1.0  0.48540  0.42736  0.99173  1.0000
  C   C229      1.0  0.33842  0.41844  0.99175  1.0000
  H   H366      1.0  0.27861  0.41926  0.99529  1.0000
  C   C230      1.0  0.29653  0.42639  0.99568  1.0000
  C   C231      1.0  0.51425  0.68048  0.02025  1.0000
  H   H367      1.0  0.50515  0.66897  0.00982  1.0000
  H   H368      1.0  0.44198  0.78122  0.07891  1.0000
  H   H369      1.0  0.42319  0.96201  0.11522  1.0000
  Fe  Fe50      1.0  0.42864  0.63229  0.03222  1.0000
  S   S97       1.0  0.39946  0.65333  0.04841  1.0000
  S   S98       1.0  0.46186  0.62609  0.05007  1.0000
  Fe  Fe51      1.0  0.37628  0.62410  0.04029  1.0000
  S   S99       1.0  0.35192  0.60771  0.06635  1.0000
  Fe  Fe52      1.0  0.39305  0.66946  0.01604  1.0000
  H   H370      1.0  0.35422  0.80246  0.01017  1.0000
  S   S100      1.0  0.40595  0.60231  0.02611  1.0000
  H   H371      1.0  0.37560  0.58416  0.10335  1.0000
  Fe  Fe53      1.0  0.42087  0.87991  0.04395  1.0000
  S   S101      1.0  0.39893  0.86287  0.07043  1.0000
  S   S102      1.0  0.45295  0.89783  0.05386  1.0000
  H   H372      1.0  0.42791  0.58458  0.06560  1.0000
  S   S103      1.0  0.36087  0.85149  0.03591  1.0000
  H   H373      1.0  0.43801  0.56421  0.11005  1.0000
  Fe  Fe54      1.0  0.36830  0.88189  0.05578  1.0000
  S   S104      1.0  0.34319  0.89886  0.07987  1.0000
  Fe  Fe55      1.0  0.39370  0.83405  0.04844  1.0000
  S   S105      1.0  0.39774  0.79647  0.06199  1.0000
  S   S106      1.0  0.39060  0.90103  0.03054  1.0000
  S   S107      1.0  0.41830  0.84959  0.02303  1.0000
  C   C232      1.0  0.39237  0.73222  0.02167  1.0000
  C   C233      1.0  0.39323  0.72938  0.04371  1.0000
  C   C234      1.0  0.39506  0.74920  0.05590  1.0000
  C   C235      1.0  0.39614  0.77193  0.04616  1.0000
  C   C236      1.0  0.39614  0.77468  0.02409  1.0000
  H   H374      1.0  0.41574  0.55839  0.07838  1.0000
  H   H375      1.0  0.39190  0.71200  0.05138  1.0000
  H   H376      1.0  0.39517  0.74691  0.07297  1.0000
  H   H377      1.0  0.39780  0.79201  0.01644  1.0000
  H   H378      1.0  0.39412  0.56045  0.11329  1.0000
  H   H379      1.0  0.31552  0.78862  0.00091  1.0000
  C   C237      1.0  0.48205  0.86756  0.03124  1.0000
  C   C238      1.0  0.48044  0.88485  0.04615  1.0000
  C   C239      1.0  0.50077  0.89094  0.05589  1.0000
  C   C240      1.0  0.32587  0.54383  0.08548  1.0000
  H   H380      1.0  0.47124  0.76892  0.07502  1.0000
  H   H381      1.0  0.46667  0.86328  0.02317  1.0000
  H   H382      1.0  0.49969  0.90444  0.06734  1.0000
  H   H383      1.0  0.38581  0.94320  0.12709  1.0000
  H   H384      1.0  0.50468  0.79566  0.06406  1.0000
  C   C241      1.0  0.50356  0.85548  0.02695  1.0000
  C   C242      1.0  0.48843  0.62243  0.03478  1.0000
  C   C243      1.0  0.48859  0.62091  0.01279  1.0000
  H   H385      1.0  0.39653  0.58140  0.06843  1.0000
  H   H386      1.0  0.45030  0.59027  0.09715  1.0000
  H   H387      1.0  0.50069  0.69280  0.02720  1.0000
  N   N23       1.0  0.46807  0.80631  0.06842  1.0000
  C   C244      1.0  0.45403  0.82663  0.07645  1.0000
  C   C245      1.0  0.33560  0.92920  0.07775  1.0000
  C   C246      1.0  0.34035  0.94270  0.05900  1.0000
  C   C247      1.0  0.33427  0.96688  0.05791  1.0000
  C   C248      1.0  0.32383  0.97781  0.07565  1.0000
  C   C249      1.0  0.31946  0.96440  0.09451  1.0000
  C   C250      1.0  0.32504  0.94010  0.09545  1.0000
  H   H388      1.0  0.34825  0.93442  0.04523  1.0000
  H   H389      1.0  0.33748  0.97712  0.04322  1.0000
  H   H390      1.0  0.31121  0.97263  0.10819  1.0000
  H   H391      1.0  0.32118  0.92971  0.10997  1.0000
  C   C251      1.0  0.34453  0.57768  0.06678  1.0000
  C   C252      1.0  0.35095  0.56362  0.04979  1.0000
  H   H392      1.0  0.45713  0.82927  0.09334  1.0000
  H   H393      1.0  0.49904  0.82678  0.06268  1.0000
  C   C253      1.0  0.33208  0.56764  0.08465  1.0000
  H   H394      1.0  0.36055  0.57111  0.03597  1.0000
  H   H395      1.0  0.32695  0.57841  0.09783  1.0000
  H   H396      1.0  0.41514  0.93460  0.06414  1.0000
  S   S108      1.0  0.42409  0.65037  0.00030  1.0000
  N   N24       1.0  0.41265  0.58901  0.09704  1.0000
  H   H397      1.0  0.43527  0.59176  0.12282  1.0000
  C   C254      1.0  0.43505  0.58353  0.10727  1.0000
  C   C255      1.0  0.50983  0.62134  0.04483  1.0000
  C   C256      1.0  0.33182  0.52993  0.06828  1.0000
  H   H398      1.0  0.44493  0.80124  0.04341  1.0000
  S   S109      1.0  0.38834  0.70824  0.00567  1.0000
  C   C257      1.0  0.41329  0.57784  0.07646  1.0000
  C   C258      1.0  0.46386  0.80402  0.04578  1.0000
  H   H399      1.0  0.46888  0.82010  0.03611  1.0000
  H   H400      1.0  0.43486  0.82411  0.07532  1.0000
  H   H401      1.0  0.50980  0.62233  0.06186  1.0000
  H   H402      1.0  0.45842  0.84326  0.06724  1.0000
  C   C259      1.0  0.34449  0.53992  0.05052  1.0000
  C   C260      1.0  0.39404  0.75493  0.01193  1.0000
  C   C261      1.0  0.51009  0.61843  0.00093  1.0000
  Fe  Fe56      1.0  0.38587  0.86925  0.01182  1.0000
  H   H403      1.0  0.40872  0.97616  0.09323  1.0000
  H   H404      1.0  0.37135  0.95656  0.10473  1.0000
  C   C262      1.0  0.39272  0.57993  0.11070  1.0000
  C   C263      1.0  0.46095  0.78459  0.08060  1.0000
  C   C264      1.0  0.40958  0.61480  0.09358  1.0000
  C   C265      1.0  0.41857  0.95985  0.09859  1.0000
  H   H405      1.0  0.50455  0.84159  0.01587  1.0000
  S   S110      1.0  0.36680  0.64223  0.00923  1.0000
  H   H406      1.0  0.31897  0.54024  0.00423  1.0000
  N   N25       1.0  0.40447  0.93878  0.09693  1.0000
  S   S111      1.0  0.31576  0.00801  0.07325  1.0000
  C   C266      1.0  0.49335  0.81001  0.07087  1.0000
  H   H407      1.0  0.42409  0.62222  0.08301  1.0000
  H   H408      1.0  0.46349  0.78580  0.09780  1.0000
  C   C267      1.0  0.38236  0.94106  0.11018  1.0000
  H   H409      1.0  0.39278  0.61960  0.08600  1.0000
  H   H410      1.0  0.39172  0.58783  0.12644  1.0000
  H   H411      1.0  0.47216  0.62153  0.00492  1.0000
  H   H412      1.0  0.40920  0.62389  0.10872  1.0000
  H   H413      1.0  0.38819  0.92091  0.07292  1.0000
  H   H414      1.0  0.47416  0.78890  0.03915  1.0000
  H   H415      1.0  0.43531  0.95869  0.08864  1.0000
  H   H416      1.0  0.31908  0.82981  0.01033  1.0000
  H   H417      1.0  0.31597  0.53639  0.09917  1.0000
  H   H418      1.0  0.38854  0.95224  0.06851  1.0000
  C   C268      1.0  0.41803  0.91754  0.10425  1.0000
  C   C269      1.0  0.39888  0.93661  0.07462  1.0000
  H   H419      1.0  0.37150  0.92521  0.10955  1.0000
  H   H420      1.0  0.43482  0.91526  0.09453  1.0000
  H   H421      1.0  0.42248  0.91843  0.12107  1.0000
  H   H422      1.0  0.40787  0.90134  0.10295  1.0000
  H   H423      1.0  0.34929  0.52923  0.03724  1.0000
  H   H424      1.0  0.51063  0.72169  0.99771  1.0000
  H   H425      1.0  0.49731  0.81100  0.08781  1.0000
  H   H426      1.0  0.19902  0.55012  0.34089  1.0000
  H   H427      1.0  0.16084  0.52801  0.30103  1.0000
  H   H428      1.0  0.13345  0.53547  0.31513  1.0000
  N   N26       1.0  0.16443  0.54640  0.32952  1.0000
  C   C270      1.0  0.15272  0.54746  0.35091  1.0000
  H   H429      1.0  0.14939  0.94694  0.38378  1.0000
  H   H430      1.0  0.14525  0.57686  0.31722  1.0000
  H   H431      1.0  0.15299  0.52986  0.35946  1.0000
  C   C271      1.0  0.18921  0.53824  0.33134  1.0000
  Fe  Fe57      1.0  0.21789  0.01737  0.38029  1.0000
  H   H432      1.0  0.17239  0.56991  0.30259  1.0000
  H   H433      1.0  0.32235  0.01585  0.38653  1.0000
  C   C272      1.0  0.15214  0.52979  0.31709  1.0000
  C   C273      1.0  0.16370  0.57009  0.31878  1.0000
  H   H434      1.0  0.18554  0.01508  0.22901  1.0000
  H   H435      1.0  0.17291  0.58295  0.32781  1.0000
  C   C274      1.0  0.31483  0.97299  0.37235  1.0000
  H   H436      1.0  0.17858  0.97850  0.38023  1.0000
  H   H437      1.0  0.31660  0.01862  0.35881  1.0000
  H   H438      1.0  0.13399  0.55360  0.35027  1.0000
  H   H439      1.0  0.16167  0.55965  0.36083  1.0000
  C   C275      1.0  0.30840  0.01494  0.37500  1.0000
  N   N27       1.0  0.29704  0.99188  0.37675  1.0000
  H   H440      1.0  0.30676  0.95539  0.37352  1.0000
  H   H441      1.0  0.26500  0.00569  0.36428  1.0000
  C   C276      1.0  0.16523  0.94507  0.39250  1.0000
  H   H442      1.0  0.32907  0.97261  0.38374  1.0000
  H   H443      1.0  0.19866  0.53709  0.31555  1.0000
  H   H444      1.0  0.32320  0.97550  0.35608  1.0000
  C   C277      1.0  0.18176  0.96299  0.39046  1.0000
  H   H445      1.0  0.28591  0.99511  0.34469  1.0000
  H   H446      1.0  0.26939  0.97474  0.36215  1.0000
  C   C278      1.0  0.27862  0.99173  0.36123  1.0000
  S   S112      1.0  0.21014  0.52294  0.38095  1.0000
  C   C279      1.0  0.18736  0.53817  0.39544  1.0000
  C   C280      1.0  0.17290  0.55120  0.50558  1.0000
  H   H447      1.0  0.12736  0.57160  0.47647  1.0000
  H   H448      1.0  0.04494  0.64018  0.42769  1.0000
  S   S113      1.0  0.20943  0.89208  0.56731  1.0000
  Fe  Fe58      1.0  0.08674  0.65163  0.45948  1.0000
  S   S114      1.0  0.04934  0.66556  0.46577  1.0000
  Fe  Fe59      1.0  0.12983  0.63818  0.48509  1.0000
  S   S115      1.0  0.15439  0.63485  0.45620  1.0000
  S   S116      1.0  0.13470  0.63034  0.51992  1.0000
  Fe  Fe60      1.0  0.13519  0.66798  0.44402  1.0000
  S   S117      1.0  0.14931  0.69986  0.42520  1.0000
  Fe  Fe61      1.0  0.12482  0.61591  0.44296  1.0000
  S   S118      1.0  0.11346  0.67278  0.47406  1.0000
  S   S119      1.0  0.10139  0.61737  0.47277  1.0000
  Fe  Fe62      1.0  0.14570  0.82824  0.45965  1.0000
  S   S120      1.0  0.11259  0.83435  0.47980  1.0000
  S   S121      1.0  0.16559  0.79479  0.46999  1.0000
  Fe  Fe63      1.0  0.13951  0.87535  0.43423  1.0000
  S   S122      1.0  0.10561  0.88410  0.45250  1.0000
  Fe  Fe64      1.0  0.12498  0.87123  0.48102  1.0000
  S   S123      1.0  0.12127  0.89156  0.51082  1.0000
  Fe  Fe65      1.0  0.09671  0.84647  0.44939  1.0000
  S   S124      1.0  0.06265  0.83286  0.43875  1.0000
  S   S125      1.0  0.15944  0.86452  0.46311  1.0000
  C   C281      1.0  0.17204  0.57461  0.41092  1.0000
  S   S126      1.0  0.23789  0.94837  0.58374  1.0000
  H   H449      1.0  0.05235  0.85508  0.47877  1.0000
  H   H450      1.0  0.11177  0.96636  0.44609  1.0000
  C   C282      1.0  0.15417  0.72598  0.43793  1.0000
  C   C283      1.0  0.16078  0.76853  0.45747  1.0000
  C   C284      1.0  0.15596  0.76886  0.43604  1.0000
  C   C285      1.0  0.15319  0.74761  0.42622  1.0000
  H   H451      1.0  0.15506  0.78543  0.42686  1.0000
  H   H452      1.0  0.07636  0.70865  0.44804  1.0000
  C   C286      1.0  0.20636  0.94032  0.41452  1.0000
  C   C287      1.0  0.18973  0.92245  0.41670  1.0000
  H   H453      1.0  0.22240  0.93830  0.42294  1.0000
  H   H454      1.0  0.19309  0.90673  0.42658  1.0000
  Fe  Fe66      1.0  0.20773  0.97389  0.59082  1.0000
  C   C288      1.0  0.16234  0.74687  0.46910  1.0000
  C   C289      1.0  0.19034  0.56166  0.40038  1.0000
  S   S127      1.0  0.12916  0.83822  0.42891  1.0000
  H   H455      1.0  0.05692  0.72330  0.46663  1.0000
  C   C290      1.0  0.14626  0.89424  0.52565  1.0000
  C   C291      1.0  0.14327  0.90040  0.54681  1.0000
  C   C292      1.0  0.16275  0.90088  0.55947  1.0000
  C   C293      1.0  0.18535  0.89529  0.55099  1.0000
  C   C294      1.0  0.18845  0.89004  0.52961  1.0000
  C   C295      1.0  0.16897  0.88962  0.51694  1.0000
  H   H456      1.0  0.12576  0.90411  0.55362  1.0000
  H   H457      1.0  0.16015  0.90465  0.57601  1.0000
  H   H458      1.0  0.20595  0.88598  0.52295  1.0000
  H   H459      1.0  0.17156  0.88541  0.50056  1.0000
  C   C296      1.0  0.19857  0.59400  0.54989  1.0000
  C   C297      1.0  0.20119  0.60478  0.52944  1.0000
  C   C298      1.0  0.18170  0.61587  0.51981  1.0000
  C   C299      1.0  0.15963  0.61625  0.53071  1.0000
  C   C300      1.0  0.15715  0.60559  0.55114  1.0000
  C   C301      1.0  0.17650  0.59441  0.56067  1.0000
  H   H460      1.0  0.21831  0.60468  0.52111  1.0000
  H   H461      1.0  0.18383  0.62458  0.50424  1.0000
  H   H462      1.0  0.14015  0.60606  0.55971  1.0000
  H   H463      1.0  0.17434  0.58645  0.57651  1.0000
  H   H464      1.0  0.27695  0.97090  0.40008  1.0000
  Fe  Fe67      1.0  0.21099  0.92065  0.59053  1.0000
  H   H465      1.0  0.15006  0.54052  0.45860  1.0000
  H   H466      1.0  0.10465  0.73125  0.42469  1.0000
  C   C302      1.0  0.02599  0.65040  0.45630  1.0000
  C   C303      1.0  0.28620  0.98789  0.39837  1.0000
  H   H467      1.0  0.13761  0.58365  0.49983  1.0000
  H   H468      1.0  0.19125  0.54442  0.50225  1.0000
  C   C304      1.0  0.15868  0.72567  0.45946  1.0000
  H   H469      1.0  0.15970  0.70906  0.46857  1.0000
  C   C305      1.0  0.03597  0.85006  0.47264  1.0000
  C   C306      1.0  0.17453  0.57535  0.47301  1.0000
  H   H470      1.0  0.16624  0.74645  0.48565  1.0000
  H   H471      1.0  0.11113  0.75808  0.46403  1.0000
  C   C307      1.0  0.15267  0.92762  0.46608  1.0000
  C   C308      1.0  0.09896  0.74312  0.46512  1.0000
  H   H472      1.0  0.14679  0.96101  0.49441  1.0000
  N   N28       1.0  0.08130  0.74591  0.44885  1.0000
  C   C309      1.0  0.06599  0.72536  0.45062  1.0000
  H   H473      1.0  0.16817  0.92838  0.47596  1.0000
  C   C310      1.0  0.06701  0.76778  0.45207  1.0000
  H   H474      1.0  0.17341  0.96921  0.46219  1.0000
  C   C311      1.0  0.15774  0.96773  0.45264  1.0000
  H   H475      1.0  0.10985  0.72666  0.46325  1.0000
  C   C312      1.0  0.20245  0.96064  0.40139  1.0000
  H   H476      1.0  0.16425  0.96207  0.43674  1.0000
  C   C313      1.0  0.03619  0.83897  0.45344  1.0000
  C   C314      1.0  0.09342  0.74734  0.42757  1.0000
  C   C315      1.0  0.14770  0.54060  0.41175  1.0000
  H   H477      1.0  0.14951  0.98565  0.45027  1.0000
  H   H478      1.0  0.08067  0.74925  0.41485  1.0000
  H   H479      1.0  0.28835  0.63005  0.57152  1.0000
  H   H480      1.0  0.12281  0.97682  0.48203  1.0000
  H   H481      1.0  0.17328  0.81857  0.56170  1.0000
  H   H482      1.0  0.07823  0.78352  0.45106  1.0000
  S   S128      1.0  0.14743  0.90301  0.40775  1.0000
  H   H483      1.0  0.05743  0.76734  0.46789  1.0000
  S   S129      1.0  0.22384  0.98261  0.39906  1.0000
  S   S130      1.0  0.10739  0.64873  0.42844  1.0000
  H   H484      1.0  0.30258  0.60137  0.57039  1.0000
  C   C316      1.0  0.13704  0.56721  0.49106  1.0000
  H   H485      1.0  0.14930  0.52235  0.48265  1.0000
  H   H486      1.0  0.17385  0.56670  0.51548  1.0000
  C   C317      1.0  0.12086  0.94899  0.44921  1.0000
  H   H487      1.0  0.05231  0.72680  0.43871  1.0000
  H   H488      1.0  0.17702  0.52875  0.46886  1.0000
  N   N29       1.0  0.16095  0.55750  0.48580  1.0000
  H   H489      1.0  0.12683  0.94211  0.43355  1.0000
  S   S131      1.0  0.19697  0.00235  0.56647  1.0000
  N   N30       1.0  0.14085  0.95096  0.46290  1.0000
  H   H490      1.0  0.27248  0.60561  0.56339  1.0000
  H   H491      1.0  0.09051  0.74217  0.48140  1.0000
  H   H492      1.0  0.05378  0.77085  0.43983  1.0000
  S   S132      1.0  0.12670  0.57935  0.42959  1.0000
  H   H493      1.0  0.16585  0.58060  0.45807  1.0000
  C   C318      1.0  0.13210  0.95934  0.48371  1.0000
  H   H494      1.0  0.10761  0.93672  0.45660  1.0000
  N   N31       1.0  0.17987  0.81729  0.52794  1.0000
  C   C319      1.0  0.19634  0.82738  0.51127  1.0000
  C   C320      1.0  0.18265  0.79133  0.52873  1.0000
  C   C321      1.0  0.15540  0.82422  0.52305  1.0000
  C   C322      1.0  0.18507  0.82616  0.54868  1.0000
  H   H495      1.0  0.19455  0.84687  0.50995  1.0000
  H   H496      1.0  0.19301  0.82096  0.49543  1.0000
  H   H497      1.0  0.21497  0.82266  0.51452  1.0000
  H   H498      1.0  0.17035  0.78304  0.54097  1.0000
  H   H499      1.0  0.17895  0.78416  0.51324  1.0000
  H   H500      1.0  0.20090  0.78545  0.53239  1.0000
  H   H501      1.0  0.15263  0.84368  0.52201  1.0000
  H   H502      1.0  0.14248  0.81709  0.53536  1.0000
  H   H503      1.0  0.15086  0.81763  0.50762  1.0000
  H   H504      1.0  0.18257  0.84563  0.54877  1.0000
  H   H505      1.0  0.20359  0.82189  0.55266  1.0000
  C   C323      1.0  0.16904  0.92479  0.40569  1.0000
  H   H506      1.0  0.19263  0.56865  0.46855  1.0000
  H   H507      1.0  0.27269  0.00190  0.40217  1.0000
  C   C324      1.0  0.15929  0.53632  0.47348  1.0000
  H   H508      1.0  0.11957  0.94680  0.49194  1.0000
  S   S133      1.0  0.22296  0.58026  0.56195  1.0000
  H   H509      1.0  0.16339  0.53741  0.51544  1.0000
  H   H510      1.0  0.15876  0.92028  0.45075  1.0000
  H   H511      1.0  0.15001  0.74794  0.40950  1.0000
  H   H512      1.0  0.17612  0.59158  0.48179  1.0000
  C   C325      1.0  0.28566  0.61087  0.57455  1.0000
  H   H513      1.0  0.26206  0.57350  0.58857  1.0000
  H   H514      1.0  0.10503  0.76274  0.42565  1.0000
  H   H515      1.0  0.14049  0.91477  0.47411  1.0000
  H   H516      1.0  0.39616  0.89399  0.59284  1.0000
  H   H517      1.0  0.29952  0.98767  0.41059  1.0000
  C   C326      1.0  0.02816  0.64028  0.43661  1.0000
  H   H518      1.0  0.12639  0.55449  0.50112  1.0000
  H   H519      1.0  0.17448  0.59272  0.41448  1.0000
  C   C327      1.0  0.15055  0.56414  0.41651  1.0000
  Fe  Fe68      1.0  0.21323  0.55970  0.59252  1.0000
  H   H520      1.0  0.13120  0.53229  0.41613  1.0000
  H   H521      1.0  0.24108  0.61261  0.59110  1.0000
  C   C328      1.0  0.16603  0.52763  0.40143  1.0000
  S   S134      1.0  0.18069  0.94613  0.59567  1.0000
  H   H522      1.0  0.20682  0.56996  0.39587  1.0000
  H   H523      1.0  0.37252  0.59150  0.76360  1.0000
  Fe  Fe69      1.0  0.14228  0.60680  0.76442  1.0000
  S   S135      1.0  0.16704  0.58455  0.74421  1.0000
  C   C329      1.0  0.50282  0.88107  0.72417  1.0000
  S   S136      1.0  0.16797  0.85706  0.72111  1.0000
  Fe  Fe70      1.0  0.36192  0.63036  0.72992  1.0000
  S   S137      1.0  0.38354  0.60027  0.71689  1.0000
  S   S138      1.0  0.33383  0.62524  0.75631  1.0000
  Fe  Fe71      1.0  0.38238  0.66578  0.69660  1.0000
  S   S139      1.0  0.40491  0.63794  0.68053  1.0000
  S   S140      1.0  0.38413  0.70283  0.68170  1.0000
  Fe  Fe72      1.0  0.37288  0.61550  0.68518  1.0000
  S   S141      1.0  0.36065  0.59160  0.66049  1.0000
  Fe  Fe73      1.0  0.41323  0.62546  0.71356  1.0000
  S   S142      1.0  0.44898  0.61662  0.72656  1.0000
  S   S143      1.0  0.34976  0.64439  0.69835  1.0000
  S   S144      1.0  0.39232  0.65451  0.72948  1.0000
  Fe  Fe74      1.0  0.42374  0.86707  0.69341  1.0000
  S   S145      1.0  0.41656  0.85850  0.72809  1.0000
  S   S146      1.0  0.45930  0.87279  0.67625  1.0000
  Fe  Fe75      1.0  0.37213  0.86119  0.68327  1.0000
  S   S147      1.0  0.36099  0.85128  0.71712  1.0000
  S   S148      1.0  0.34804  0.86205  0.65577  1.0000
  Fe  Fe76      1.0  0.38359  0.88098  0.72473  1.0000
  S   S149      1.0  0.37071  0.91098  0.74460  1.0000
  Fe  Fe77      1.0  0.39481  0.82938  0.71748  1.0000
  S   S150      1.0  0.40060  0.79311  0.73336  1.0000
  S   S151      1.0  0.39264  0.89220  0.69075  1.0000
  S   S152      1.0  0.40406  0.83661  0.68301  1.0000
  H   H524      1.0  0.30312  0.54037  0.74123  1.0000
  Fe  Fe78      1.0  0.17962  0.55349  0.63117  1.0000
  C   C330      1.0  0.14181  0.99525  0.61059  1.0000
  S   S153      1.0  0.14649  0.56507  0.64953  1.0000
  Fe  Fe79      1.0  0.23244  0.54710  0.63583  1.0000
  S   S154      1.0  0.25588  0.55668  0.66188  1.0000
  C   C331      1.0  0.22354  0.60004  0.76202  1.0000
  S   S155      1.0  0.20973  0.57724  0.62351  1.0000
  H   H525      1.0  0.11636  0.66180  0.71828  1.0000
  Fe  Fe80      1.0  0.18999  0.94400  0.62964  1.0000
  S   S156      1.0  0.21473  0.97387  0.62537  1.0000
  S   S157      1.0  0.16280  0.94605  0.65697  1.0000
  H   H526      1.0  0.17059  0.99784  0.64288  1.0000
  Fe  Fe81      1.0  0.24253  0.94550  0.61892  1.0000
  S   S158      1.0  0.27580  0.94763  0.63699  1.0000
  H   H527      1.0  0.12860  0.77827  0.75960  1.0000
  H   H528      1.0  0.49478  0.69518  0.67659  1.0000
  S   S159      1.0  0.21801  0.91561  0.62522  1.0000
  H   H529      1.0  0.45129  0.77646  0.73489  1.0000
  C   C332      1.0  0.44397  0.68275  0.70515  1.0000
  H   H530      1.0  0.29842  0.63183  0.60912  1.0000
  C   C333      1.0  0.48453  0.87460  0.69122  1.0000
  C   C334      1.0  0.48249  0.87942  0.71270  1.0000
  H   H531      1.0  0.32852  0.54525  0.75590  1.0000
  S   S160      1.0  0.16525  0.83930  0.78215  1.0000
  C   C335      1.0  0.50706  0.87103  0.68144  1.0000
  H   H532      1.0  0.46527  0.88250  0.72036  1.0000
  H   H533      1.0  0.36738  0.55093  0.73685  1.0000
  H   H534      1.0  0.33919  0.58125  0.70615  1.0000
  C   C336      1.0  0.32759  0.88568  0.65120  1.0000
  C   C337      1.0  0.31049  0.88366  0.63626  1.0000
  C   C338      1.0  0.29447  0.90245  0.63171  1.0000
  C   C339      1.0  0.29579  0.92363  0.64176  1.0000
  C   C340      1.0  0.31309  0.92573  0.65651  1.0000
  C   C341      1.0  0.32867  0.90674  0.66147  1.0000
  H   H535      1.0  0.30959  0.86744  0.62819  1.0000
  H   H536      1.0  0.28128  0.90063  0.62028  1.0000
  H   H537      1.0  0.31428  0.94207  0.66432  1.0000
  H   H538      1.0  0.34169  0.90852  0.67306  1.0000
  C   C342      1.0  0.38762  0.72764  0.69676  1.0000
  C   C343      1.0  0.38619  0.75016  0.68666  1.0000
  C   C344      1.0  0.38981  0.77034  0.69780  1.0000
  C   C345      1.0  0.39522  0.76814  0.71910  1.0000
  C   C346      1.0  0.39695  0.74560  0.72918  1.0000
  C   C347      1.0  0.39301  0.72540  0.71810  1.0000
  H   H539      1.0  0.38204  0.75204  0.67015  1.0000
  H   H540      1.0  0.38824  0.78756  0.68989  1.0000
  H   H541      1.0  0.40100  0.74376  0.74570  1.0000
  H   H542      1.0  0.39407  0.70818  0.72610  1.0000
  C   C348      1.0  0.47628  0.62022  0.71216  1.0000
  C   C349      1.0  0.47808  0.62180  0.68999  1.0000
  N   N32       1.0  0.47283  0.80623  0.72683  1.0000
  C   C350      1.0  0.49672  0.62156  0.72339  1.0000
  H   H543      1.0  0.46254  0.62010  0.68118  1.0000
  H   H544      1.0  0.49553  0.62004  0.74053  1.0000
  C   C351      1.0  0.33086  0.58417  0.65913  1.0000
  C   C352      1.0  0.31299  0.59424  0.67213  1.0000
  C   C353      1.0  0.28994  0.58606  0.67235  1.0000
  C   C354      1.0  0.28430  0.56836  0.65903  1.0000
  C   C355      1.0  0.30193  0.55895  0.64536  1.0000
  C   C356      1.0  0.32512  0.56681  0.64545  1.0000
  H   H545      1.0  0.31704  0.60795  0.68242  1.0000
  H   H546      1.0  0.27643  0.59336  0.68304  1.0000
  S   S161      1.0  0.18051  0.53889  0.59875  1.0000
  H   H547      1.0  0.33886  0.55887  0.63538  1.0000
  C   C357      1.0  0.16505  0.88177  0.70347  1.0000
  C   C358      1.0  0.17330  0.87991  0.68233  1.0000
  C   C359      1.0  0.17225  0.89947  0.66794  1.0000
  C   C360      1.0  0.16306  0.92109  0.67461  1.0000
  C   C361      1.0  0.15462  0.92298  0.69572  1.0000
  C   C362      1.0  0.15559  0.90333  0.71015  1.0000
  H   H548      1.0  0.18062  0.86326  0.67708  1.0000
  H   H549      1.0  0.17843  0.89773  0.65162  1.0000
  H   H550      1.0  0.14768  0.93974  0.70103  1.0000
  H   H551      1.0  0.14948  0.90501  0.72649  1.0000
  C   C363      1.0  0.16067  0.57974  0.71795  1.0000
  C   C364      1.0  0.13782  0.58264  0.71092  1.0000
  C   C365      1.0  0.13346  0.57817  0.68984  1.0000
  C   C366      1.0  0.15199  0.57113  0.67575  1.0000
  C   C367      1.0  0.17484  0.56874  0.68277  1.0000
  C   C368      1.0  0.17912  0.57282  0.70383  1.0000
  H   H552      1.0  0.12345  0.58776  0.72182  1.0000
  H   H553      1.0  0.11572  0.58002  0.68448  1.0000
  H   H554      1.0  0.18933  0.56366  0.67202  1.0000
  H   H555      1.0  0.19685  0.57063  0.70915  1.0000
  H   H556      1.0  0.48841  0.69812  0.70455  1.0000
  C   C369      1.0  0.15109  0.68167  0.69400  1.0000
  H   H557      1.0  0.37921  0.90890  0.64810  1.0000
  C   C370      1.0  0.36710  0.90690  0.77230  1.0000
  H   H558      1.0  0.41218  0.92000  0.59643  1.0000
  H   H559      1.0  0.43342  0.68303  0.66437  1.0000
  H   H560      1.0  0.16986  0.68576  0.69012  1.0000
  H   H561      1.0  0.20686  0.61088  0.76263  1.0000
  H   H562      1.0  0.37633  0.86985  0.77359  1.0000
  H   H563      1.0  0.42483  0.68535  0.70285  1.0000
  C   C371      1.0  0.29531  0.61264  0.61119  1.0000
  S   S162      1.0  0.23814  0.53084  0.60418  1.0000
  C   C372      1.0  0.33714  0.60112  0.77452  1.0000
  C   C373      1.0  0.35794  0.58729  0.77469  1.0000
  C   C374      1.0  0.50020  0.62507  0.67921  1.0000
  S   S163      1.0  0.06667  0.88140  0.76561  1.0000
  H   H564      1.0  0.15689  0.65908  0.73142  1.0000
  S   S164      1.0  0.11627  0.83475  0.75808  1.0000
  H   H565      1.0  0.38407  0.92991  0.62630  1.0000
  C   C375      1.0  0.26723  0.89788  0.78972  1.0000
  H   H566      1.0  0.14492  0.69230  0.70768  1.0000
  C   C376      1.0  0.35979  0.92622  0.78414  1.0000
  C   C377      1.0  0.51875  0.62485  0.71266  1.0000
  H   H567      1.0  0.45529  0.72750  0.69823  1.0000
  H   H568      1.0  0.27399  0.90512  0.77396  1.0000
  C   C378      1.0  0.36033  0.54276  0.72298  1.0000
  S   S165      1.0  0.13402  0.88750  0.77004  1.0000
  H   H569      1.0  0.15487  0.62341  0.68412  1.0000
  C   C379      1.0  0.16549  0.01474  0.63437  1.0000
  C   C380      1.0  0.03722  0.61437  0.77013  1.0000
  H   H570      1.0  0.47751  0.77011  0.71874  1.0000
  H   H571      1.0  0.48806  0.66990  0.69357  1.0000
  H   H572      1.0  0.44130  0.80877  0.70951  1.0000
  H   H573      1.0  0.22282  0.58874  0.74823  1.0000
  H   H574      1.0  0.36476  0.52356  0.72439  1.0000
  N   N33       1.0  0.45813  0.69259  0.68672  1.0000
  C   C381      1.0  0.12456  0.00806  0.64389  1.0000
  H   H575      1.0  0.20962  0.93050  0.67724  1.0000
  C   C382      1.0  0.03843  0.87183  0.77499  1.0000
  C   C383      1.0  0.46023  0.81309  0.70755  1.0000
  H   H576      1.0  0.44776  0.69112  0.72002  1.0000
  H   H577      1.0  0.23835  0.61220  0.75876  1.0000
  Fe  Fe82      1.0  0.13106  0.82123  0.78859  1.0000
  N   N34       1.0  0.33466  0.54736  0.72201  1.0000
  H   H578      1.0  0.25873  0.88095  0.78743  1.0000
  H   H579      1.0  0.35735  0.94339  0.77623  1.0000
  H   H580      1.0  0.46281  0.68756  0.65326  1.0000
  H   H581      1.0  0.14598  0.64746  0.66657  1.0000
  H   H582      1.0  0.46339  0.72621  0.67034  1.0000
  H   H583      1.0  0.28957  0.60884  0.62810  1.0000
  H   H584      1.0  0.46441  0.83897  0.74143  1.0000
  N   N35       1.0  0.08492  0.88513  0.70127  1.0000
  C   C384      1.0  0.09871  0.90369  0.68967  1.0000
  C   C385      1.0  0.06342  0.89577  0.71152  1.0000
  C   C386      1.0  0.09928  0.87325  0.71765  1.0000
  C   C387      1.0  0.07831  0.86768  0.68635  1.0000
  H   H585      1.0  0.11517  0.89621  0.68191  1.0000
  H   H586      1.0  0.10397  0.91708  0.70057  1.0000
  H   H587      1.0  0.08849  0.91303  0.67711  1.0000
  H   H588      1.0  0.05266  0.88215  0.72044  1.0000
  H   H589      1.0  0.06781  0.90862  0.72328  1.0000
  H   H590      1.0  0.05210  0.90509  0.69977  1.0000
  H   H591      1.0  0.08917  0.85938  0.72683  1.0000
  H   H592      1.0  0.50635  0.80152  0.70979  1.0000
  H   H593      1.0  0.11565  0.86477  0.71066  1.0000
  H   H594      1.0  0.06796  0.85339  0.69471  1.0000
  H   H595      1.0  0.09420  0.85925  0.67846  1.0000
  H   H596      1.0  0.06739  0.87598  0.67376  1.0000
  C   C388      1.0  0.47022  0.78078  0.73195  1.0000
  H   H597      1.0  0.43367  0.72125  0.67997  1.0000
  C   C389      1.0  0.45246  0.71805  0.68370  1.0000
  C   C390      1.0  0.48344  0.68888  0.69049  1.0000
  H   H598      1.0  0.29795  0.54486  0.63543  1.0000
  C   C391      1.0  0.12892  0.76118  0.76793  1.0000
  H   H599      1.0  0.33543  0.54362  0.68834  1.0000
  C   C392      1.0  0.32617  0.53658  0.70321  1.0000
  S   S166      1.0  0.10921  0.62795  0.75746  1.0000
  H   H600      1.0  0.12714  0.74196  0.73959  1.0000
  Fe  Fe83      1.0  0.14881  0.85601  0.75336  1.0000
  H   H601      1.0  0.42728  0.89170  0.59655  1.0000
  C   C393      1.0  0.45248  0.68064  0.66753  1.0000
  C   C394      1.0  0.46269  0.81966  0.74471  1.0000
  H   H602      1.0  0.50050  0.83047  0.71895  1.0000
  S   S167      1.0  0.12739  0.69276  0.75274  1.0000
  C   C395      1.0  0.49805  0.81142  0.72311  1.0000
  N   N36       1.0  0.14175  0.01374  0.62615  1.0000
  H   H603      1.0  0.26695  0.57502  0.61621  1.0000
  H   H604      1.0  0.31062  0.57730  0.71903  1.0000
  H   H605      1.0  0.12435  0.99423  0.60369  1.0000
  H   H606      1.0  0.42220  0.90574  0.65334  1.0000
  N   N37       1.0  0.22619  0.58572  0.78197  1.0000
  N   N38       1.0  0.14823  0.65623  0.69907  1.0000
  H   H607      1.0  0.45642  0.66138  0.66925  1.0000
  N   N39       1.0  0.27760  0.60534  0.59681  1.0000
  C   C396      1.0  0.15645  0.64268  0.68061  1.0000
  C   C397      1.0  0.12850  0.71831  0.76730  1.0000
  H   H608      1.0  0.11197  0.65715  0.69097  1.0000
  H   H609      1.0  0.17528  0.64579  0.67599  1.0000
  H   H610      1.0  0.24877  0.55940  0.76745  1.0000
  C   C398      1.0  0.12811  0.74059  0.75663  1.0000
  H   H611      1.0  0.37004  0.55011  0.70846  1.0000
  H   H612      1.0  0.12029  0.63278  0.70847  1.0000
  H   H613      1.0  0.38915  0.86492  0.62287  1.0000
  C   C399      1.0  0.12311  0.65178  0.70441  1.0000
  C   C400      1.0  0.24418  0.89756  0.67459  1.0000
  C   C401      1.0  0.16225  0.64881  0.71738  1.0000
  H   H614      1.0  0.15994  0.62991  0.72209  1.0000
  C   C402      1.0  0.22778  0.90450  0.70977  1.0000
  H   H615      1.0  0.44232  0.89834  0.63195  1.0000
  H   H616      1.0  0.22466  0.91727  0.72243  1.0000
  H   H617      1.0  0.50154  0.62618  0.66207  1.0000
  H   H618      1.0  0.18137  0.65138  0.71381  1.0000
  C   C403      1.0  0.32972  0.57301  0.72033  1.0000
  H   H619      1.0  0.14074  0.68794  0.68026  1.0000
  H   H620      1.0  0.20465  0.55855  0.77174  1.0000
  H   H621      1.0  0.50106  0.88529  0.74066  1.0000
  N   N40       1.0  0.40574  0.89813  0.62475  1.0000
  H   H622      1.0  0.27341  0.93202  0.68325  1.0000
  H   H623      1.0  0.30230  0.60628  0.78896  1.0000
  H   H624      1.0  0.42033  0.86268  0.62698  1.0000
  H   H625      1.0  0.46790  0.80406  0.69349  1.0000
  H   H626      1.0  0.50881  0.86729  0.66483  1.0000
  H   H627      1.0  0.44752  0.66350  0.70770  1.0000
  N   N41       1.0  0.24068  0.91516  0.69093  1.0000
  C   C404      1.0  0.13008  0.75957  0.78999  1.0000
  H   H628      1.0  0.25332  0.90521  0.65996  1.0000
  H   H629      1.0  0.14626  0.97761  0.61807  1.0000
  H   H630      1.0  0.27525  0.90776  0.70240  1.0000
  H   H631      1.0  0.21027  0.89849  0.70575  1.0000
  H   H632      1.0  0.33552  0.58175  0.73435  1.0000
  C   C405      1.0  0.26380  0.92291  0.69693  1.0000
  Fe  Fe84      1.0  0.12742  0.65766  0.77124  1.0000
  H   H633      1.0  0.24836  0.61424  0.61821  1.0000
  H   H634      1.0  0.26397  0.58305  0.77798  1.0000
  H   H635      1.0  0.39969  0.87013  0.64814  1.0000
  H   H636      1.0  0.47947  0.77495  0.74645  1.0000
  H   H637      1.0  0.23759  0.88885  0.71654  1.0000
  H   H638      1.0  0.25508  0.88208  0.68020  1.0000
  H   H639      1.0  0.23634  0.94431  0.66825  1.0000
  H   H640      1.0  0.22363  0.94924  0.69431  1.0000
  H   H641      1.0  0.26188  0.93554  0.70979  1.0000
  C   C406      1.0  0.03596  0.61131  0.79222  1.0000
  H   H642      1.0  0.12907  0.99073  0.65200  1.0000
  H   H643      1.0  0.50813  0.80681  0.73742  1.0000
  C   C407      1.0  0.40372  0.87284  0.63084  1.0000
  C   C408      1.0  0.42523  0.90773  0.63582  1.0000
  H   H644      1.0  0.22708  0.89098  0.67001  1.0000
  C   C409      1.0  0.22695  0.93571  0.68236  1.0000
  C   C410      1.0  0.24850  0.57161  0.78064  1.0000
  Fe  Fe85      1.0  0.09749  0.61836  0.79134  1.0000
  C   C411      1.0  0.37057  0.88481  0.78263  1.0000
  Fe  Fe86      1.0  0.10173  0.86550  0.77610  1.0000
  H   H645      1.0  0.05418  0.61579  0.76165  1.0000
  H   H646      1.0  0.46097  0.83232  0.70376  1.0000
  H   H647      1.0  0.47163  0.81484  0.75960  1.0000
  H   H648      1.0  0.36824  0.90363  0.62297  1.0000
  C   C412      1.0  0.41058  0.90109  0.60160  1.0000
  H   H649      1.0  0.10462  0.88584  0.72925  1.0000
  C   C413      1.0  0.38340  0.91076  0.63073  1.0000
  H   H650      1.0  0.42737  0.92679  0.63164  1.0000
  H   H651      1.0  0.44359  0.81628  0.74782  1.0000
  S   S168      1.0  0.16120  0.63713  0.77588  1.0000
  C   C414      1.0  0.20620  0.56981  0.78544  1.0000
  C   C415      1.0  0.31845  0.59566  0.78910  1.0000
  C   C416      1.0  0.12979  0.71673  0.78933  1.0000
  H   H652      1.0  0.31338  0.88508  0.78110  1.0000
  H   H653      1.0  0.30699  0.54031  0.70153  1.0000
  C   C417      1.0  0.32251  0.53726  0.74148  1.0000
  C   C418      1.0  0.25492  0.61799  0.60151  1.0000
  H   H654      1.0  0.17906  0.01807  0.62130  1.0000
  H   H655      1.0  0.18915  0.57988  0.78751  1.0000
  H   H656      1.0  0.25656  0.63737  0.59903  1.0000
  H   H657      1.0  0.31255  0.60311  0.60839  1.0000
  C   C419      1.0  0.27437  0.57974  0.59996  1.0000
  H   H658      1.0  0.10645  0.00710  0.63827  1.0000
  H   H659      1.0  0.37639  0.55785  0.78994  1.0000
  S   S169      1.0  0.20183  0.52419  0.64531  1.0000
  C   C420      1.0  0.03509  0.85793  0.79375  1.0000
  C   C421      1.0  0.36013  0.56830  0.78964  1.0000
  H   H660      1.0  0.29714  0.86079  0.79316  1.0000
  H   H661      1.0  0.15500  0.99863  0.59719  1.0000
  H   H662      1.0  0.30620  0.92443  0.79231  1.0000
  H   H663      1.0  0.25103  0.56072  0.79559  1.0000
  C   C422      1.0  0.52063  0.62674  0.69052  1.0000
  H   H664      1.0  0.11809  0.52181  0.63887  1.0000
  H   H665      1.0  0.29130  0.56957  0.59761  1.0000
  H   H666      1.0  0.02097  0.89012  0.74923  1.0000
  H   H667      1.0  0.25323  0.91037  0.79578  1.0000
  Fe  Fe87      1.0  0.30729  0.56787  0.89195  1.0000
  S   S170      1.0  0.28186  0.54102  0.90533  1.0000
  S   S171      1.0  0.31252  0.60116  0.90876  1.0000
  Fe  Fe88      1.0  0.32100  0.54000  0.85332  1.0000
  Fe  Fe89      1.0  0.14576  0.62588  0.80794  1.0000
  S   S172      1.0  0.34544  0.54019  0.82388  1.0000
  Fe  Fe90      1.0  0.27105  0.53938  0.87173  1.0000
  C   C423      1.0  0.34162  0.56317  0.80455  1.0000
  S   S173      1.0  0.11394  0.85035  0.80725  1.0000
  S   S174      1.0  0.29390  0.56879  0.85920  1.0000
  S   S175      1.0  0.33640  0.54159  0.88505  1.0000
  Fe  Fe91      1.0  0.30020  0.93448  0.90115  1.0000
  S   S176      1.0  0.28433  0.96906  0.88889  1.0000
  S   S177      1.0  0.29434  0.92306  0.93570  1.0000
  Fe  Fe92      1.0  0.32663  0.92499  0.85921  1.0000
  S   S178      1.0  0.31374  0.95923  0.84421  1.0000
  S   S179      1.0  0.34900  0.89655  0.84339  1.0000
  Fe  Fe93      1.0  0.32091  0.97539  0.87497  1.0000
  H   H668      1.0  0.37004  0.87926  0.93368  1.0000
  Fe  Fe94      1.0  0.27837  0.94952  0.85945  1.0000
  S   S180      1.0  0.24806  0.95271  0.83708  1.0000
  S   S181      1.0  0.33686  0.94161  0.88848  1.0000
  S   S182      1.0  0.29113  0.91454  0.87316  1.0000
  H   H669      1.0  0.31864  0.87447  0.80762  1.0000
  H   H670      1.0  0.28334  0.93119  0.81191  1.0000
  C   C424      1.0  0.09941  0.62740  0.85624  1.0000
  H   H671      1.0  0.30777  0.84089  0.98556  1.0000
  S   S183      1.0  0.16746  0.62515  0.83693  1.0000
  H   H672      1.0  0.07044  0.60825  0.88683  1.0000
  H   H673      1.0  0.12759  0.59165  0.84308  1.0000
  S   S184      1.0  0.12904  0.59412  0.79692  1.0000
  H   H674      1.0  0.16716  0.78612  0.87264  1.0000
  C   C425      1.0  0.37968  0.95313  0.92454  1.0000
  H   H675      1.0  0.31338  0.01535  0.91525  1.0000
  S   S185      1.0  0.16718  0.87940  0.82826  1.0000
  H   H676      1.0  0.35713  0.63077  0.96527  1.0000
  C   C426      1.0  0.11781  0.60261  0.88313  1.0000
  H   H677      1.0  0.13572  0.60788  0.87691  1.0000
  H   H678      1.0  0.34099  0.89546  0.99556  1.0000
  C   C427      1.0  0.22649  0.60140  0.79984  1.0000
  H   H679      1.0  0.36023  0.54714  0.95702  1.0000
  H   H680      1.0  0.11972  0.58461  0.89075  1.0000
  H   H681      1.0  0.15072  0.80323  0.89185  1.0000
  S   S186      1.0  0.39999  0.60101  0.96639  1.0000
  C   C428      1.0  0.35537  0.92344  0.80615  1.0000
  H   H682      1.0  0.20968  0.61192  0.80175  1.0000
  S   S187      1.0  0.38190  0.87054  0.97659  1.0000
  H   H683      1.0  0.39854  0.95032  0.92808  1.0000
  C   C429      1.0  0.37799  0.99192  0.93830  1.0000
  H   H684      1.0  0.30611  0.57252  0.81510  1.0000
  C   C430      1.0  0.10980  0.58687  0.84975  1.0000
  H   H685      1.0  0.35364  0.83633  0.95857  1.0000
  H   H686      1.0  0.06481  0.59658  0.86182  1.0000
  H   H687      1.0  0.37906  0.96076  0.90797  1.0000
  H   H688      1.0  0.34494  0.58139  0.85103  1.0000
  C   C431      1.0  0.22614  0.93171  0.83462  1.0000
  C   C432      1.0  0.22127  0.91421  0.85045  1.0000
  C   C433      1.0  0.20336  0.89820  0.84808  1.0000
  C   C434      1.0  0.19039  0.89922  0.82973  1.0000
  C   C435      1.0  0.19562  0.91638  0.81367  1.0000
  C   C436      1.0  0.21321  0.93270  0.81624  1.0000
  H   H689      1.0  0.23090  0.91337  0.86475  1.0000
  H   H690      1.0  0.19934  0.88515  0.86068  1.0000
  H   H691      1.0  0.39672  0.99057  0.94252  1.0000
  H   H692      1.0  0.34963  0.93844  0.81507  1.0000
  N   N42       1.0  0.36293  0.61401  0.84865  1.0000
  C   C437      1.0  0.31869  0.90857  0.94713  1.0000
  C   C438      1.0  0.32024  0.90739  0.96922  1.0000
  C   C439      1.0  0.33989  0.89630  0.97851  1.0000
  C   C440      1.0  0.35783  0.88606  0.96569  1.0000
  C   C441      1.0  0.35625  0.88727  0.94365  1.0000
  C   C442      1.0  0.33678  0.89854  0.93438  1.0000
  H   H693      1.0  0.30627  0.91519  0.97913  1.0000
  H   H694      1.0  0.29037  0.52892  0.97846  1.0000
  H   H695      1.0  0.13175  0.78493  0.85149  1.0000
  H   H696      1.0  0.33556  0.89905  0.91737  1.0000
  H   H697      1.0  0.36835  0.86484  0.81261  1.0000
  C   C443      1.0  0.21585  0.56146  0.85420  1.0000
  C   C444      1.0  0.19589  0.55861  0.84262  1.0000
  C   C445      1.0  0.18118  0.57804  0.83692  1.0000
  C   C446      1.0  0.18587  0.60043  0.84341  1.0000
  C   C447      1.0  0.20552  0.60323  0.85542  1.0000
  C   C448      1.0  0.22068  0.58389  0.86054  1.0000
  H   H698      1.0  0.33209  0.98343  0.94541  1.0000
  H   H699      1.0  0.36404  0.61297  0.81465  1.0000
  H   H700      1.0  0.20923  0.62047  0.86060  1.0000
  H   H701      1.0  0.23590  0.58625  0.86964  1.0000
  H   H702      1.0  0.32952  0.61847  0.86589  1.0000
  C   C449      1.0  0.33746  0.60209  0.92395  1.0000
  C   C450      1.0  0.35676  0.58662  0.92063  1.0000
  C   C451      1.0  0.37609  0.58697  0.93340  1.0000
  C   C452      1.0  0.37614  0.60255  0.94980  1.0000
  C   C453      1.0  0.35709  0.61845  0.95286  1.0000
  C   C454      1.0  0.33786  0.61833  0.93982  1.0000
  H   H703      1.0  0.35695  0.57440  0.90822  1.0000
  H   H704      1.0  0.39093  0.57484  0.93082  1.0000
  H   H705      1.0  0.32308  0.63053  0.94236  1.0000
  H   H706      1.0  0.09778  0.58711  0.83640  1.0000
  H   H707      1.0  0.36050  0.94033  0.96286  1.0000
  N   N43       1.0  0.14839  0.81638  0.85955  1.0000
  C   C455      1.0  0.14139  0.84054  0.86544  1.0000
  C   C456      1.0  0.16159  0.80437  0.87668  1.0000
  C   C457      1.0  0.16353  0.81745  0.83980  1.0000
  H   H708      1.0  0.13155  0.85015  0.85272  1.0000
  H   H709      1.0  0.15703  0.85112  0.86786  1.0000
  H   H710      1.0  0.12991  0.84052  0.88024  1.0000
  H   H711      1.0  0.17777  0.81395  0.87952  1.0000
  C   C458      1.0  0.29686  0.91762  0.80719  1.0000
  H   H712      1.0  0.17964  0.82755  0.84154  1.0000
  H   H713      1.0  0.15408  0.82639  0.82660  1.0000
  H   H714      1.0  0.11687  0.81171  0.84322  1.0000
  C   C459      1.0  0.38724  0.62211  0.84934  1.0000
  C   C460      1.0  0.34793  0.62459  0.86569  1.0000
  H   H715      1.0  0.39899  0.61441  0.83665  1.0000
  H   H716      1.0  0.39484  0.61689  0.86483  1.0000
  H   H717      1.0  0.38787  0.64161  0.84716  1.0000
  H   H718      1.0  0.35459  0.61971  0.88161  1.0000
  H   H719      1.0  0.34716  0.64414  0.86385  1.0000
  N   N44       1.0  0.36710  0.96864  0.93973  1.0000
  H   H720      1.0  0.24105  0.61398  0.79759  1.0000
  H   H721      1.0  0.36848  0.00442  0.94901  1.0000
  H   H722      1.0  0.37761  0.00008  0.92192  1.0000
  H   H723      1.0  0.09274  0.64028  0.86793  1.0000
  H   H724      1.0  0.11123  0.56843  0.85644  1.0000
  C   C461      1.0  0.33333  0.53671  0.99200  1.0000
  H   H725      1.0  0.51009  0.61719  0.98392  1.0000
  C   C462      1.0  0.32065  0.57669  0.80404  1.0000
  H   H726      1.0  0.51449  0.69800  0.98005  1.0000
  H   H727      1.0  0.38712  0.95542  0.96594  1.0000
  N   N45       1.0  0.28634  0.89467  0.80459  1.0000
  C   C463      1.0  0.07762  0.59621  0.87459  1.0000
  C   C464      1.0  0.12711  0.80318  0.85621  1.0000
  H   H728      1.0  0.16609  0.57557  0.82775  1.0000
  S   S188      1.0  0.06172  0.60943  0.80684  1.0000
  C   C465      1.0  0.13054  0.73729  0.80062  1.0000
  H   H729      1.0  0.35360  0.64057  0.82476  1.0000
  H   H730      1.0  0.33325  0.95441  0.93569  1.0000
  C   C466      1.0  0.34214  0.97153  0.93455  1.0000
  H   H731      1.0  0.11195  0.61485  0.89566  1.0000
  H   H732      1.0  0.32523  0.82745  0.95189  1.0000
  H   H733      1.0  0.29914  0.52866  0.95071  1.0000
  C   C467      1.0  0.35352  0.62115  0.82787  1.0000
  H   H734      1.0  0.19194  0.54125  0.83785  1.0000
  H   H735      1.0  0.05009  0.85229  0.80273  1.0000
  H   H736      1.0  0.11519  0.80200  0.87073  1.0000
  H   H737      1.0  0.35902  0.96907  0.97330  1.0000
  H   H738      1.0  0.33504  0.61564  0.82703  1.0000
  C   C468      1.0  0.35797  0.90124  0.81642  1.0000
  C   C469      1.0  0.36298  0.58810  0.85171  1.0000
  H   H739      1.0  0.22898  0.59113  0.81506  1.0000
  H   H740      1.0  0.37171  0.93550  0.92496  1.0000
  H   H741      1.0  0.36969  0.58201  0.86733  1.0000
  N   N46       1.0  0.10115  0.60327  0.86597  1.0000
  H   H742      1.0  0.36701  0.79252  0.98547  1.0000
  H   H743      1.0  0.07821  0.57802  0.88197  1.0000
  H   H744      1.0  0.37413  0.57938  0.83917  1.0000
  H   H745      1.0  0.11692  0.63335  0.84970  1.0000
  C   C470      1.0  0.36853  0.95795  0.96144  1.0000
  H   H746      1.0  0.13148  0.73590  0.81766  1.0000
  H   H747      1.0  0.08721  0.62844  0.84300  1.0000
  C   C471      1.0  0.34484  0.53621  0.95470  1.0000
  H   H748      1.0  0.13025  0.69969  0.79770  1.0000
  H   H749      1.0  0.34042  0.97905  0.91810  1.0000
  C   C472      1.0  0.36615  0.88204  0.80471  1.0000
  N   N47       1.0  0.32522  0.54116  0.97031  1.0000
  S   S189      1.0  0.11357  0.64960  0.80453  1.0000
  H   H750      1.0  0.16894  0.79956  0.83463  1.0000
  H   H751      1.0  0.21671  0.94631  0.80399  1.0000
  S   S190      1.0  0.34272  0.00826  0.87631  1.0000
  S   S191      1.0  0.23417  0.53656  0.86024  1.0000
  H   H752      1.0  0.33168  0.57815  0.96970  1.0000
  H   H753      1.0  0.29093  0.88185  0.83671  1.0000
  H   H754      1.0  0.34990  0.80671  0.95150  1.0000
  C   C473      1.0  0.31718  0.56604  0.96745  1.0000
  H   H755      1.0  0.33943  0.53991  0.93816  1.0000
  H   H756      1.0  0.30972  0.91623  0.81978  1.0000
  H   H757      1.0  0.26760  0.86852  0.82400  1.0000
  C   C474      1.0  0.34131  0.82151  0.96016  1.0000
  H   H758      1.0  0.30313  0.79894  0.97643  1.0000
  C   C475      1.0  0.27672  0.88528  0.82539  1.0000
  H   H759      1.0  0.31088  0.57006  0.95125  1.0000
  S   S192      1.0  0.13094  0.78487  0.80489  1.0000
  H   H760      1.0  0.18561  0.91755  0.79959  1.0000
  H   H761      1.0  0.26388  0.89804  0.83271  1.0000
  Fe  Fe95      1.0  0.14792  0.86915  0.79956  1.0000
  C   C476      1.0  0.30554  0.52572  0.96700  1.0000
  C   C477      1.0  0.31994  0.79437  0.98410  1.0000
  H   H762      1.0  0.30246  0.57050  0.97900  1.0000
  H   H763      1.0  0.20817  0.55792  0.79979  1.0000
  H   H764      1.0  0.32832  0.77889  0.97623  1.0000
  N   N48       1.0  0.33573  0.81453  0.98268  1.0000
  H   H765      1.0  0.34812  0.54824  0.99499  1.0000
  C   C478      1.0  0.35773  0.80767  0.99309  1.0000
  H   H766      1.0  0.37017  0.82242  0.99221  1.0000
  H   H767      1.0  0.39380  0.75714  0.99486  1.0000
  C   C479      1.0  0.32402  0.83457  0.99341  1.0000
  Fe  Fe96      1.0  0.39834  0.62228  0.99560  1.0000
  H   H768      1.0  0.33584  0.84973  0.99321  1.0000
  C   C480      1.0  0.30461  0.87801  0.79618  1.0000
  H   H769      1.0  0.63289  0.47410  0.08474  1.0000
  H   H770      1.0  0.72522  0.02855  0.00688  1.0000
  C   C481      1.0  0.72186  0.34003  0.07728  1.0000
  C   C482      1.0  0.53261  0.08347  0.02122  1.0000
  C   C483      1.0  0.57236  0.23493  0.99725  1.0000
  H   H771      1.0  0.74544  0.38008  0.08009  1.0000
  H   H772      1.0  0.86562  0.20740  0.17246  1.0000
  C   C484      1.0  0.65848  0.41455  0.18306  1.0000
  H   H773      1.0  0.73219  0.05937  0.03235  1.0000
  H   H774      1.0  0.73999  0.08913  0.17545  1.0000
  H   H775      1.0  0.61403  0.49846  0.07649  1.0000
  S   S193      1.0  0.67351  0.37280  0.00098  1.0000
  H   H776      1.0  0.00018  0.37976  0.16468  1.0000
  C   C485      1.0  0.72597  0.38189  0.07903  1.0000
  H   H777      1.0  0.71425  0.37330  0.12034  1.0000
  H   H778      1.0  0.64213  0.50372  0.08654  1.0000
  H   H779      1.0  0.94732  0.33627  0.19250  1.0000
  H   H780      1.0  0.84689  0.21090  0.15054  1.0000
  H   H781      1.0  0.66976  0.46485  0.06348  1.0000
  H   H782      1.0  0.71758  0.34206  0.06028  1.0000
  Fe  Fe97      1.0  0.68829  0.45582  0.14710  1.0000
  S   S194      1.0  0.72420  0.46830  0.13586  1.0000
  S   S195      1.0  0.67648  0.45881  0.18166  1.0000
  Fe  Fe98      1.0  0.67778  0.43947  0.10355  1.0000
  S   S196      1.0  0.71295  0.44980  0.08924  1.0000
  S   S197      1.0  0.64881  0.42453  0.08587  1.0000
  Fe  Fe99      1.0  0.72779  0.43426  0.11937  1.0000
  S   S198      1.0  0.75618  0.40524  0.12155  1.0000
  Fe  Fe100     1.0  0.70597  0.48291  0.10688  1.0000
  N   N49       1.0  0.55040  0.08758  0.00362  1.0000
  S   S199      1.0  0.69286  0.42108  0.13212  1.0000
  S   S200      1.0  0.66990  0.47329  0.11963  1.0000
  H   H783      1.0  0.72270  0.39062  0.18587  1.0000
  S   S201      1.0  0.71226  0.51705  0.08752  1.0000
  Fe  Fe101     1.0  0.73827  0.04559  0.13913  1.0000
  S   S202      1.0  0.70741  0.07081  0.14319  1.0000
  S   S203      1.0  0.77072  0.04722  0.15876  1.0000
  Fe  Fe102     1.0  0.68584  0.03871  0.14925  1.0000
  C   C486      1.0  0.63087  0.47536  0.04246  1.0000
  Fe  Fe103     1.0  0.70166  0.06557  0.10886  1.0000
  S   S204      1.0  0.69631  0.09623  0.08540  1.0000
  H   H784      1.0  0.67492  0.03071  0.04652  1.0000
  S   S205      1.0  0.73429  0.04261  0.10412  1.0000
  H   H785      1.0  0.57930  0.07261  0.02098  1.0000
  C   C487      1.0  0.66851  0.48293  0.05599  1.0000
  H   H786      1.0  0.67869  0.49445  0.06550  1.0000
  S   S206      1.0  0.62980  0.08384  0.01007  1.0000
  H   H787      1.0  0.65136  0.51585  0.02851  1.0000
  C   C488      1.0  0.68823  0.36464  0.08772  1.0000
  N   N50       1.0  0.71228  0.02815  0.03946  1.0000
  S   S207      1.0  0.83680  0.13256  0.17458  1.0000
  H   H788      1.0  0.69225  0.02505  0.06921  1.0000
  C   C489      1.0  0.81862  0.10859  0.17043  1.0000
  H   H789      1.0  0.72886  0.45544  0.18550  1.0000
  S   S208      1.0  0.95647  0.14899  0.18353  1.0000
  C   C490      1.0  0.78896  0.07122  0.16267  1.0000
  C   C491      1.0  0.78526  0.09354  0.15283  1.0000
  C   C492      1.0  0.80002  0.11209  0.15670  1.0000
  C   C493      1.0  0.65328  0.05848  0.19090  1.0000
  H   H790      1.0  0.67859  0.34969  0.09570  1.0000
  H   H791      1.0  0.77125  0.09646  0.14202  1.0000
  H   H792      1.0  0.79719  0.12918  0.14878  1.0000
  H   H793      1.0  0.72222  0.38477  0.06200  1.0000
  H   H794      1.0  0.80380  0.20719  0.15653  1.0000
  H   H795      1.0  0.64918  0.11779  0.18098  1.0000
  C   C494      1.0  0.97603  0.37668  0.19220  1.0000
  H   H796      1.0  0.71315  0.32395  0.08418  1.0000
  H   H797      1.0  0.66356  0.11948  0.01711  1.0000
  C   C495      1.0  0.63269  0.49195  0.07662  1.0000
  H   H798      1.0  0.54431  0.12518  0.00231  1.0000
  H   H799      1.0  0.72024  0.39812  0.08719  1.0000
  H   H800      1.0  0.63898  0.47418  0.02613  1.0000
  H   H801      1.0  0.71024  0.41867  0.17730  1.0000
  C   C496      1.0  0.55891  0.11178  0.00407  1.0000
  C   C497      1.0  0.82214  0.08634  0.18046  1.0000
  H   H802      1.0  0.96415  0.27629  0.17506  1.0000
  H   H803      1.0  0.56483  0.22079  0.00815  1.0000
  H   H804      1.0  0.71731  0.05800  0.05811  1.0000
  H   H805      1.0  0.70093  0.06445  0.03499  1.0000
  H   H806      1.0  0.96065  0.38182  0.18352  1.0000
  C   C498      1.0  0.81979  0.41058  0.16278  1.0000
  C   C499      1.0  0.80777  0.43103  0.15514  1.0000
  C   C500      1.0  0.78829  0.42961  0.14254  1.0000
  C   C501      1.0  0.78071  0.40768  0.13729  1.0000
  C   C502      1.0  0.79280  0.38718  0.14476  1.0000
  C   C503      1.0  0.81214  0.38859  0.15761  1.0000
  C   C504      1.0  0.99847  0.37559  0.18157  1.0000
  H   H807      1.0  0.77943  0.44554  0.13657  1.0000
  H   H808      1.0  0.78719  0.37012  0.14067  1.0000
  H   H809      1.0  0.82133  0.37272  0.16329  1.0000
  H   H810      1.0  0.65916  0.08100  0.16282  1.0000
  H   H811      1.0  0.79134  0.20020  0.18279  1.0000
  C   C505      1.0  0.66589  0.38894  0.02345  1.0000
  C   C506      1.0  0.64279  0.38997  0.03218  1.0000
  C   C507      1.0  0.63766  0.40131  0.05118  1.0000
  C   C508      1.0  0.65551  0.41190  0.06136  1.0000
  C   C509      1.0  0.67839  0.41176  0.05212  1.0000
  C   C510      1.0  0.68361  0.40005  0.03336  1.0000
  H   H812      1.0  0.62903  0.38141  0.02462  1.0000
  H   H813      1.0  0.61987  0.40144  0.05819  1.0000
  H   H814      1.0  0.69216  0.42021  0.05961  1.0000
  H   H815      1.0  0.70145  0.39949  0.02649  1.0000
  C   C511      1.0  0.64757  0.08828  0.03127  1.0000
  C   C512      1.0  0.66281  0.10706  0.03068  1.0000
  C   C513      1.0  0.67729  0.10969  0.04764  1.0000
  C   C514      1.0  0.67670  0.09350  0.06516  1.0000
  C   C515      1.0  0.66122  0.07491  0.06581  1.0000
  C   C516      1.0  0.64667  0.07234  0.04894  1.0000
  H   H816      1.0  0.89817  0.25041  0.18096  1.0000
  H   H817      1.0  0.68922  0.12414  0.04704  1.0000
  H   H818      1.0  0.66036  0.06257  0.07933  1.0000
  N   N51       1.0  0.64374  0.49143  0.05495  1.0000
  H   H819      1.0  0.73034  0.04827  0.18768  1.0000
  H   H820      1.0  0.67755  0.48249  0.03997  1.0000
  H   H821      1.0  0.69400  0.03361  0.01070  1.0000
  S   S209      1.0  0.67688  0.03583  0.11534  1.0000
  C   C517      1.0  0.70942  0.02344  0.01702  1.0000
  H   H822      1.0  0.75572  0.44499  0.17259  1.0000
  H   H823      1.0  0.73947  0.35553  0.11266  1.0000
  C   C518      1.0  0.80740  0.06780  0.17656  1.0000
  H   H824      1.0  0.82378  0.24172  0.16972  1.0000
  H   H825      1.0  0.64682  0.37888  0.18455  1.0000
  C   C519      1.0  0.95348  0.29250  0.17865  1.0000
  H   H826      1.0  0.71164  0.34203  0.11915  1.0000
  H   H827      1.0  0.00287  0.16780  0.18109  1.0000
  H   H828      1.0  0.63098  0.45717  0.04994  1.0000
  H   H829      1.0  0.95821  0.30642  0.16627  1.0000
  C   C520      1.0  0.72007  0.35774  0.11122  1.0000
  S   S210      1.0  0.89599  0.36303  0.18752  1.0000
  H   H830      1.0  0.85170  0.18228  0.16323  1.0000
  H   H831      1.0  0.68293  0.36623  0.07101  1.0000
  H   H832      1.0  0.84191  0.23745  0.19199  1.0000
  H   H833      1.0  0.81371  0.44811  0.15889  1.0000
  H   H834      1.0  0.68178  0.38098  0.09544  1.0000
  S   S211      1.0  0.66168  0.03241  0.17829  1.0000
  H   H835      1.0  0.74125  0.33684  0.07777  1.0000
  H   H836      1.0  0.58853  0.24085  0.00430  1.0000
  N   N52       1.0  0.71402  0.36107  0.08882  1.0000
  C   C521      1.0  0.01877  0.37003  0.19277  1.0000
  H   H837      1.0  0.71043  0.09984  0.18149  1.0000
  H   H838      1.0  0.63473  0.05792  0.04954  1.0000
  H   H839      1.0  0.65995  0.41576  0.16599  1.0000
  S   S212      1.0  0.88319  0.29741  0.19003  1.0000
  C   C522      1.0  0.84909  0.20138  0.16615  1.0000
  S   S213      1.0  0.84403  0.41354  0.17873  1.0000
  H   H840      1.0  0.52575  0.06539  0.02132  1.0000
  C   C523      1.0  0.64295  0.51544  0.04481  1.0000
  C   C524      1.0  0.57042  0.07054  0.00596  1.0000
  C   C525      1.0  0.65429  0.08022  0.17960  1.0000
  H   H841      1.0  0.73729  0.40799  0.16489  1.0000
  C   C526      1.0  0.72708  0.40891  0.18035  1.0000
  H   H842      1.0  0.54014  0.08561  0.03684  1.0000
  H   H843      1.0  0.56750  0.11462  0.01907  1.0000
  C   C527      1.0  0.80712  0.19756  0.17189  1.0000
  C   C528      1.0  0.66406  0.43364  0.19457  1.0000
  H   H844      1.0  0.61214  0.48129  0.04120  1.0000
  C   C529      1.0  0.82608  0.23103  0.18475  1.0000
  C   C530      1.0  0.71586  0.05356  0.04130  1.0000
  H   H845      1.0  0.80873  0.17841  0.16885  1.0000
  H   H846      1.0  0.93461  0.28857  0.17702  1.0000
  N   N53       1.0  0.82860  0.20560  0.18103  1.0000
  C   C531      1.0  0.74541  0.44484  0.18803  1.0000
  H   H847      1.0  0.77363  0.40604  0.18430  1.0000
  C   C532      1.0  0.64854  0.10103  0.18989  1.0000
  H   H848      1.0  0.56473  0.05206  0.00591  1.0000
  H   H849      1.0  0.81050  0.05058  0.18418  1.0000
  C   C533      1.0  0.72785  0.09589  0.18833  1.0000
  H   H850      1.0  0.98806  0.31972  0.18994  1.0000
  H   H851      1.0  0.83644  0.08333  0.19094  1.0000
  S   S214      1.0  0.88994  0.16459  0.19279  1.0000
  C   C534      1.0  0.00369  0.15125  0.19029  1.0000
  H   H852      1.0  0.70062  0.05882  0.19174  1.0000
  C   C535      1.0  0.98318  0.13830  0.19420  1.0000
  C   C536      1.0  0.65082  0.39372  0.19361  1.0000
  H   H853      1.0  0.73475  0.11283  0.19291  1.0000
  H   H854      1.0  0.55948  0.25011  0.99690  1.0000
  H   H855      1.0  0.81069  0.23491  0.19579  1.0000
  Fe  Fe104     1.0  0.84533  0.06334  0.36585  1.0000
  H   H856      1.0  0.92383  0.31827  0.20285  1.0000
  S   S215      1.0  0.87586  0.08633  0.35560  1.0000
  C   C537      1.0  0.95977  0.09200  0.25679  1.0000
  H   H857      1.0  0.61477  0.28729  0.37041  1.0000
  Fe  Fe105     1.0  0.79431  0.05640  0.35581  1.0000
  S   S216      1.0  0.77197  0.07048  0.32870  1.0000
  C   C538      1.0  0.55360  0.43245  0.24632  1.0000
  S   S217      1.0  0.81148  0.08223  0.37529  1.0000
  Fe  Fe106     1.0  0.64255  0.36429  0.30875  1.0000
  S   S218      1.0  0.64852  0.33612  0.28511  1.0000
  S   S219      1.0  0.67112  0.36558  0.33247  1.0000
  Fe  Fe107     1.0  0.59152  0.37431  0.29579  1.0000
  S   S220      1.0  0.59421  0.34689  0.27176  1.0000
  S   S221      1.0  0.55718  0.39475  0.30249  1.0000
  Fe  Fe108     1.0  0.61254  0.32431  0.29616  1.0000
  S   S222      1.0  0.59919  0.28812  0.30519  1.0000
  Fe  Fe109     1.0  0.62972  0.36161  0.26306  1.0000
  S   S223      1.0  0.63957  0.36505  0.22810  1.0000
  S   S224      1.0  0.60746  0.35077  0.32108  1.0000
  S   S225      1.0  0.62619  0.39086  0.28569  1.0000
  Fe  Fe110     1.0  0.64333  0.11086  0.30393  1.0000
  S   S226      1.0  0.66401  0.13205  0.27894  1.0000
  S   S227      1.0  0.66061  0.08425  0.32679  1.0000
  Fe  Fe111     1.0  0.59685  0.13816  0.29546  1.0000
  S   S228      1.0  0.61475  0.16162  0.27036  1.0000
  S   S229      1.0  0.55876  0.14940  0.30367  1.0000
  Fe  Fe112     1.0  0.63278  0.12844  0.25936  1.0000
  S   S230      1.0  0.63559  0.12698  0.22374  1.0000
  Fe  Fe113     1.0  0.64404  0.16313  0.29222  1.0000
  S   S231      1.0  0.66383  0.19567  0.29798  1.0000
  S   S232      1.0  0.61320  0.10453  0.28319  1.0000
  S   S233      1.0  0.62510  0.14234  0.31842  1.0000
  Fe  Fe114     1.0  0.81787  0.44998  0.36032  1.0000
  S   S234      1.0  0.79118  0.48011  0.36058  1.0000
  S   S235      1.0  0.84686  0.44600  0.33480  1.0000
  C   C539      1.0  0.97378  0.37240  0.21418  1.0000
  Fe  Fe115     1.0  0.76508  0.45197  0.37017  1.0000
  S   S236      1.0  0.73160  0.45342  0.35184  1.0000
  H   H858      1.0  0.72113  0.40333  0.22231  1.0000
  H   H859      1.0  0.68156  0.13089  0.32207  1.0000
  S   S237      1.0  0.79158  0.42205  0.36786  1.0000
  H   H860      1.0  0.53300  0.15166  0.25220  1.0000
  Fe  Fe116     1.0  0.86151  0.36238  0.24233  1.0000
  S   S238      1.0  0.84107  0.36150  0.27415  1.0000
  Fe  Fe117     1.0  0.89352  0.11391  0.23485  1.0000
  S   S239      1.0  0.89808  0.08187  0.25689  1.0000
  H   H861      1.0  0.86242  0.24814  0.25420  1.0000
  C   C540      1.0  0.84464  0.38420  0.29147  1.0000
  C   C541      1.0  0.85805  0.40379  0.28537  1.0000
  C   C542      1.0  0.85908  0.42242  0.29898  1.0000
  C   C543      1.0  0.84666  0.42163  0.31873  1.0000
  C   C544      1.0  0.83387  0.40173  0.32511  1.0000
  C   C545      1.0  0.83284  0.38309  0.31153  1.0000
  H   H862      1.0  0.86742  0.40478  0.27009  1.0000
  H   H863      1.0  0.86921  0.43767  0.29398  1.0000
  H   H864      1.0  0.82476  0.40062  0.34048  1.0000
  H   H865      1.0  0.82260  0.36789  0.31642  1.0000
  C   C546      1.0  0.72621  0.42128  0.21626  1.0000
  C   C547      1.0  0.64125  0.07860  0.22303  1.0000
  C   C548      1.0  0.66179  0.28349  0.37181  1.0000
  H   H866      1.0  0.58722  0.43241  0.27445  1.0000
  H   H867      1.0  0.56571  0.17436  0.21757  1.0000
  H   H868      1.0  0.66238  0.33092  0.37107  1.0000
  H   H869      1.0  0.63632  0.07792  0.23981  1.0000
  H   H870      1.0  0.66431  0.26618  0.36441  1.0000
  H   H871      1.0  0.70964  0.43197  0.21429  1.0000
  H   H872      1.0  0.54790  0.36874  0.26529  1.0000
  H   H873      1.0  0.54809  0.10334  0.28848  1.0000
  C   C549      1.0  0.64838  0.39190  0.21575  1.0000
  H   H874      1.0  0.57685  0.42875  0.20832  1.0000
  S   S240      1.0  0.82674  0.45396  0.39394  1.0000
  H   H875      1.0  0.83115  0.03079  0.29658  1.0000
  C   C550      1.0  0.66086  0.43218  0.21677  1.0000
  C   C551      1.0  0.65313  0.41127  0.22738  1.0000
  Fe  Fe118     1.0  0.86304  0.38393  0.19737  1.0000
  H   H876      1.0  0.66502  0.44699  0.22577  1.0000
  H   H877      1.0  0.65138  0.40995  0.24449  1.0000
  C   C552      1.0  0.61740  0.26277  0.30197  1.0000
  C   C553      1.0  0.60748  0.24060  0.30533  1.0000
  C   C554      1.0  0.62157  0.21996  0.30367  1.0000
  C   C555      1.0  0.64580  0.22140  0.29914  1.0000
  C   C556      1.0  0.65582  0.24358  0.29595  1.0000
  C   C557      1.0  0.64159  0.26425  0.29706  1.0000
  H   H878      1.0  0.58877  0.23934  0.30913  1.0000
  H   H879      1.0  0.61368  0.20294  0.30618  1.0000
  H   H880      1.0  0.67455  0.24475  0.29225  1.0000
  H   H881      1.0  0.64931  0.28127  0.29411  1.0000
  C   C558      1.0  0.71464  0.42889  0.34702  1.0000
  C   C559      1.0  0.71944  0.40650  0.35630  1.0000
  C   C560      1.0  0.70597  0.38734  0.35160  1.0000
  C   C561      1.0  0.68767  0.39030  0.33754  1.0000
  C   C562      1.0  0.68299  0.41264  0.32813  1.0000
  C   C563      1.0  0.69637  0.43185  0.33294  1.0000
  H   H882      1.0  0.73340  0.40399  0.36720  1.0000
  H   H883      1.0  0.70969  0.37014  0.35899  1.0000
  H   H884      1.0  0.66888  0.41518  0.31739  1.0000
  H   H885      1.0  0.69247  0.44913  0.32577  1.0000
  C   C564      1.0  0.74093  0.07332  0.32851  1.0000
  C   C565      1.0  0.73089  0.08429  0.31058  1.0000
  C   C566      1.0  0.70632  0.08726  0.30967  1.0000
  C   C567      1.0  0.69151  0.07933  0.32673  1.0000
  C   C568      1.0  0.70153  0.06797  0.34452  1.0000
  C   C569      1.0  0.72616  0.06510  0.34549  1.0000
  H   H886      1.0  0.74218  0.09061  0.29735  1.0000
  H   H887      1.0  0.69884  0.09573  0.29579  1.0000
  H   H888      1.0  0.69019  0.06159  0.35773  1.0000
  H   H889      1.0  0.73369  0.05645  0.35931  1.0000
  C   C570      1.0  0.88275  0.08551  0.32825  1.0000
  C   C571      1.0  0.88188  0.10625  0.31525  1.0000
  C   C572      1.0  0.88651  0.10545  0.29322  1.0000
  C   C573      1.0  0.89263  0.08396  0.28431  1.0000
  C   C574      1.0  0.89417  0.06339  0.29741  1.0000
  C   C575      1.0  0.88900  0.06411  0.31929  1.0000
  H   H890      1.0  0.87707  0.12285  0.32217  1.0000
  H   H891      1.0  0.88528  0.12140  0.28319  1.0000
  H   H892      1.0  0.89899  0.04673  0.29058  1.0000
  H   H893      1.0  0.88981  0.04807  0.32926  1.0000
  C   C576      1.0  0.64213  0.10031  0.21160  1.0000
  N   N54       1.0  0.77297  0.43104  0.29970  1.0000
  C   C577      1.0  0.78442  0.44992  0.31010  1.0000
  C   C578      1.0  0.78822  0.42343  0.28147  1.0000
  C   C579      1.0  0.74999  0.44002  0.29233  1.0000
  C   C580      1.0  0.76923  0.41082  0.31501  1.0000
  H   H894      1.0  0.78820  0.46522  0.29891  1.0000
  H   H895      1.0  0.80139  0.44360  0.31657  1.0000
  H   H896      1.0  0.77309  0.45654  0.32356  1.0000
  H   H897      1.0  0.78067  0.40850  0.27375  1.0000
  H   H898      1.0  0.79101  0.43806  0.26933  1.0000
  H   H899      1.0  0.80596  0.41736  0.28651  1.0000
  H   H900      1.0  0.75208  0.45534  0.28080  1.0000
  H   H901      1.0  0.73826  0.44603  0.30583  1.0000
  H   H902      1.0  0.74061  0.42617  0.28471  1.0000
  H   H903      1.0  0.75947  0.39670  0.30814  1.0000
  H   H904      1.0  0.75897  0.41627  0.32947  1.0000
  H   H905      1.0  0.78616  0.40290  0.32024  1.0000
  H   H906      1.0  0.64597  0.04089  0.22147  1.0000
  H   H907      1.0  0.54772  0.42598  0.26264  1.0000
  H   H908      1.0  0.99915  0.43496  0.24774  1.0000
  C   C581      1.0  0.53090  0.38766  0.29080  1.0000
  S   S241      1.0  0.87843  0.39450  0.22742  1.0000
  H   H909      1.0  0.01359  0.46089  0.23708  1.0000
  H   H910      1.0  0.58974  0.11810  0.24197  1.0000
  H   H911      1.0  0.74829  0.06160  0.22936  1.0000
  H   H912      1.0  0.56146  0.10589  0.24846  1.0000
  H   H913      1.0  0.83369  0.17305  0.19932  1.0000
  H   H914      1.0  0.93869  0.10029  0.29484  1.0000
  H   H915      1.0  0.71296  0.13367  0.31993  1.0000
  C   C582      1.0  0.66113  0.30415  0.33759  1.0000
  C   C583      1.0  0.85454  0.40042  0.38482  1.0000
  H   H916      1.0  0.97483  0.08527  0.24668  1.0000
  H   H917      1.0  0.89913  0.38978  0.37189  1.0000
  H   H918      1.0  0.75966  0.38886  0.20559  1.0000
  H   H919      1.0  0.99415  0.28966  0.19881  1.0000
  C   C584      1.0  0.99396  0.36611  0.22524  1.0000
  Fe  Fe119     1.0  0.90954  0.37052  0.21910  1.0000
  H   H920      1.0  0.59209  0.15882  0.22560  1.0000
  Fe  Fe120     1.0  0.88431  0.16656  0.22786  1.0000
  H   H921      1.0  0.89768  0.12289  0.39347  1.0000
  C   C585      1.0  0.83219  0.19234  0.20136  1.0000
  H   H922      1.0  0.83481  0.05044  0.25035  1.0000
  C   C586      1.0  0.94697  0.11562  0.28605  1.0000
  C   C587      1.0  0.70884  0.08786  0.22286  1.0000
  H   H923      1.0  0.81599  0.08128  0.30941  1.0000
  H   H924      1.0  0.61405  0.30342  0.34533  1.0000
  N   N55       1.0  0.64823  0.30039  0.35833  1.0000
  C   C588      1.0  0.80060  0.07523  0.27117  1.0000
  S   S242      1.0  0.82872  0.03900  0.34482  1.0000
  H   H925      1.0  0.71485  0.04298  0.21291  1.0000
  H   H926      1.0  0.52663  0.15550  0.22477  1.0000
  C   C589      1.0  0.88187  0.27095  0.20575  1.0000
  C   C590      1.0  0.58416  0.40218  0.24376  1.0000
  H   H927      1.0  0.95084  0.07651  0.26467  1.0000
  C   C591      1.0  0.89172  0.37881  0.38561  1.0000
  H   H928      1.0  0.55527  0.14059  0.19714  1.0000
  H   H929      1.0  0.73251  0.15543  0.34641  1.0000
  H   H930      1.0  0.79389  0.06486  0.25852  1.0000
  H   H931      1.0  0.93314  0.12464  0.27651  1.0000
  C   C592      1.0  0.69856  0.12609  0.36075  1.0000
  H   H932      1.0  0.01075  0.41491  0.21501  1.0000
  C   C593      1.0  0.87038  0.24862  0.23825  1.0000
  H   H933      1.0  0.80919  0.02863  0.27750  1.0000
  H   H934      1.0  0.52548  0.12681  0.23808  1.0000
  H   H935      1.0  0.94503  0.32771  0.22025  1.0000
  H   H936      1.0  0.63539  0.32104  0.38437  1.0000
  H   H937      1.0  0.96603  0.13782  0.24987  1.0000
  N   N56       1.0  0.95740  0.30015  0.20010  1.0000
  H   H938      1.0  0.66962  0.17611  0.34326  1.0000
  S   S243      1.0  0.84438  0.35288  0.21280  1.0000
  N   N57       1.0  0.57912  0.42780  0.24216  1.0000
  H   H939      1.0  0.58191  0.12524  0.20477  1.0000
  S   S244      1.0  0.91678  0.14482  0.23511  1.0000
  H   H940      1.0  0.95195  0.12800  0.29794  1.0000
  H   H941      1.0  0.54899  0.45160  0.24490  1.0000
  C   C594      1.0  0.67288  0.15994  0.35357  1.0000
  H   H942      1.0  0.86555  0.28637  0.23347  1.0000
  C   C595      1.0  0.87861  0.22759  0.22936  1.0000
  H   H943      1.0  0.67213  0.16506  0.37031  1.0000
  H   H944      1.0  0.70664  0.07524  0.23683  1.0000
  H   H945      1.0  0.65797  0.14814  0.35189  1.0000
  H   H946      1.0  0.96115  0.26471  0.21345  1.0000
  N   N58       1.0  0.82165  0.06357  0.28022  1.0000
  H   H947      1.0  0.99469  0.12419  0.25212  1.0000
  S   S245      1.0  0.89344  0.33893  0.23633  1.0000
  H   H948      1.0  0.68393  0.11398  0.35881  1.0000
  C   C596      1.0  0.53142  0.37548  0.27213  1.0000
  N   N59       1.0  0.69567  0.14816  0.34759  1.0000
  H   H949      1.0  0.84493  0.06912  0.30484  1.0000
  H   H950      1.0  0.00726  0.09148  0.22220  1.0000
  C   C597      1.0  0.59232  0.43925  0.25803  1.0000
  H   H951      1.0  0.71339  0.18063  0.34100  1.0000
  H   H952      1.0  0.85654  0.05210  0.26964  1.0000
  Fe  Fe121     1.0  0.79750  0.48139  0.39532  1.0000
  C   C598      1.0  0.69608  0.14265  0.32504  1.0000
  C   C599      1.0  0.71510  0.16389  0.35085  1.0000
  H   H953      1.0  0.71538  0.16844  0.36772  1.0000
  C   C600      1.0  0.01635  0.44388  0.24625  1.0000
  H   H954      1.0  0.69392  0.15883  0.31456  1.0000
  H   H955      1.0  0.71529  0.11637  0.35624  1.0000
  H   H956      1.0  0.80159  0.04127  0.30246  1.0000
  C   C601      1.0  0.53531  0.14346  0.23659  1.0000
  H   H957      1.0  0.83512  0.39945  0.38423  1.0000
  C   C602      1.0  0.87214  0.27028  0.22654  1.0000
  H   H958      1.0  0.84154  0.36399  0.36348  1.0000
  S   S246      1.0  0.87472  0.20049  0.24391  1.0000
  S   S247      1.0  0.86025  0.13583  0.23127  1.0000
  H   H959      1.0  0.86084  0.41197  0.37104  1.0000
  C   C603      1.0  0.97813  0.12899  0.26129  1.0000
  H   H960      1.0  0.73597  0.42931  0.22864  1.0000
  N   N60       1.0  0.56052  0.13910  0.23057  1.0000
  C   C604      1.0  0.53224  0.11439  0.28856  1.0000
  C   C605      1.0  0.62491  0.29088  0.35512  1.0000
  N   N61       1.0  0.96751  0.10811  0.27242  1.0000
  S   S248      1.0  0.94674  0.37683  0.22886  1.0000
  C   C606      1.0  0.89041  0.24999  0.19697  1.0000
  C   C607      1.0  0.57289  0.16157  0.22965  1.0000
  H   H961      1.0  0.80459  0.09312  0.26424  1.0000
  H   H962      1.0  0.76226  0.06739  0.20356  1.0000
  H   H963      1.0  0.81748  0.19563  0.21327  1.0000
  H   H964      1.0  0.94696  0.10091  0.24608  1.0000
  C   C608      1.0  0.64512  0.32307  0.36868  1.0000
  H   H965      1.0  0.97781  0.07983  0.29422  1.0000
  H   H966      1.0  0.67956  0.29011  0.37432  1.0000
  H   H967      1.0  0.69873  0.12949  0.37788  1.0000
  H   H968      1.0  0.69112  0.09113  0.21646  1.0000
  C   C609      1.0  0.64665  0.05767  0.21262  1.0000
  H   H969      1.0  0.60318  0.39793  0.24054  1.0000
  H   H970      1.0  0.66437  0.28737  0.32949  1.0000
  H   H971      1.0  0.67844  0.31223  0.33920  1.0000
  H   H972      1.0  0.96900  0.10632  0.20835  1.0000
  C   C610      1.0  0.56299  0.12869  0.20963  1.0000
  H   H973      1.0  0.00093  0.08985  0.27577  1.0000
  C   C611      1.0  0.00614  0.10838  0.21362  1.0000
  H   H974      1.0  0.54299  0.42340  0.23512  1.0000
  H   H975      1.0  0.99235  0.36262  0.24223  1.0000
  C   C612      1.0  0.88900  0.22843  0.20879  1.0000
  C   C613      1.0  0.86084  0.36562  0.36482  1.0000
  C   C614      1.0  0.98517  0.09573  0.28563  1.0000
  H   H976      1.0  0.65100  0.31629  0.32692  1.0000
  C   C615      1.0  0.98249  0.30541  0.20168  1.0000
  H   H977      1.0  0.84584  0.07845  0.25618  1.0000
  H   H978      1.0  0.78610  0.07725  0.28359  1.0000
  C   C616      1.0  0.74918  0.07453  0.21555  1.0000
  C   C617      1.0  0.82998  0.07804  0.29684  1.0000
  H   H979      1.0  0.63513  0.33630  0.35879  1.0000
  H   H980      1.0  0.89598  0.21250  0.20197  1.0000
  C   C618      1.0  0.71758  0.05618  0.19947  1.0000
  H   H981      1.0  0.57928  0.39479  0.25992  1.0000
  H   H982      1.0  0.90096  0.36125  0.38547  1.0000
  N   N62       1.0  0.86600  0.37673  0.38457  1.0000
  H   H983      1.0  0.98269  0.14225  0.27256  1.0000
  C   C619      1.0  0.57104  0.12264  0.24650  1.0000
  C   C620      1.0  0.84046  0.06102  0.26334  1.0000
  H   H984      1.0  0.99142  0.10736  0.29761  1.0000
  H   H985      1.0  0.55400  0.11160  0.20987  1.0000
  H   H986      1.0  0.57427  0.39269  0.23234  1.0000
  S   S249      1.0  0.89970  0.10825  0.19997  1.0000
  S   S250      1.0  0.84437  0.03766  0.39404  1.0000
  H   H987      1.0  0.86911  0.34765  0.36408  1.0000
  C   C621      1.0  0.95062  0.28127  0.21600  1.0000
  H   H988      1.0  0.83594  0.09547  0.29025  1.0000
  H   H989      1.0  0.93168  0.27713  0.21526  1.0000
  N   N63       1.0  0.72587  0.07862  0.20658  1.0000
  H   H990      1.0  0.62655  0.27419  0.34662  1.0000
  H   H991      1.0  0.57116  0.16996  0.24521  1.0000
  H   H992      1.0  0.91118  0.09530  0.38654  1.0000
  H   H993      1.0  0.57069  0.13048  0.26224  1.0000
  C   C622      1.0  0.58648  0.43712  0.22064  1.0000
  Fe  Fe122     1.0  0.87824  0.33253  0.20533  1.0000
  C   C623      1.0  0.53259  0.13718  0.29578  1.0000
  H   H994      1.0  0.58892  0.45863  0.25740  1.0000
  S   S251      1.0  0.78864  0.03004  0.38331  1.0000
  C   C624      1.0  0.94279  0.32154  0.20410  1.0000
  C   C625      1.0  0.81562  0.04003  0.28954  1.0000
  H   H995      1.0  0.84861  0.19742  0.20832  1.0000
  H   H996      1.0  0.86758  0.37616  0.35055  1.0000
  H   H997      1.0  0.98590  0.31148  0.21765  1.0000
  H   H998      1.0  0.71443  0.10484  0.22858  1.0000
  C   C626      1.0  0.76276  0.40721  0.19936  1.0000
  H   H999      1.0  0.75618  0.09114  0.22082  1.0000
  H   H1000     1.0  0.61165  0.43596  0.25544  1.0000
  C   C627      1.0  0.01629  0.36467  0.21458  1.0000
  H   H1001     1.0  0.65264  0.28034  0.38765  1.0000
  Fe  Fe123     1.0  0.92112  0.14077  0.20011  1.0000
  C   C628      1.0  0.98450  0.11677  0.20586  1.0000
  H   H1002     1.0  0.75575  0.45412  0.19925  1.0000
  H   H1003     1.0  0.58313  0.45648  0.21884  1.0000
  H   H1004     1.0  0.77366  0.41574  0.21065  1.0000
  H   H1005     1.0  0.60565  0.43362  0.21703  1.0000
  Fe  Fe124     1.0  0.86773  0.13243  0.19628  1.0000
  H   H1006     1.0  0.95320  0.28651  0.23240  1.0000
  N   N64       1.0  0.74039  0.42055  0.19602  1.0000
  Fe  Fe125     1.0  0.87710  0.13655  0.50020  1.0000
  S   S252      1.0  0.86159  0.13802  0.53358  1.0000
  S   S253      1.0  0.85677  0.14284  0.47076  1.0000
  Fe  Fe126     1.0  0.92749  0.13182  0.51347  1.0000
  S   S254      1.0  0.96467  0.12833  0.49907  1.0000
  Fe  Fe127     1.0  0.88773  0.10853  0.54093  1.0000
  Fe  Fe128     1.0  0.89109  0.16223  0.53818  1.0000
  S   S255      1.0  0.88557  0.19325  0.55932  1.0000
  S   S256      1.0  0.90093  0.10505  0.50696  1.0000
  S   S257      1.0  0.90456  0.16314  0.50422  1.0000
  Fe  Fe129     1.0  0.87249  0.37023  0.55946  1.0000
  S   S258      1.0  0.90299  0.39032  0.54499  1.0000
  Fe  Fe130     1.0  0.88097  0.32992  0.52915  1.0000
  S   S259      1.0  0.91148  0.34788  0.51177  1.0000
  S   S260      1.0  0.87087  0.29578  0.51569  1.0000
  Fe  Fe131     1.0  0.92237  0.35528  0.54423  1.0000
  S   S261      1.0  0.95855  0.34629  0.55607  1.0000
  Fe  Fe132     1.0  0.88904  0.38093  0.51409  1.0000
  S   S262      1.0  0.88427  0.41000  0.48897  1.0000
  S   S263      1.0  0.85752  0.36259  0.52859  1.0000
  H   H1007     1.0  0.00734  0.33805  0.56310  1.0000
  S   S264      1.0  0.80063  0.06018  0.43641  1.0000
  S   S265      1.0  0.91643  0.13291  0.54785  1.0000
  S   S266      1.0  0.80494  0.39707  0.42468  1.0000
  C   C629      1.0  0.86210  0.40603  0.47138  1.0000
  C   C630      1.0  0.85202  0.38413  0.47000  1.0000
  C   C631      1.0  0.83418  0.38158  0.45586  1.0000
  C   C632      1.0  0.82632  0.40091  0.44315  1.0000
  C   C633      1.0  0.83601  0.42288  0.44501  1.0000
  C   C634      1.0  0.85403  0.42537  0.45888  1.0000
  H   H1008     1.0  0.85819  0.36909  0.47957  1.0000
  H   H1009     1.0  0.82665  0.36454  0.45461  1.0000
  H   H1010     1.0  0.82952  0.43805  0.43593  1.0000
  H   H1011     1.0  0.86163  0.44238  0.46004  1.0000
  C   C635      1.0  0.84054  0.11989  0.46199  1.0000
  C   C636      1.0  0.83125  0.12250  0.44192  1.0000
  C   C637      1.0  0.81917  0.10412  0.43393  1.0000
  C   C638      1.0  0.81590  0.08322  0.44619  1.0000
  C   C639      1.0  0.82486  0.08073  0.46643  1.0000
  C   C640      1.0  0.83748  0.09892  0.47422  1.0000
  H   H1012     1.0  0.83354  0.13873  0.43245  1.0000
  H   H1013     1.0  0.81207  0.10624  0.41842  1.0000
  H   H1014     1.0  0.82227  0.06459  0.47596  1.0000
  H   H1015     1.0  0.84464  0.09682  0.48972  1.0000
  C   C641      1.0  0.88114  0.22169  0.54716  1.0000
  H   H1016     1.0  0.78789  0.44927  0.52851  1.0000
  C   C642      1.0  0.87468  0.26752  0.52832  1.0000
  C   C643      1.0  0.87577  0.26425  0.55032  1.0000
  C   C644      1.0  0.87902  0.24141  0.55970  1.0000
  H   H1017     1.0  0.87371  0.27928  0.56011  1.0000
  H   H1018     1.0  0.87975  0.23899  0.57672  1.0000
  S   S267      1.0  0.79946  0.51180  0.41714  1.0000
  C   C645      1.0  0.87462  0.08810  0.41448  1.0000
  C   C646      1.0  0.98878  0.13243  0.51474  1.0000
  C   C647      1.0  0.98548  0.13914  0.53567  1.0000
  C   C648      1.0  0.00503  0.14213  0.54780  1.0000
  C   C649      1.0  0.84584  0.45445  0.56642  1.0000
  H   H1019     1.0  0.86289  0.10282  0.40864  1.0000
  H   H1020     1.0  0.96787  0.14190  0.54255  1.0000
  H   H1021     1.0  0.00232  0.14712  0.56403  1.0000
  C   C650      1.0  0.86120  0.04045  0.58561  1.0000
  C   C651      1.0  0.98250  0.36757  0.52141  1.0000
  C   C652      1.0  0.98395  0.35464  0.54073  1.0000
  H   H1022     1.0  0.88760  0.10544  0.45082  1.0000
  H   H1023     1.0  0.86468  0.34402  0.40329  1.0000
  H   H1024     1.0  0.98333  0.27487  0.52881  1.0000
  H   H1025     1.0  0.86358  0.42280  0.55572  1.0000
  H   H1026     1.0  0.81820  0.39343  0.54587  1.0000
  C   C653      1.0  0.82018  0.04587  0.56352  1.0000
  C   C654      1.0  0.83869  0.06150  0.55895  1.0000
  H   H1027     1.0  0.83695  0.07566  0.54696  1.0000
  N   N65       1.0  0.89803  0.09644  0.41899  1.0000
  H   H1028     1.0  0.83081  0.44218  0.52680  1.0000
  C   C655      1.0  0.91306  0.07619  0.42617  1.0000
  H   H1029     1.0  0.78739  0.44257  0.50105  1.0000
  S   S268      1.0  0.82269  0.49467  0.57831  1.0000
  H   H1030     1.0  0.88379  0.12889  0.43116  1.0000
  H   H1031     1.0  0.84016  0.11563  0.57388  1.0000
  C   C656      1.0  0.80307  0.39769  0.50581  1.0000
  H   H1032     1.0  0.85305  0.46539  0.55330  1.0000
  H   H1033     1.0  0.80496  0.42058  0.55430  1.0000
  C   C657      1.0  0.94267  0.25247  0.53800  1.0000
  N   N66       1.0  0.80550  0.41659  0.52063  1.0000
  H   H1034     1.0  0.00203  0.38425  0.49485  1.0000
  H   H1035     1.0  0.80417  0.40466  0.48900  1.0000
  H   H1036     1.0  0.90516  0.06718  0.44079  1.0000
  H   H1037     1.0  0.96546  0.37263  0.51553  1.0000
  C   C658      1.0  0.78656  0.43471  0.51757  1.0000
  C   C659      1.0  0.93590  0.28302  0.56294  1.0000
  C   C660      1.0  0.93969  0.29317  0.52542  1.0000
  S   S269      1.0  0.88249  0.07881  0.56618  1.0000
  H   H1038     1.0  0.78594  0.38891  0.50865  1.0000
  C   C661      1.0  0.97366  0.27901  0.54399  1.0000
  H   H1039     1.0  0.97806  0.29730  0.54754  1.0000
  H   H1040     1.0  0.82393  0.51675  0.45905  1.0000
  N   N67       1.0  0.94799  0.27688  0.54259  1.0000
  H   H1041     1.0  0.78681  0.39776  0.54640  1.0000
  H   H1042     1.0  0.81726  0.38387  0.50743  1.0000
  H   H1043     1.0  0.94786  0.28872  0.50970  1.0000
  C   C662      1.0  0.83708  0.11610  0.59139  1.0000
  H   H1044     1.0  0.87542  0.25010  0.49886  1.0000
  H   H1045     1.0  0.01447  0.12377  0.48981  1.0000
  C   C663      1.0  0.85923  0.05893  0.57011  1.0000
  H   H1046     1.0  0.91535  0.06291  0.41385  1.0000
  H   H1047     1.0  0.94404  0.31163  0.52810  1.0000
  H   H1048     1.0  0.91649  0.28224  0.56230  1.0000
  H   H1049     1.0  0.94137  0.27085  0.57624  1.0000
  H   H1050     1.0  0.95176  0.24708  0.52291  1.0000
  H   H1051     1.0  0.94797  0.23965  0.55090  1.0000
  H   H1052     1.0  0.93974  0.30123  0.56701  1.0000
  H   H1053     1.0  0.98055  0.26697  0.55680  1.0000
  H   H1054     1.0  0.92349  0.25057  0.53629  1.0000
  C   C664      1.0  0.82861  0.42741  0.51636  1.0000
  C   C665      1.0  0.87986  0.22500  0.52520  1.0000
  S   S270      1.0  0.89295  0.33555  0.56158  1.0000
  H   H1055     1.0  0.92025  0.29266  0.52434  1.0000
  H   H1056     1.0  0.88121  0.20999  0.51536  1.0000
  C   C666      1.0  0.80374  0.40666  0.54272  1.0000
  H   H1057     1.0  0.83091  0.43442  0.49966  1.0000
  H   H1058     1.0  0.84335  0.41440  0.51910  1.0000
  C   C667      1.0  0.82215  0.02746  0.57913  1.0000
  H   H1059     1.0  0.91272  0.12055  0.43947  1.0000
  C   C668      1.0  0.89547  0.11357  0.43578  1.0000
  C   C669      1.0  0.85193  0.43032  0.56781  1.0000
  C   C670      1.0  0.87654  0.24778  0.51586  1.0000
  H   H1060     1.0  0.83732  0.36089  0.40314  1.0000
  H   H1061     1.0  0.76885  0.42714  0.52065  1.0000
  C   C671      1.0  0.84217  0.15818  0.59050  1.0000
  H   H1062     1.0  0.93085  0.08186  0.42984  1.0000
  Fe  Fe133     1.0  0.80894  0.05448  0.40178  1.0000
  S   S271      1.0  0.76922  0.45550  0.40507  1.0000
  C   C672      1.0  0.01179  0.12898  0.50599  1.0000
  H   H1063     1.0  0.00821  0.43019  0.54388  1.0000
  H   H1064     1.0  0.92650  0.11464  0.40229  1.0000
  C   C673      1.0  0.90891  0.10784  0.39950  1.0000
  H   H1065     1.0  0.87911  0.13107  0.57749  1.0000
  C   C674      1.0  0.83045  0.46450  0.58177  1.0000
  H   H1066     1.0  0.86562  0.07962  0.42885  1.0000
  C   C675      1.0  0.83299  0.51047  0.47356  1.0000
  C   C676      1.0  0.84260  0.41595  0.58456  1.0000
  H   H1067     1.0  0.80425  0.04812  0.55495  1.0000
  C   C677      1.0  0.00322  0.37412  0.50973  1.0000
  C   C678      1.0  0.00613  0.34810  0.54818  1.0000
  S   S272      1.0  0.84873  0.38527  0.58574  1.0000
  Fe  Fe134     1.0  0.79839  0.42814  0.40178  1.0000
  C   C679      1.0  0.84283  0.02472  0.59004  1.0000
  H   H1068     1.0  0.86076  0.36998  0.41822  1.0000
  C   C680      1.0  0.85683  0.36221  0.40308  1.0000
  H   H1069     1.0  0.84449  0.49506  0.46917  1.0000
  H   H1070     1.0  0.87601  0.07504  0.40198  1.0000
  H   H1071     1.0  0.84526  0.15906  0.57296  1.0000
  H   H1072     1.0  0.87010  0.50441  0.49758  1.0000
  H   H1073     1.0  0.81920  0.50418  0.48546  1.0000
  H   H1074     1.0  0.85794  0.40929  0.39958  1.0000
  H   H1075     1.0  0.01903  0.21686  0.53098  1.0000
  H   H1076     1.0  0.84555  0.51501  0.51404  1.0000
  H   H1077     1.0  0.89615  0.38720  0.40034  1.0000
  C   C681      1.0  0.85853  0.52009  0.50091  1.0000
  C   C682      1.0  0.87556  0.13141  0.59485  1.0000
  H   H1078     1.0  0.87701  0.03840  0.59439  1.0000
  H   H1079     1.0  0.01904  0.45027  0.52288  1.0000
  H   H1080     1.0  0.82306  0.16174  0.59402  1.0000
  H   H1081     1.0  0.81778  0.11826  0.59484  1.0000
  H   H1082     1.0  0.85558  0.14897  0.63021  1.0000
  C   C683      1.0  0.82748  0.42605  0.60017  1.0000
  C   C684      1.0  0.82145  0.45031  0.59883  1.0000
  H   H1083     1.0  0.88926  0.47033  0.65834  1.0000
  H   H1084     1.0  0.88135  0.51366  0.65725  1.0000
  H   H1085     1.0  0.88609  0.14572  0.60049  1.0000
  C   C685      1.0  0.87741  0.49149  0.60869  1.0000
  H   H1086     1.0  0.84447  0.46993  0.63447  1.0000
  H   H1087     1.0  0.84823  0.48728  0.65705  1.0000
  N   N68       1.0  0.85012  0.13515  0.60001  1.0000
  H   H1088     1.0  0.80940  0.45786  0.61065  1.0000
  C   C686      1.0  0.88291  0.51342  0.63962  1.0000
  H   H1089     1.0  0.90147  0.51701  0.63439  1.0000
  H   H1090     1.0  0.82012  0.41498  0.61314  1.0000
  H   H1091     1.0  0.88236  0.11424  0.60174  1.0000
  C   C687      1.0  0.85068  0.48701  0.63947  1.0000
  H   H1092     1.0  0.84289  0.09847  0.59808  1.0000
  C   C688      1.0  0.89052  0.47136  0.64069  1.0000
  H   H1093     1.0  0.88527  0.45406  0.63529  1.0000
  N   N69       1.0  0.87540  0.49083  0.63211  1.0000
  S   S273      1.0  0.79029  0.51553  0.63577  1.0000
  H   H1094     1.0  0.83883  0.50108  0.63283  1.0000
  H   H1095     1.0  0.85174  0.11772  0.63086  1.0000
  H   H1096     1.0  0.67576  0.51100  0.72669  1.0000
  H   H1097     1.0  0.90933  0.47367  0.63549  1.0000
  H   H1098     1.0  0.82680  0.13765  0.62773  1.0000
  H   H1099     1.0  0.65731  0.51562  0.69188  1.0000
  C   C689      1.0  0.84585  0.13487  0.62325  1.0000
  H   H1100     1.0  0.85199  0.17291  0.59635  1.0000
  H   H1101     1.0  0.87203  0.47464  0.60252  1.0000
  Fe  Fe135     1.0  0.80613  0.51934  0.60241  1.0000
  H   H1102     1.0  0.86585  0.50571  0.60166  1.0000
  H   H1103     1.0  0.89574  0.49468  0.60248  1.0000
  Fe  Fe136     1.0  0.63646  0.11699  0.93514  1.0000
  S   S274      1.0  0.60687  0.10370  0.95702  1.0000
  S   S275      1.0  0.64475  0.09612  0.90577  1.0000
  Fe  Fe137     1.0  0.64390  0.15924  0.96176  1.0000
  C   C690      1.0  0.67784  0.03489  0.88813  1.0000
  S   S276      1.0  0.66008  0.19350  0.96994  1.0000
  H   H1104     1.0  0.61148  0.21125  0.98417  1.0000
  C   C691      1.0  0.53333  0.35523  0.94833  1.0000
  Fe  Fe138     1.0  0.59463  0.14143  0.95839  1.0000
  S   S277      1.0  0.55808  0.15751  0.96365  1.0000
  S   S278      1.0  0.66107  0.12261  0.96100  1.0000
  S   S279      1.0  0.62181  0.15468  0.93406  1.0000
  Fe  Fe139     1.0  0.63088  0.33006  0.94732  1.0000
  S   S280      1.0  0.62049  0.33466  0.98165  1.0000
  S   S281      1.0  0.63495  0.29598  0.92980  1.0000
  Fe  Fe140     1.0  0.62882  0.38371  0.93638  1.0000
  S   S282      1.0  0.61739  0.39224  0.96974  1.0000
  S   S283      1.0  0.63224  0.41092  0.90869  1.0000
  Fe  Fe141     1.0  0.64501  0.36507  0.97905  1.0000
  N   N70       1.0  0.66876  0.33684  0.88257  1.0000
  Fe  Fe142     1.0  0.59359  0.36137  0.96945  1.0000
  H   H1105     1.0  0.59240  0.23978  0.94568  1.0000
  S   S284      1.0  0.65783  0.35822  0.94556  1.0000
  S   S285      1.0  0.60253  0.35512  0.93529  1.0000
  S   S286      1.0  0.71660  0.48152  0.89096  1.0000
  H   H1106     1.0  0.70333  0.03913  0.93500  1.0000
  H   H1107     1.0  0.53325  0.06648  0.98217  1.0000
  C   C692      1.0  0.66581  0.51997  0.91974  1.0000
  H   H1108     1.0  0.54976  0.35897  0.93962  1.0000
  C   C693      1.0  0.65602  0.43017  0.90407  1.0000
  C   C694      1.0  0.67516  0.42941  0.91708  1.0000
  C   C695      1.0  0.69369  0.44509  0.91280  1.0000
  C   C696      1.0  0.69317  0.46180  0.89563  1.0000
  C   C697      1.0  0.67403  0.46255  0.88265  1.0000
  C   C698      1.0  0.65560  0.44678  0.88682  1.0000
  H   H1109     1.0  0.67572  0.41672  0.93042  1.0000
  H   H1110     1.0  0.70845  0.44430  0.92291  1.0000
  H   H1111     1.0  0.67358  0.47504  0.86917  1.0000
  H   H1112     1.0  0.64095  0.44741  0.87659  1.0000
  H   H1113     1.0  0.65011  0.31769  0.86073  1.0000
  C   C699      1.0  0.77703  0.52074  0.88579  1.0000
  C   C700      1.0  0.69197  0.04347  0.92211  1.0000
  H   H1114     1.0  0.55286  0.12022  0.93447  1.0000
  H   H1115     1.0  0.67816  0.30457  0.86748  1.0000
  C   C701      1.0  0.65299  0.22184  0.95849  1.0000
  C   C702      1.0  0.64369  0.22489  0.93849  1.0000
  C   C703      1.0  0.63875  0.24773  0.92978  1.0000
  C   C704      1.0  0.64233  0.26772  0.94121  1.0000
  C   C705      1.0  0.65138  0.26468  0.96131  1.0000
  C   C706      1.0  0.65692  0.24185  0.96978  1.0000
  H   H1116     1.0  0.64081  0.20966  0.92955  1.0000
  H   H1117     1.0  0.63186  0.24988  0.91417  1.0000
  H   H1118     1.0  0.65437  0.27989  0.97025  1.0000
  S   S287      1.0  0.55655  0.36140  0.98489  1.0000
  Fe  Fe143     1.0  0.63063  0.11112  0.98280  1.0000
  C   C707      1.0  0.66328  0.05548  0.88867  1.0000
  C   C708      1.0  0.66284  0.07004  0.90599  1.0000
  C   C709      1.0  0.67711  0.06378  0.92283  1.0000
  N   N71       1.0  0.57780  0.22643  0.97580  1.0000
  H   H1119     1.0  0.68994  0.34813  0.90704  1.0000
  H   H1120     1.0  0.65237  0.06023  0.87554  1.0000
  H   H1121     1.0  0.67710  0.07491  0.93616  1.0000
  H   H1122     1.0  0.60000  0.19975  0.96116  1.0000
  C   C710      1.0  0.63700  0.49093  0.93029  1.0000
  C   C711      1.0  0.64720  0.34937  0.89066  1.0000
  C   C712      1.0  0.68464  0.33168  0.90006  1.0000
  C   C713      1.0  0.68080  0.35185  0.86583  1.0000
  H   H1123     1.0  0.68553  0.36895  0.87203  1.0000
  H   H1124     1.0  0.65335  0.30282  0.88617  1.0000
  H   H1125     1.0  0.63493  0.35401  0.87789  1.0000
  H   H1126     1.0  0.64220  0.49006  0.94700  1.0000
  C   C714      1.0  0.63296  0.51497  0.89801  1.0000
  H   H1127     1.0  0.54759  0.20465  0.97731  1.0000
  H   H1128     1.0  0.76072  0.51130  0.89108  1.0000
  H   H1129     1.0  0.65140  0.36605  0.89782  1.0000
  H   H1130     1.0  0.55980  0.21119  0.95113  1.0000
  H   H1131     1.0  0.64315  0.50181  0.88854  1.0000
  C   C715      1.0  0.66235  0.31453  0.87378  1.0000
  C   C716      1.0  0.59495  0.20636  0.97710  1.0000
  C   C717      1.0  0.79509  0.51020  0.91868  1.0000
  H   H1132     1.0  0.52435  0.09704  0.98103  1.0000
  H   H1133     1.0  0.66933  0.35601  0.85235  1.0000
  H   H1134     1.0  0.78886  0.50824  0.87698  1.0000
  H   H1135     1.0  0.60436  0.25179  0.96827  1.0000
  C   C718      1.0  0.53576  0.12484  0.94172  1.0000
  H   H1136     1.0  0.54294  0.23353  0.96501  1.0000
  H   H1137     1.0  0.67598  0.32062  0.91311  1.0000
  H   H1138     1.0  0.69731  0.34311  0.85947  1.0000
  H   H1139     1.0  0.70097  0.32195  0.89462  1.0000
  C   C719      1.0  0.58792  0.24563  0.96197  1.0000
  H   H1140     1.0  0.63745  0.33841  0.90304  1.0000
  C   C720      1.0  0.53209  0.35486  0.97048  1.0000
  S   S288      1.0  0.61596  0.14764  0.98608  1.0000
  N   N72       1.0  0.64059  0.51456  0.91999  1.0000
  H   H1141     1.0  0.57557  0.26117  0.96060  1.0000
  C   C721      1.0  0.53355  0.14259  0.95621  1.0000
  H   H1142     1.0  0.64774  0.47719  0.92193  1.0000
  H   H1143     1.0  0.80757  0.49745  0.91084  1.0000
  H   H1144     1.0  0.61827  0.48590  0.93027  1.0000
  H   H1145     1.0  0.77931  0.50033  0.92471  1.0000
  H   H1146     1.0  0.66425  0.23967  0.98521  1.0000
  H   H1147     1.0  0.80366  0.51651  0.93263  1.0000
  C   C722      1.0  0.55603  0.21872  0.96693  1.0000
  H   H1148     1.0  0.58758  0.19134  0.98697  1.0000
  Fe  Fe144     1.0  0.71220  0.51555  0.87084  1.0000
  H   H1149     1.0  0.55254  0.08792  0.96958  1.0000
  H   H1150     1.0  0.67683  0.50729  0.91038  1.0000
  H   H1151     1.0  0.57217  0.11554  0.99089  1.0000
  C   C723      1.0  0.69243  0.02891  0.90480  1.0000
  H   H1152     1.0  0.67803  0.02390  0.87469  1.0000
  H   H1153     1.0  0.61400  0.51101  0.89757  1.0000
  H   H1154     1.0  0.67235  0.51935  0.93600  1.0000
  C   C724      1.0  0.53967  0.08459  0.98323  1.0000
  H   H1155     1.0  0.58409  0.07309  0.99282  1.0000
  S   S289      1.0  0.71222  0.97985  0.09339  1.0000
  H   H1156     1.0  0.55813  0.66386  0.01163  1.0000
  S   S290      1.0  0.59402  0.63943  0.04147  1.0000
  H   H1157     1.0  0.66356  0.68602  0.11644  1.0000
  H   H1158     1.0  0.70664  0.00443  0.01506  1.0000
  S   S291      1.0  0.65029  0.64606  0.03041  1.0000
  S   S292      1.0  0.62321  0.60064  0.01282  1.0000
  Fe  Fe145     1.0  0.62727  0.61707  0.04382  1.0000
  S   S293      1.0  0.63259  0.59735  0.07540  1.0000
  Fe  Fe146     1.0  0.61683  0.66746  0.02567  1.0000
  S   S294      1.0  0.60518  0.70384  0.03659  1.0000
  S   S295      1.0  0.60818  0.84338  0.00783  1.0000
  H   H1159     1.0  0.66289  0.63566  0.10075  1.0000
  C   C725      1.0  0.66589  0.65102  0.08936  1.0000
  S   S296      1.0  0.65108  0.87297  0.02535  1.0000
  N   N73       1.0  0.66624  0.95612  0.15333  1.0000
  Fe  Fe147     1.0  0.58495  0.85698  0.03449  1.0000
  S   S297      1.0  0.61142  0.84871  0.05917  1.0000
  S   S298      1.0  0.54866  0.84188  0.03507  1.0000
  Fe  Fe148     1.0  0.62471  0.88537  0.05066  1.0000
  S   S299      1.0  0.62869  0.91349  0.07476  1.0000
  Fe  Fe149     1.0  0.63528  0.83705  0.03186  1.0000
  S   S300      1.0  0.65642  0.80230  0.02987  1.0000
  S   S301      1.0  0.59596  0.89419  0.02808  1.0000
  H   H1160     1.0  0.68805  0.00197  0.05177  1.0000
  C   C726      1.0  0.62409  0.65912  0.08830  1.0000
  H   H1161     1.0  0.64210  0.96422  0.17946  1.0000
  C   C727      1.0  0.61982  0.73099  0.03351  1.0000
  C   C728      1.0  0.60693  0.75186  0.03792  1.0000
  C   C729      1.0  0.61784  0.77378  0.03653  1.0000
  C   C730      1.0  0.64193  0.77505  0.03112  1.0000
  C   C731      1.0  0.65486  0.75418  0.02666  1.0000
  C   C732      1.0  0.64385  0.73226  0.02768  1.0000
  H   H1162     1.0  0.58838  0.75113  0.04253  1.0000
  H   H1163     1.0  0.60765  0.78968  0.04001  1.0000
  H   H1164     1.0  0.68492  0.97303  0.17663  1.0000
  H   H1165     1.0  0.65402  0.71636  0.02424  1.0000
  C   C733      1.0  0.68869  0.96294  0.08579  1.0000
  C   C734      1.0  0.66512  0.97033  0.08904  1.0000
  C   C735      1.0  0.64695  0.95527  0.08492  1.0000
  C   C736      1.0  0.65205  0.93304  0.07671  1.0000
  C   C737      1.0  0.67561  0.92622  0.07233  1.0000
  C   C738      1.0  0.69381  0.94105  0.07699  1.0000
  H   H1166     1.0  0.66084  0.98748  0.09503  1.0000
  H   H1167     1.0  0.62878  0.96077  0.08824  1.0000
  H   H1168     1.0  0.67983  0.90910  0.06619  1.0000
  H   H1169     1.0  0.71197  0.93519  0.07425  1.0000
  C   C739      1.0  0.65271  0.55835  0.09550  1.0000
  C   C740      1.0  0.65431  0.57448  0.07792  1.0000
  C   C741      1.0  0.67348  0.57252  0.06323  1.0000
  C   C742      1.0  0.69116  0.55490  0.06641  1.0000
  H   H1170     1.0  0.63804  0.55984  0.10702  1.0000
  H   H1171     1.0  0.67499  0.58490  0.04967  1.0000
  H   H1172     1.0  0.65753  0.99323  0.15251  1.0000
  C   C743      1.0  0.64655  0.67812  0.11332  1.0000
  H   H1173     1.0  0.66671  0.64394  0.07327  1.0000
  N   N74       1.0  0.64698  0.66937  0.09173  1.0000
  H   H1174     1.0  0.67352  0.75496  0.02246  1.0000
  C   C744      1.0  0.54552  0.70758  0.02303  1.0000
  H   H1175     1.0  0.54771  0.61817  0.04083  1.0000
  Fe  Fe150     1.0  0.70963  0.01294  0.11240  1.0000
  H   H1176     1.0  0.64538  0.97761  0.13203  1.0000
  H   H1177     1.0  0.64914  0.93335  0.17718  1.0000
  C   C745      1.0  0.67012  0.54044  0.09843  1.0000
  H   H1178     1.0  0.53323  0.72079  0.03041  1.0000
  H   H1179     1.0  0.68349  0.65795  0.09192  1.0000
  C   C746      1.0  0.64590  0.95023  0.16795  1.0000
  H   H1180     1.0  0.65148  0.68329  0.05950  1.0000
  H   H1181     1.0  0.70619  0.55382  0.05521  1.0000
  C   C747      1.0  0.65126  0.68914  0.07600  1.0000
  H   H1182     1.0  0.68604  0.94117  0.12706  1.0000
  C   C748      1.0  0.53133  0.61913  0.03293  1.0000
  H   H1183     1.0  0.62970  0.94839  0.15915  1.0000
  C   C749      1.0  0.69091  0.02118  0.05227  1.0000
  H   H1184     1.0  0.66842  0.69731  0.07799  1.0000
  H   H1185     1.0  0.53784  0.88307  0.05965  1.0000
  H   H1186     1.0  0.62419  0.65181  0.07241  1.0000
  H   H1187     1.0  0.63718  0.70320  0.07724  1.0000
  C   C750      1.0  0.52240  0.87897  0.05147  1.0000
  Fe  Fe151     1.0  0.59192  0.62553  0.00936  1.0000
  C   C751      1.0  0.68736  0.95842  0.16556  1.0000
  H   H1188     1.0  0.62008  0.64427  0.09998  1.0000
  H   H1189     1.0  0.69150  0.94195  0.17507  1.0000
  H   H1190     1.0  0.60937  0.67250  0.08928  1.0000
  H   H1191     1.0  0.63238  0.69189  0.11565  1.0000
  H   H1192     1.0  0.73058  0.99514  0.04648  1.0000
  C   C752      1.0  0.66110  0.97866  0.14160  1.0000
  S   S302      1.0  0.71680  0.01345  0.14694  1.0000
  H   H1193     1.0  0.64335  0.66364  0.12557  1.0000
  C   C753      1.0  0.67062  0.93733  0.13818  1.0000
  H   H1194     1.0  0.70312  0.96233  0.15487  1.0000
  H   H1195     1.0  0.74937  0.01905  0.03794  1.0000
  C   C754      1.0  0.68956  0.53878  0.08400  1.0000
  H   H1196     1.0  0.65523  0.93541  0.12831  1.0000
  H   H1197     1.0  0.67428  0.91996  0.14645  1.0000
  C   C755      1.0  0.53151  0.61772  0.01093  1.0000
  Fe  Fe152     1.0  0.62158  0.87984  0.00345  1.0000
  H   H1198     1.0  0.67623  0.98376  0.13064  1.0000
  C   C756      1.0  0.52367  0.86081  0.03735  1.0000
  N   N75       1.0  0.53349  0.69315  0.00844  1.0000
  H   H1199     1.0  0.56031  0.71724  0.01468  1.0000
  H   H1200     1.0  0.55330  0.69643  0.03605  1.0000
  Fe  Fe153     1.0  0.64384  0.63121  0.99900  1.0000
  C   C757      1.0  0.73288  0.01443  0.04726  1.0000
  H   H1201     1.0  0.66886  0.52836  0.11220  1.0000
  C   C758      1.0  0.55061  0.67596  0.99916  1.0000
  H   H1202     1.0  0.73553  0.01766  0.06414  1.0000
  H   H1203     1.0  0.65245  0.52792  0.05399  1.0000
  H   H1204     1.0  0.62454  0.52252  0.04378  1.0000
  H   H1205     1.0  0.52103  0.66896  0.03347  1.0000
  C   C759      1.0  0.92314  0.60657  0.38661  1.0000
  H   H1206     1.0  0.87434  0.98936  0.38844  1.0000
  C   C760      1.0  0.93958  0.57847  0.36220  1.0000
  H   H1207     1.0  0.92616  0.58374  0.35054  1.0000
  H   H1208     1.0  0.95524  0.58941  0.35834  1.0000
  H   H1209     1.0  0.94503  0.55979  0.35975  1.0000
  C   C761      1.0  0.83044  0.54118  0.39381  1.0000
  H   H1210     1.0  0.90912  0.61255  0.37575  1.0000
  H   H1211     1.0  0.93837  0.61826  0.38363  1.0000
  H   H1212     1.0  0.89517  0.57205  0.37773  1.0000
  Fe  Fe154     1.0  0.82458  0.01477  0.37398  1.0000
  N   N76       1.0  0.93015  0.58157  0.38414  1.0000
  H   H1213     1.0  0.85415  0.56480  0.37640  1.0000
  C   C762      1.0  0.90938  0.56687  0.38861  1.0000
  H   H1214     1.0  0.83096  0.52854  0.38159  1.0000
  C   C763      1.0  0.84376  0.56164  0.39101  1.0000
  C   C764      1.0  0.87224  0.97096  0.39305  1.0000
  C   C765      1.0  0.84935  0.93589  0.39428  1.0000
  S   S303      1.0  0.82931  0.97502  0.37420  1.0000
  C   C766      1.0  0.85170  0.95989  0.38842  1.0000
  H   H1215     1.0  0.91384  0.54786  0.38685  1.0000
  H   H1216     1.0  0.83359  0.92718  0.39065  1.0000
  H   H1217     1.0  0.88839  0.87517  0.52136  1.0000
  H   H1218     1.0  0.72010  0.61781  0.56248  1.0000
  H   H1219     1.0  0.89276  0.89196  0.55626  1.0000
  H   H1220     1.0  0.95005  0.90858  0.44609  1.0000
  Fe  Fe155     1.0  0.92548  0.62719  0.44362  1.0000
  S   S304      1.0  0.96137  0.62278  0.42699  1.0000
  Fe  Fe156     1.0  0.88841  0.61027  0.47745  1.0000
  S   S305      1.0  0.85919  0.63171  0.46272  1.0000
  S   S306      1.0  0.88304  0.58303  0.50428  1.0000
  Fe  Fe157     1.0  0.87533  0.61941  0.43169  1.0000
  Fe  Fe158     1.0  0.88595  0.66042  0.45915  1.0000
  S   S307      1.0  0.88031  0.69681  0.47213  1.0000
  S   S308      1.0  0.90254  0.59597  0.44684  1.0000
  S   S309      1.0  0.91428  0.63928  0.47585  1.0000
  Fe  Fe159     1.0  0.87966  0.86090  0.47801  1.0000
  S   S310      1.0  0.87528  0.86029  0.44292  1.0000
  S   S311      1.0  0.84686  0.86431  0.49954  1.0000
  Fe  Fe160     1.0  0.93296  0.85467  0.47293  1.0000
  S   S312      1.0  0.96644  0.85435  0.49056  1.0000
  Fe  Fe161     1.0  0.90618  0.88384  0.43967  1.0000
  Fe  Fe162     1.0  0.90179  0.82991  0.44440  1.0000
  S   S313      1.0  0.89783  0.79711  0.42606  1.0000
  S   S314      1.0  0.90868  0.88656  0.47473  1.0000
  S   S315      1.0  0.90400  0.82902  0.47972  1.0000
  C   C767      1.0  0.88587  0.72419  0.45872  1.0000
  C   C768      1.0  0.89056  0.74337  0.47072  1.0000
  C   C769      1.0  0.89476  0.76564  0.46082  1.0000
  C   C770      1.0  0.89365  0.76911  0.43887  1.0000
  H   H1221     1.0  0.85159  0.81359  0.50381  1.0000
  C   C771      1.0  0.83075  0.54934  0.48731  1.0000
  H   H1222     1.0  0.89118  0.74092  0.48777  1.0000
  H   H1223     1.0  0.89898  0.78009  0.47015  1.0000
  H   H1224     1.0  0.97714  0.83173  0.45095  1.0000
  S   S316      1.0  0.77809  0.54556  0.59210  1.0000
  C   C772      1.0  0.99317  0.84803  0.47623  1.0000
  C   C773      1.0  0.99342  0.83706  0.45696  1.0000
  S   S317      1.0  0.80744  0.60442  0.57890  1.0000
  H   H1225     1.0  0.74201  0.58608  0.58252  1.0000
  C   C774      1.0  0.98632  0.63196  0.43918  1.0000
  H   H1226     1.0  0.96796  0.71445  0.47656  1.0000
  H   H1227     1.0  0.01498  0.82384  0.43081  1.0000
  H   H1228     1.0  0.96218  0.68435  0.47219  1.0000
  N   N77       1.0  0.84672  0.52926  0.48179  1.0000
  H   H1229     1.0  0.82168  0.55691  0.47330  1.0000
  H   H1230     1.0  0.86105  0.96046  0.50750  1.0000
  H   H1231     1.0  0.75009  0.64994  0.58730  1.0000
  S   S318      1.0  0.86087  0.60326  0.40324  1.0000
  C   C775      1.0  0.82796  0.59857  0.55772  1.0000
  C   C776      1.0  0.83824  0.57604  0.55591  1.0000
  C   C777      1.0  0.85533  0.57166  0.53967  1.0000
  C   C778      1.0  0.86182  0.58957  0.52466  1.0000
  C   C779      1.0  0.85105  0.61198  0.52598  1.0000
  C   C780      1.0  0.83426  0.61651  0.54260  1.0000
  H   H1232     1.0  0.83312  0.56194  0.56705  1.0000
  H   H1233     1.0  0.86360  0.55432  0.53887  1.0000
  H   H1234     1.0  0.85594  0.62592  0.51446  1.0000
  H   H1235     1.0  0.82634  0.63397  0.54384  1.0000
  H   H1236     1.0  0.86515  0.78751  0.49334  1.0000
  C   C781      1.0  0.85048  0.87722  0.52376  1.0000
  C   C782      1.0  0.83054  0.88391  0.53633  1.0000
  C   C783      1.0  0.83298  0.89363  0.55600  1.0000
  C   C784      1.0  0.85541  0.89642  0.56330  1.0000
  C   C785      1.0  0.87535  0.88986  0.55070  1.0000
  C   C786      1.0  0.87291  0.88041  0.53090  1.0000
  H   H1237     1.0  0.81315  0.88145  0.53087  1.0000
  H   H1238     1.0  0.81750  0.89841  0.56570  1.0000
  S   S319      1.0  0.93254  0.85348  0.43764  1.0000
  S   S320      1.0  0.79843  0.00833  0.58459  1.0000
  C   C787      1.0  0.96899  0.90458  0.44859  1.0000
  H   H1239     1.0  0.91590  0.60945  0.40294  1.0000
  H   H1240     1.0  0.97445  0.91639  0.46075  1.0000
  C   C788      1.0  0.71307  0.62454  0.57787  1.0000
  C   C789      1.0  0.84358  0.57796  0.40697  1.0000
  C   C790      1.0  0.88812  0.93393  0.40876  1.0000
  S   S321      1.0  0.79715  0.94214  0.58570  1.0000
  H   H1241     1.0  0.69580  0.61632  0.58186  1.0000
  H   H1242     1.0  0.86537  0.90452  0.40890  1.0000
  C   C791      1.0  0.98003  0.93158  0.41938  1.0000
  C   C792      1.0  0.98344  0.70401  0.43684  1.0000
  C   C793      1.0  0.98439  0.64107  0.45931  1.0000
  H   H1243     1.0  0.96763  0.64119  0.46821  1.0000
  H   H1244     1.0  0.79632  0.81033  0.47569  1.0000
  H   H1245     1.0  0.81515  0.77416  0.46096  1.0000
  S   S322      1.0  0.89913  0.65033  0.42665  1.0000
  N   N78       1.0  0.85150  0.97377  0.53815  1.0000
  H   H1246     1.0  0.88078  0.95141  0.52786  1.0000
  C   C794      1.0  0.86195  0.95524  0.52465  1.0000
  C   C795      1.0  0.69872  0.96596  0.58953  1.0000
  H   H1247     1.0  0.98913  0.68522  0.43910  1.0000
  H   H1248     1.0  0.87496  0.55176  0.47092  1.0000
  C   C796      1.0  0.86733  0.92302  0.40466  1.0000
  C   C797      1.0  0.86431  0.99583  0.53382  1.0000
  H   H1249     1.0  0.87181  0.96280  0.56487  1.0000
  H   H1250     1.0  0.00994  0.62408  0.41249  1.0000
  C   C798      1.0  0.95675  0.70290  0.46801  1.0000
  H   H1251     1.0  0.96330  0.74522  0.44733  1.0000
  C   C799      1.0  0.00831  0.63124  0.42801  1.0000
  H   H1252     1.0  0.85684  0.01011  0.54383  1.0000
  C   C800      1.0  0.00413  0.65054  0.46773  1.0000
  H   H1253     1.0  0.84066  0.78521  0.51233  1.0000
  C   C801      1.0  0.82769  0.77360  0.47388  1.0000
  H   H1254     1.0  0.85937  0.80499  0.45739  1.0000
  H   H1255     1.0  0.93821  0.70548  0.47441  1.0000
  H   H1256     1.0  0.95194  0.73733  0.42276  1.0000
  N   N79       1.0  0.83159  0.79744  0.48096  1.0000
  S   S323      1.0  0.85898  0.90778  0.58820  1.0000
  C   C802      1.0  0.88534  0.72744  0.43669  1.0000
  H   H1257     1.0  0.85649  0.54379  0.45060  1.0000
  C   C803      1.0  0.00862  0.90294  0.43297  1.0000
  H   H1258     1.0  0.88153  0.71282  0.42730  1.0000
  C   C804      1.0  0.84794  0.79584  0.49838  1.0000
  H   H1259     1.0  0.70971  0.64385  0.57544  1.0000
  H   H1260     1.0  0.84440  0.76516  0.46756  1.0000
  C   C805      1.0  0.84181  0.81208  0.46303  1.0000
  H   H1261     1.0  0.88825  0.75242  0.40981  1.0000
  H   H1262     1.0  0.02017  0.90456  0.41822  1.0000
  H   H1263     1.0  0.81807  0.99194  0.54341  1.0000
  H   H1264     1.0  0.84400  0.94926  0.56433  1.0000
  H   H1265     1.0  0.01465  0.91547  0.44428  1.0000
  H   H1266     1.0  0.96122  0.93525  0.41581  1.0000
  H   H1267     1.0  0.84051  0.56384  0.49352  1.0000
  H   H1268     1.0  0.94849  0.67359  0.43743  1.0000
  H   H1269     1.0  0.90172  0.56892  0.40502  1.0000
  H   H1270     1.0  0.94392  0.69607  0.41694  1.0000
  H   H1271     1.0  0.86331  0.00232  0.51697  1.0000
  C   C806      1.0  0.94330  0.69247  0.43441  1.0000
  C   C807      1.0  0.81524  0.55418  0.42778  1.0000
  H   H1272     1.0  0.00245  0.65818  0.48306  1.0000
  H   H1273     1.0  0.80342  0.55179  0.44163  1.0000
  N   N80       1.0  0.98354  0.90738  0.42860  1.0000
  H   H1274     1.0  0.01166  0.88486  0.44015  1.0000
  C   C808      1.0  0.01488  0.83247  0.44565  1.0000
  H   H1275     1.0  0.97033  0.88628  0.45543  1.0000
  H   H1276     1.0  0.84507  0.97930  0.57135  1.0000
  H   H1277     1.0  0.94194  0.57683  0.41584  1.0000
  C   C809      1.0  0.82647  0.97799  0.53354  1.0000
  H   H1278     1.0  0.87734  0.52261  0.46124  1.0000
  C   C810      1.0  0.73839  0.97991  0.58750  1.0000
  H   H1279     1.0  0.85262  0.93837  0.52755  1.0000
  N   N81       1.0  0.72966  0.61914  0.59474  1.0000
  H   H1280     1.0  0.92464  0.69475  0.44041  1.0000
  C   C811      1.0  0.81615  0.53736  0.41228  1.0000
  H   H1281     1.0  0.82054  0.76182  0.48711  1.0000
  H   H1282     1.0  0.98489  0.94491  0.43048  1.0000
  H   H1283     1.0  0.97909  0.87189  0.41984  1.0000
  H   H1284     1.0  0.82449  0.98380  0.51662  1.0000
  H   H1285     1.0  0.99582  0.71450  0.44521  1.0000
  S   S324      1.0  0.91203  0.91788  0.42000  1.0000
  C   C812      1.0  0.95163  0.73293  0.44013  1.0000
  H   H1286     1.0  0.95410  0.55564  0.39785  1.0000
  H   H1287     1.0  0.82842  0.58691  0.43749  1.0000
  N   N82       1.0  0.95880  0.70807  0.44485  1.0000
  C   C813      1.0  0.80895  0.80841  0.48853  1.0000
  H   H1288     1.0  0.83041  0.81311  0.44926  1.0000
  H   H1289     1.0  0.74566  0.96160  0.58992  1.0000
  H   H1290     1.0  0.80059  0.79781  0.50199  1.0000
  H   H1291     1.0  0.81705  0.54411  0.49973  1.0000
  H   H1292     1.0  0.86983  0.53361  0.50689  1.0000
  C   C814      1.0  0.88909  0.74988  0.42683  1.0000
  H   H1293     1.0  0.84410  0.83038  0.46768  1.0000
  H   H1294     1.0  0.93346  0.73677  0.44653  1.0000
  C   C815      1.0  0.85319  0.96600  0.56067  1.0000
  H   H1295     1.0  0.81151  0.82638  0.49411  1.0000
  C   C816      1.0  0.82924  0.57413  0.42538  1.0000
  H   H1296     1.0  0.81623  0.96177  0.53685  1.0000
  H   H1297     1.0  0.98568  0.70870  0.41957  1.0000
  H   H1298     1.0  0.90653  0.96651  0.40595  1.0000
  H   H1299     1.0  0.88325  0.99335  0.53717  1.0000
  H   H1300     1.0  0.95746  0.89298  0.41011  1.0000
  C   C817      1.0  0.97643  0.89037  0.41349  1.0000
  C   C818      1.0  0.86467  0.53718  0.46541  1.0000
  C   C819      1.0  0.75227  0.63045  0.58896  1.0000
  H   H1301     1.0  0.69707  0.96928  0.57218  1.0000
  H   H1302     1.0  0.01439  0.86293  0.49898  1.0000
  H   H1303     1.0  0.73813  0.98387  0.57011  1.0000
  C   C820      1.0  0.01449  0.85446  0.48406  1.0000
  H   H1304     1.0  0.99079  0.93442  0.40430  1.0000
  H   H1305     1.0  0.70416  0.01135  0.57680  1.0000
  H   H1306     1.0  0.76028  0.62427  0.57368  1.0000
  C   C821      1.0  0.89049  0.95795  0.40293  1.0000
  H   H1307     1.0  0.70535  0.94744  0.59206  1.0000
  C   C822      1.0  0.94843  0.57443  0.39914  1.0000
  C   C823      1.0  0.70555  0.00701  0.59407  1.0000
  H   H1308     1.0  0.75103  0.99192  0.59381  1.0000
  H   H1309     1.0  0.96433  0.58528  0.39630  1.0000
  H   H1310     1.0  0.98679  0.89221  0.39810  1.0000
  S   S325      1.0  0.89599  0.78509  0.74297  1.0000
  Fe  Fe163     1.0  0.88177  0.62746  0.74866  1.0000
  S   S326      1.0  0.85871  0.63024  0.72053  1.0000
  H   H1311     1.0  0.64617  0.90821  0.75839  1.0000
  Fe  Fe164     1.0  0.90306  0.87230  0.74379  1.0000
  S   S327      1.0  0.90460  0.89777  0.71520  1.0000
  Fe  Fe165     1.0  0.80770  0.94380  0.64521  1.0000
  S   S328      1.0  0.77642  0.96226  0.63068  1.0000
  S   S329      1.0  0.80917  0.94064  0.68074  1.0000
  C   C824      1.0  0.99584  0.87262  0.77083  1.0000
  H   H1312     1.0  0.60249  0.92330  0.76358  1.0000
  C   C825      1.0  0.70012  0.84495  0.63646  1.0000
  Fe  Fe166     1.0  0.77401  0.92911  0.61353  1.0000
  H   H1313     1.0  0.87175  0.52850  0.63357  1.0000
  S   S330      1.0  0.83383  0.95860  0.62046  1.0000
  S   S331      1.0  0.80373  0.90986  0.62949  1.0000
  Fe  Fe167     1.0  0.60818  0.61804  0.73275  1.0000
  S   S332      1.0  0.60842  0.60560  0.69960  1.0000
  S   S333      1.0  0.60624  0.59569  0.76319  1.0000
  Fe  Fe168     1.0  0.60791  0.66994  0.71854  1.0000
  S   S334      1.0  0.60810  0.66228  0.68408  1.0000
  S   S335      1.0  0.60718  0.70384  0.73565  1.0000
  Fe  Fe169     1.0  0.58123  0.63507  0.69451  1.0000
  S   S336      1.0  0.54804  0.63165  0.67656  1.0000
  Fe  Fe170     1.0  0.63509  0.63352  0.69187  1.0000
  S   S337      1.0  0.67146  0.63101  0.67522  1.0000
  S   S338      1.0  0.57914  0.64512  0.72824  1.0000
  S   S339      1.0  0.63680  0.64349  0.72563  1.0000
  Fe  Fe171     1.0  0.63478  0.86191  0.73819  1.0000
  S   S340      1.0  0.61677  0.89471  0.72527  1.0000
  S   S341      1.0  0.65280  0.85813  0.76919  1.0000
  Fe  Fe172     1.0  0.62281  0.83406  0.70068  1.0000
  S   S342      1.0  0.60386  0.86503  0.68472  1.0000
  S   S343      1.0  0.62747  0.80013  0.68359  1.0000
  Fe  Fe173     1.0  0.63450  0.88559  0.69398  1.0000
  S   S344      1.0  0.65226  0.91495  0.67405  1.0000
  Fe  Fe174     1.0  0.58784  0.87119  0.71737  1.0000
  S   S345      1.0  0.55036  0.88027  0.72946  1.0000
  S   S346      1.0  0.65451  0.85428  0.70758  1.0000
  S   S347      1.0  0.60477  0.83880  0.73262  1.0000
  Fe  Fe175     1.0  0.81347  0.54527  0.64249  1.0000
  H   H1314     1.0  0.84080  0.57231  0.77535  1.0000
  S   S348      1.0  0.83657  0.54047  0.67043  1.0000
  H   H1315     1.0  0.53429  0.62570  0.72157  1.0000
  Fe  Fe176     1.0  0.76457  0.54474  0.62621  1.0000
  S   S349      1.0  0.72509  0.54369  0.63390  1.0000
  H   H1316     1.0  0.84455  0.01077  0.60220  1.0000
  S   S350      1.0  0.78682  0.57419  0.63497  1.0000
  S   S351      1.0  0.83103  0.54701  0.60995  1.0000
  C   C826      1.0  0.68939  0.82349  0.66928  1.0000
  H   H1317     1.0  0.67532  0.81412  0.67895  1.0000
  C   C827      1.0  0.62180  0.77344  0.69821  1.0000
  C   C828      1.0  0.61681  0.77295  0.72011  1.0000
  C   C829      1.0  0.61236  0.75149  0.73139  1.0000
  C   C830      1.0  0.61291  0.73037  0.72088  1.0000
  C   C831      1.0  0.61802  0.73081  0.69899  1.0000
  C   C832      1.0  0.62248  0.75230  0.68770  1.0000
  H   H1318     1.0  0.61652  0.78904  0.72842  1.0000
  H   H1319     1.0  0.60851  0.75126  0.74833  1.0000
  H   H1320     1.0  0.61854  0.71462  0.69076  1.0000
  H   H1321     1.0  0.62635  0.75253  0.67077  1.0000
  C   C833      1.0  0.68557  0.60565  0.66502  1.0000
  C   C834      1.0  0.67316  0.58843  0.65578  1.0000
  C   C835      1.0  0.68545  0.56932  0.64650  1.0000
  C   C836      1.0  0.71013  0.56730  0.64646  1.0000
  C   C837      1.0  0.72241  0.58428  0.65609  1.0000
  C   C838      1.0  0.71019  0.60342  0.66520  1.0000
  Fe  Fe177     1.0  0.93065  0.61862  0.76662  1.0000
  S   S352      1.0  0.90483  0.82677  0.79078  1.0000
  H   H1322     1.0  0.74135  0.58274  0.65648  1.0000
  H   H1323     1.0  0.71988  0.61669  0.67235  1.0000
  S   S353      1.0  0.70000  0.54648  0.79465  1.0000
  H   H1324     1.0  0.67583  0.55628  0.63898  1.0000
  H   H1325     1.0  0.64466  0.63409  0.77547  1.0000
  H   H1326     1.0  0.69445  0.85200  0.62074  1.0000
  H   H1327     1.0  0.70438  0.94003  0.76952  1.0000
  C   C839      1.0  0.71629  0.91082  0.62714  1.0000
  C   C840      1.0  0.69392  0.90516  0.62112  1.0000
  C   C841      1.0  0.67454  0.90519  0.63585  1.0000
  C   C842      1.0  0.67738  0.91038  0.65691  1.0000
  C   C843      1.0  0.69985  0.91570  0.66306  1.0000
  C   C844      1.0  0.71930  0.91587  0.64823  1.0000
  H   H1328     1.0  0.60853  0.88120  0.77399  1.0000
  H   H1329     1.0  0.65714  0.90203  0.63075  1.0000
  H   H1330     1.0  0.70207  0.92045  0.67914  1.0000
  H   H1331     1.0  0.73646  0.92040  0.65301  1.0000
  C   C845      1.0  0.87808  0.91121  0.70703  1.0000
  C   C846      1.0  0.87848  0.92593  0.68854  1.0000
  C   C847      1.0  0.85739  0.93482  0.68020  1.0000
  C   C848      1.0  0.83583  0.92976  0.69083  1.0000
  C   C849      1.0  0.83547  0.91586  0.70982  1.0000
  C   C850      1.0  0.85653  0.90636  0.71779  1.0000
  H   H1332     1.0  0.89517  0.93015  0.68046  1.0000
  H   H1333     1.0  0.85782  0.94594  0.66580  1.0000
  H   H1334     1.0  0.81882  0.91210  0.71819  1.0000
  H   H1335     1.0  0.85608  0.89524  0.73218  1.0000
  C   C851      1.0  0.85393  0.60537  0.70595  1.0000
  C   C852      1.0  0.83816  0.60748  0.68962  1.0000
  C   C853      1.0  0.83291  0.58776  0.67847  1.0000
  C   C854      1.0  0.84329  0.56573  0.68367  1.0000
  C   C855      1.0  0.85913  0.56361  0.69994  1.0000
  C   C856      1.0  0.86457  0.58339  0.71094  1.0000
  H   H1336     1.0  0.82992  0.62443  0.68561  1.0000
  H   H1337     1.0  0.82078  0.58964  0.66590  1.0000
  H   H1338     1.0  0.86732  0.54665  0.70400  1.0000
  H   H1339     1.0  0.87693  0.58156  0.72330  1.0000
  C   C857      1.0  0.99244  0.85921  0.78985  1.0000
  C   C858      1.0  0.67425  0.56812  0.70803  1.0000
  C   C859      1.0  0.89816  0.71657  0.78433  1.0000
  C   C860      1.0  0.63268  0.58358  0.77261  1.0000
  C   C861      1.0  0.65417  0.58761  0.76147  1.0000
  C   C862      1.0  0.67492  0.57647  0.76852  1.0000
  Fe  Fe178     1.0  0.93246  0.85264  0.77970  1.0000
  H   H1340     1.0  0.65408  0.85595  0.63638  1.0000
  H   H1341     1.0  0.65466  0.59894  0.74722  1.0000
  H   H1342     1.0  0.65276  0.94336  0.77860  1.0000
  H   H1343     1.0  0.85098  0.74897  0.79007  1.0000
  H   H1344     1.0  0.72618  0.92357  0.75431  1.0000
  C   C863      1.0  0.64174  0.54471  0.72203  1.0000
  C   C864      1.0  0.65331  0.90607  0.77384  1.0000
  H   H1345     1.0  0.80063  0.55957  0.78482  1.0000
  H   H1346     1.0  0.72454  0.95516  0.75113  1.0000
  H   H1347     1.0  0.68931  0.79949  0.63383  1.0000
  C   C865      1.0  0.66403  0.53379  0.69027  1.0000
  H   H1348     1.0  0.88921  0.90477  0.65147  1.0000
  S   S354      1.0  0.86462  0.63534  0.78048  1.0000
  H   H1349     1.0  0.79975  0.79137  0.78417  1.0000
  H   H1350     1.0  0.70469  0.81092  0.66747  1.0000
  C   C866      1.0  0.66043  0.84842  0.65169  1.0000
  S   S355      1.0  0.87314  0.84830  0.75228  1.0000
  S   S356      1.0  0.90647  0.88327  0.77710  1.0000
  H   H1351     1.0  0.54467  0.86972  0.68526  1.0000
  H   H1352     1.0  0.69127  0.56840  0.69847  1.0000
  H   H1353     1.0  0.88531  0.73775  0.73481  1.0000
  Fe  Fe179     1.0  0.90156  0.82031  0.75661  1.0000
  C   C867      1.0  0.79562  0.56591  0.76867  1.0000
  H   H1354     1.0  0.65991  0.80218  0.64545  1.0000
  H   H1355     1.0  0.60656  0.65039  0.76408  1.0000
  N   N83       1.0  0.66542  0.54400  0.71115  1.0000
  N   N84       1.0  0.62319  0.65992  0.79175  1.0000
  H   H1356     1.0  0.64057  0.67616  0.76393  1.0000
  H   H1357     1.0  0.97795  0.65805  0.79055  1.0000
  H   H1358     1.0  0.74567  0.58862  0.61023  1.0000
  Fe  Fe180     1.0  0.80224  0.97394  0.60422  1.0000
  H   H1359     1.0  0.96537  0.66531  0.74374  1.0000
  N   N85       1.0  0.57913  0.90298  0.78459  1.0000
  C   C868      1.0  0.71612  0.97765  0.62112  1.0000
  C   C869      1.0  0.65874  0.88353  0.78247  1.0000
  H   H1360     1.0  0.81139  0.60038  0.79129  1.0000
  N   N86       1.0  0.87146  0.87311  0.64608  1.0000
  C   C870      1.0  0.89208  0.85824  0.65214  1.0000
  C   C871      1.0  0.86008  0.86267  0.62851  1.0000
  C   C872      1.0  0.87925  0.89693  0.63915  1.0000
  C   C873      1.0  0.85446  0.87462  0.66453  1.0000
  H   H1361     1.0  0.90098  0.86569  0.66546  1.0000
  H   H1362     1.0  0.90535  0.85681  0.63863  1.0000
  H   H1363     1.0  0.88690  0.84012  0.65750  1.0000
  H   H1364     1.0  0.84438  0.87347  0.62370  1.0000
  H   H1365     1.0  0.68298  0.53652  0.74016  1.0000
  H   H1366     1.0  0.70292  0.61935  0.62018  1.0000
  C   C874      1.0  0.63217  0.56952  0.79146  1.0000
  H   H1367     1.0  0.86403  0.90908  0.63564  1.0000
  Fe  Fe181     1.0  0.89706  0.65552  0.78513  1.0000
  C   C875      1.0  0.76401  0.94170  0.77074  1.0000
  H   H1368     1.0  0.83932  0.88692  0.66108  1.0000
  H   H1369     1.0  0.86287  0.88116  0.67842  1.0000
  H   H1370     1.0  0.99443  0.66136  0.75300  1.0000
  C   C876      1.0  0.99298  0.61029  0.79173  1.0000
  H   H1371     1.0  0.69151  0.57918  0.75969  1.0000
  S   S357      1.0  0.93133  0.84365  0.74564  1.0000
  C   C877      1.0  0.99337  0.69984  0.77596  1.0000
  H   H1372     1.0  0.54513  0.91781  0.79409  1.0000
  N   N87       1.0  0.68105  0.83224  0.64849  1.0000
  H   H1373     1.0  0.69490  0.83819  0.67863  1.0000
  H   H1374     1.0  0.72770  0.99014  0.62819  1.0000
  H   H1375     1.0  0.68163  0.53287  0.68162  1.0000
  S   S358      1.0  0.90134  0.59485  0.76002  1.0000
  C   C878      1.0  0.52537  0.87763  0.71438  1.0000
  H   H1376     1.0  0.63436  0.52686  0.72426  1.0000
  H   H1377     1.0  0.64543  0.83930  0.66014  1.0000
  H   H1378     1.0  0.76866  0.92533  0.76237  1.0000
  H   H1379     1.0  0.87226  0.86172  0.61415  1.0000
  H   H1380     1.0  0.57536  0.91627  0.75246  1.0000
  C   C879      1.0  0.58332  0.92108  0.76729  1.0000
  C   C880      1.0  0.90482  0.73766  0.79247  1.0000
  H   H1381     1.0  0.70561  0.86023  0.64513  1.0000
  N   N88       1.0  0.97298  0.68778  0.76862  1.0000
  C   C881      1.0  0.95418  0.70533  0.76334  1.0000
  H   H1382     1.0  0.58105  0.87409  0.76393  1.0000
  H   H1383     1.0  0.83699  0.81044  0.77120  1.0000
  N   N89       1.0  0.80972  0.58613  0.76064  1.0000
  H   H1384     1.0  0.73205  0.62490  0.62782  1.0000
  H   H1385     1.0  0.88602  0.70049  0.75706  1.0000
  Fe  Fe182     1.0  0.88556  0.60368  0.79219  1.0000
  C   C882      1.0  0.73374  0.59338  0.59723  1.0000
  H   H1386     1.0  0.71600  0.83333  0.63368  1.0000
  C   C883      1.0  0.89746  0.75887  0.75905  1.0000
  C   C884      1.0  0.67431  0.56188  0.78708  1.0000
  H   H1387     1.0  0.73605  0.97937  0.78011  1.0000
  S   S359      1.0  0.96892  0.61429  0.75452  1.0000
  S   S360      1.0  0.91221  0.65073  0.75223  1.0000
  H   H1388     1.0  0.69982  0.52873  0.71655  1.0000
  H   H1389     1.0  0.83877  0.56468  0.74844  1.0000
  H   H1390     1.0  0.98082  0.87851  0.76197  1.0000
  H   H1391     1.0  0.62374  0.69613  0.78003  1.0000
  N   N90       1.0  0.71468  0.98263  0.59805  1.0000
  H   H1392     1.0  0.80644  0.58019  0.72762  1.0000
  H   H1393     1.0  0.81243  0.60987  0.73312  1.0000
  C   C885      1.0  0.68172  0.52940  0.72418  1.0000
  H   H1394     1.0  0.62908  0.55607  0.71296  1.0000
  H   H1395     1.0  0.89096  0.89661  0.62446  1.0000
  C   C886      1.0  0.67422  0.81212  0.63659  1.0000
  H   H1396     1.0  0.65419  0.59017  0.65532  1.0000
  C   C887      1.0  0.55350  0.90088  0.78909  1.0000
  H   H1397     1.0  0.59216  0.64009  0.78838  1.0000
  H   H1398     1.0  0.98844  0.70962  0.79041  1.0000
  H   H1399     1.0  0.98707  0.68684  0.73637  1.0000
  H   H1400     1.0  0.84731  0.85715  0.66954  1.0000
  H   H1401     1.0  0.69847  0.97881  0.62959  1.0000
  H   H1402     1.0  0.77684  0.94297  0.78331  1.0000
  H   H1403     1.0  0.81602  0.62126  0.76935  1.0000
  H   H1404     1.0  0.84820  0.78207  0.76337  1.0000
  H   H1405     1.0  0.79825  0.55086  0.75815  1.0000
  C   C888      1.0  0.89082  0.73778  0.75091  1.0000
  H   H1406     1.0  0.78689  0.61131  0.77655  1.0000
  C   C889      1.0  0.89119  0.71666  0.76349  1.0000
  H   H1407     1.0  0.00051  0.71271  0.76359  1.0000
  C   C890      1.0  0.60189  0.65513  0.78059  1.0000
  H   H1408     1.0  0.78354  0.59890  0.73920  1.0000
  N   N91       1.0  0.73955  0.94159  0.77993  1.0000
  C   C891      1.0  0.99431  0.61299  0.76960  1.0000
  C   C892      1.0  0.90461  0.75874  0.77984  1.0000
  S   S361      1.0  0.73950  0.91265  0.60745  1.0000
  H   H1409     1.0  0.54466  0.89585  0.77476  1.0000
  H   H1410     1.0  0.65206  0.54461  0.68001  1.0000
  H   H1411     1.0  0.85421  0.84456  0.63298  1.0000
  C   C893      1.0  0.52741  0.87237  0.69299  1.0000
  H   H1412     1.0  0.76678  0.95691  0.75920  1.0000
  H   H1413     1.0  0.76543  0.62621  0.60114  1.0000
  Fe  Fe183     1.0  0.87871  0.85684  0.78585  1.0000
  H   H1414     1.0  0.67739  0.57579  0.72330  1.0000
  H   H1415     1.0  0.00792  0.68701  0.77995  1.0000
  C   C894      1.0  0.83494  0.57894  0.75961  1.0000
  C   C895      1.0  0.98032  0.67483  0.74958  1.0000
  Fe  Fe184     1.0  0.82713  0.92605  0.60341  1.0000
  H   H1416     1.0  0.86448  0.79876  0.78034  1.0000
  H   H1417     1.0  0.77646  0.57068  0.76978  1.0000
  C   C896      1.0  0.63536  0.67995  0.78068  1.0000
  C   C897      1.0  0.80579  0.60564  0.77509  1.0000
  C   C898      1.0  0.80265  0.59408  0.73922  1.0000
  H   H1418     1.0  0.64215  0.55183  0.73802  1.0000
  C   C899      1.0  0.71961  0.62811  0.61492  1.0000
  H   H1419     1.0  0.96009  0.71813  0.75040  1.0000
  H   H1420     1.0  0.69139  0.90150  0.60481  1.0000
  C   C900      1.0  0.72296  0.94002  0.76293  1.0000
  H   H1421     1.0  0.94833  0.71553  0.77731  1.0000
  H   H1422     1.0  0.84616  0.59396  0.75423  1.0000
  H   H1423     1.0  0.66461  0.86335  0.66131  1.0000
  H   H1424     1.0  0.91005  0.77483  0.78616  1.0000
  H   H1425     1.0  0.58964  0.67080  0.77963  1.0000
  H   H1426     1.0  0.66758  0.81807  0.62092  1.0000
  H   H1427     1.0  0.57556  0.93854  0.77152  1.0000
  H   H1428     1.0  0.93841  0.69669  0.75807  1.0000
  C   C901      1.0  0.65716  0.92596  0.78526  1.0000
  H   H1429     1.0  0.74012  0.90421  0.78723  1.0000
  C   C902      1.0  0.58938  0.88009  0.77810  1.0000
  H   H1430     1.0  0.68775  0.00975  0.60194  1.0000
  C   C903      1.0  0.63911  0.63883  0.79188  1.0000
  H   H1431     1.0  0.72353  0.95962  0.62461  1.0000
  H   H1432     1.0  0.71565  0.64739  0.61353  1.0000
  C   C904      1.0  0.96402  0.67107  0.78561  1.0000
  C   C905      1.0  0.01651  0.61501  0.75889  1.0000
  H   H1433     1.0  0.65157  0.68413  0.78856  1.0000
  H   H1434     1.0  0.71704  0.58409  0.60119  1.0000
  H   H1435     1.0  0.81181  0.76302  0.77715  1.0000
  C   C906      1.0  0.84638  0.79399  0.77682  1.0000
  H   H1436     1.0  0.94933  0.66091  0.78028  1.0000
  H   H1437     1.0  0.66149  0.58018  0.69978  1.0000
  H   H1438     1.0  0.58718  0.86608  0.79092  1.0000
  Fe  Fe185     1.0  0.80219  0.57285  0.60148  1.0000
  H   H1439     1.0  0.84836  0.90609  0.79347  1.0000
  C   C907      1.0  0.73435  0.96352  0.79106  1.0000
  C   C908      1.0  0.81045  0.77581  0.78994  1.0000
  H   H1440     1.0  0.68077  0.96717  0.59741  1.0000
  C   C909      1.0  0.01868  0.87914  0.76360  1.0000
  H   H1441     1.0  0.01771  0.61700  0.74177  1.0000
  H   H1442     1.0  0.71738  0.01999  0.60016  1.0000
  C   C910      1.0  0.73681  0.92111  0.79510  1.0000
  N   N92       1.0  0.83400  0.78269  0.79561  1.0000
  Fe  Fe186     1.0  0.71527  0.92045  0.88483  1.0000
  S   S362      1.0  0.74317  0.94688  0.88736  1.0000
  S   S363      1.0  0.71379  0.89035  0.90950  1.0000
  Fe  Fe187     1.0  0.69595  0.94597  0.84608  1.0000
  S   S364      1.0  0.72181  0.97488  0.84640  1.0000
  S   S365      1.0  0.67153  0.94877  0.81897  1.0000
  Fe  Fe188     1.0  0.74839  0.94522  0.85199  1.0000
  S   S366      1.0  0.78217  0.94666  0.83091  1.0000
  Fe  Fe189     1.0  0.71401  0.97398  0.88163  1.0000
  H   H1443     1.0  0.63747  0.82391  0.94137  1.0000
  S   S367      1.0  0.72281  0.91647  0.84993  1.0000
  S   S368      1.0  0.68581  0.94737  0.88093  1.0000
  Fe  Fe190     1.0  0.68488  0.56222  0.87237  1.0000
  S   S369      1.0  0.71664  0.54805  0.88868  1.0000
  S   S370      1.0  0.65370  0.57910  0.89007  1.0000
  Fe  Fe191     1.0  0.70335  0.54446  0.82999  1.0000
  C   C911      1.0  0.64855  0.79739  0.97557  1.0000
  H   H1444     1.0  0.80051  0.76737  0.80380  1.0000
  N   N93       1.0  0.66302  0.81598  0.96479  1.0000
  Fe  Fe192     1.0  0.73762  0.56182  0.85974  1.0000
  S   S371      1.0  0.76936  0.58432  0.86212  1.0000
  S   S372      1.0  0.67908  0.52896  0.85598  1.0000
  S   S373      1.0  0.70597  0.57894  0.84502  1.0000
  H   H1445     1.0  0.81937  0.54931  0.90915  1.0000
  H   H1446     1.0  0.63204  0.66943  0.82269  1.0000
  H   H1447     1.0  0.54229  0.66479  0.98792  1.0000
  C   C912      1.0  0.77214  0.54655  0.91490  1.0000
  H   H1448     1.0  0.84900  0.80534  0.81708  1.0000
  H   H1449     1.0  0.93339  0.91766  0.83374  1.0000
  H   H1450     1.0  0.63402  0.99253  0.92197  1.0000
  H   H1451     1.0  0.58333  0.92721  0.80901  1.0000
  H   H1452     1.0  0.82247  0.53074  0.88692  1.0000
  H   H1453     1.0  0.76682  0.56169  0.90411  1.0000
  H   H1454     1.0  0.89226  0.85637  0.84562  1.0000
  H   H1455     1.0  0.90728  0.86196  0.82044  1.0000
  H   H1456     1.0  0.87238  0.89558  0.84259  1.0000
  C   C913      1.0  0.80995  0.54244  0.89595  1.0000
  H   H1457     1.0  0.88942  0.92154  0.83762  1.0000
  C   C914      1.0  0.91135  0.89157  0.86507  1.0000
  H   H1458     1.0  0.91262  0.91032  0.86895  1.0000
  H   H1459     1.0  0.68382  0.94824  0.95493  1.0000
  H   H1460     1.0  0.65951  0.78447  0.98490  1.0000
  H   H1461     1.0  0.63236  0.53321  0.94833  1.0000
  H   H1462     1.0  0.69266  0.79244  0.95857  1.0000
  C   C915      1.0  0.90831  0.86417  0.83765  1.0000
  S   S374      1.0  0.62265  0.89757  0.97066  1.0000
  C   C916      1.0  0.62661  0.53240  0.93187  1.0000
  H   H1463     1.0  0.77194  0.53523  0.87432  1.0000
  C   C917      1.0  0.93140  0.89875  0.83082  1.0000
  H   H1464     1.0  0.88717  0.90106  0.81730  1.0000
  H   H1465     1.0  0.71870  0.92083  0.80270  1.0000
  H   H1466     1.0  0.83851  0.75196  0.81657  1.0000
  H   H1467     1.0  0.62231  0.97141  0.95685  1.0000
  H   H1468     1.0  0.67873  0.00153  0.94472  1.0000
  H   H1469     1.0  0.86522  0.76629  0.80814  1.0000
  H   H1470     1.0  0.89546  0.88453  0.87397  1.0000
  C   C918      1.0  0.83151  0.79948  0.81270  1.0000
  H   H1471     1.0  0.69204  0.81883  0.94165  1.0000
  H   H1472     1.0  0.92404  0.85361  0.84276  1.0000
  S   S375      1.0  0.55814  0.61569  0.99541  1.0000
  H   H1473     1.0  0.63083  0.61394  0.95773  1.0000
  H   H1474     1.0  0.67400  0.94053  0.92990  1.0000
  H   H1475     1.0  0.93106  0.89722  0.81338  1.0000
  H   H1476     1.0  0.82122  0.81569  0.80775  1.0000
  C   C919      1.0  0.67508  0.82847  0.98076  1.0000
  C   C920      1.0  0.67273  0.90096  0.81364  1.0000
  H   H1477     1.0  0.94761  0.88887  0.83579  1.0000
  C   C921      1.0  0.84772  0.76155  0.80292  1.0000
  C   C922      1.0  0.79527  0.58176  0.84552  1.0000
  C   C923      1.0  0.80213  0.56059  0.83634  1.0000
  C   C924      1.0  0.82435  0.55828  0.82557  1.0000
  C   C925      1.0  0.83951  0.57732  0.82326  1.0000
  C   C926      1.0  0.83222  0.59877  0.83167  1.0000
  C   C927      1.0  0.81036  0.60083  0.84305  1.0000
  H   H1478     1.0  0.79071  0.54576  0.83814  1.0000
  H   H1479     1.0  0.82994  0.54162  0.81914  1.0000
  H   H1480     1.0  0.84383  0.61349  0.83012  1.0000
  H   H1481     1.0  0.80526  0.61721  0.85025  1.0000
  C   C928      1.0  0.65967  0.59219  0.91376  1.0000
  C   C929      1.0  0.68280  0.59576  0.91891  1.0000
  C   C930      1.0  0.68719  0.60601  0.93795  1.0000
  C   C931      1.0  0.66850  0.61255  0.95205  1.0000
  C   C932      1.0  0.64534  0.60883  0.94699  1.0000
  C   C933      1.0  0.64095  0.59884  0.92780  1.0000
  H   H1482     1.0  0.69732  0.59114  0.90803  1.0000
  H   H1483     1.0  0.70510  0.60904  0.94174  1.0000
  H   H1484     1.0  0.62299  0.59634  0.92383  1.0000
  H   H1485     1.0  0.69313  0.96448  0.93097  1.0000
  C   C934      1.0  0.80037  0.92160  0.82544  1.0000
  C   C935      1.0  0.79678  0.89981  0.83618  1.0000
  C   C936      1.0  0.81203  0.88043  0.83179  1.0000
  C   C937      1.0  0.83073  0.88255  0.81642  1.0000
  C   C938      1.0  0.01216  0.85192  0.80127  1.0000
  H   H1486     1.0  0.00970  0.84161  0.81603  1.0000
  H   H1487     1.0  0.78252  0.89800  0.84814  1.0000
  H   H1488     1.0  0.80935  0.86376  0.84046  1.0000
  H   H1489     1.0  0.65244  0.54765  0.81318  1.0000
  H   H1490     1.0  0.92705  0.88174  0.87118  1.0000
  C   C939      1.0  0.64922  0.97974  0.92076  1.0000
  H   H1491     1.0  0.64382  0.96469  0.91182  1.0000
  C   C940      1.0  0.68843  0.89156  0.92649  1.0000
  C   C941      1.0  0.69015  0.88704  0.94836  1.0000
  C   C942      1.0  0.67002  0.88878  0.96216  1.0000
  C   C943      1.0  0.64812  0.89466  0.95402  1.0000
  C   C944      1.0  0.64638  0.89876  0.93212  1.0000
  C   C945      1.0  0.66649  0.89720  0.91837  1.0000
  H   H1492     1.0  0.70717  0.88278  0.95465  1.0000
  H   H1493     1.0  0.67148  0.88591  0.97908  1.0000
  H   H1494     1.0  0.62942  0.90320  0.92577  1.0000
  H   H1495     1.0  0.66504  0.90044  0.90148  1.0000
  H   H1496     1.0  0.60717  0.65089  0.82250  1.0000
  H   H1497     1.0  0.66935  0.98705  0.96947  1.0000
  S   S376      1.0  0.73631  0.52803  0.84326  1.0000
  C   C946      1.0  0.64775  0.83286  0.95284  1.0000
  H   H1498     1.0  0.60426  0.68152  0.81421  1.0000
  S   S377      1.0  0.71101  0.00316  0.90521  1.0000
  S   S378      1.0  0.67460  0.62554  0.97571  1.0000
  H   H1499     1.0  0.82192  0.94050  0.80162  1.0000
  C   C947      1.0  0.01375  0.60932  0.80297  1.0000
  H   H1500     1.0  0.58741  0.89664  0.81722  1.0000
  C   C948      1.0  0.66378  0.99237  0.95329  1.0000
  C   C949      1.0  0.67793  0.95557  0.93938  1.0000
  H   H1501     1.0  0.63494  0.84235  0.96360  1.0000
  H   H1502     1.0  0.63914  0.78752  0.96411  1.0000
  H   H1503     1.0  0.75574  0.53781  0.92099  1.0000
  C   C950      1.0  0.68080  0.80521  0.95002  1.0000
  H   H1504     1.0  0.68006  0.89884  0.82906  1.0000
  N   N94       1.0  0.90998  0.88927  0.84203  1.0000
  C   C951      1.0  0.63796  0.95949  0.95407  1.0000
  H   H1505     1.0  0.80551  0.55780  0.88509  1.0000
  C   C952      1.0  0.81902  0.92369  0.81000  1.0000
  H   H1506     1.0  0.67234  0.79564  0.93773  1.0000
  S   S379      1.0  0.84999  0.85793  0.81215  1.0000
  N   N95       1.0  0.65721  0.97179  0.94189  1.0000
  H   H1507     1.0  0.54964  0.88719  0.80190  1.0000
  H   H1508     1.0  0.64890  0.00551  0.95480  1.0000
  C   C953      1.0  0.83407  0.90422  0.80539  1.0000
  C   C954      1.0  0.88887  0.90249  0.83461  1.0000
  C   C955      1.0  0.65300  0.55886  0.79882  1.0000
  H   H1509     1.0  0.68679  0.84211  0.97322  1.0000
  H   H1510     1.0  0.65827  0.84641  0.94365  1.0000
  C   C956      1.0  0.59034  0.90983  0.80379  1.0000
  H   H1511     1.0  0.63208  0.94432  0.94555  1.0000
  H   H1512     1.0  0.61559  0.56655  0.80025  1.0000
  C   C957      1.0  0.66856  0.88105  0.80234  1.0000
  H   H1513     1.0  0.66909  0.53787  0.91252  1.0000
  C   C958      1.0  0.52366  0.70848  0.99130  1.0000
  H   H1514     1.0  0.66347  0.98861  0.91096  1.0000
  C   C959      1.0  0.61637  0.66573  0.81378  1.0000
  H   H1515     1.0  0.62858  0.55031  0.92411  1.0000
  H   H1516     1.0  0.67279  0.86365  0.80911  1.0000
  C   C960      1.0  0.66691  0.92345  0.80517  1.0000
  H   H1517     1.0  0.63508  0.80491  0.98696  1.0000
  S   S380      1.0  0.89941  0.69039  0.80041  1.0000
  H   H1518     1.0  0.64357  0.95229  0.96978  1.0000
  S   S381      1.0  0.96378  0.85250  0.80048  1.0000
  H   H1519     1.0  0.82246  0.79158  0.82727  1.0000
  H   H1520     1.0  0.01259  0.60684  0.82005  1.0000
  H   H1521     1.0  0.71613  0.96391  0.79848  1.0000
  H   H1522     1.0  0.74662  0.96534  0.80393  1.0000
  H   H1523     1.0  0.60975  0.91121  0.80091  1.0000
  H   H1524     1.0  0.97601  0.60857  0.80015  1.0000
  H   H1525     1.0  0.91042  0.73763  0.80854  1.0000
  H   H1526     1.0  0.60751  0.52868  0.93273  1.0000
  N   N96       1.0  0.78857  0.52998  0.90384  1.0000
  H   H1527     1.0  0.63550  0.53254  0.88974  1.0000
  H   H1528     1.0  0.65532  0.64158  0.80036  1.0000
  H   H1529     1.0  0.53775  0.71822  0.98202  1.0000
  S   S382      1.0  0.61231  0.65504  0.99304  1.0000
  H   H1530     1.0  0.74935  0.92150  0.80795  1.0000
  H   H1531     1.0  0.78027  0.55399  0.92857  1.0000
  H   H1532     1.0  0.68605  0.81614  0.99066  1.0000
  S   S383      1.0  0.91683  0.62438  0.79992  1.0000
  S   S384      1.0  0.86777  0.57335  0.81072  1.0000
  H   H1533     1.0  0.63031  0.62324  0.79975  1.0000
  H   H1534     1.0  0.66220  0.83738  0.99181  1.0000
  H   H1535     1.0  0.95712  0.68030  0.79987  1.0000
  H   H1536     1.0  0.56561  0.68481  0.99038  1.0000
