data_image0
_chemical_formula_structural       FeS2FeS2Fe2HS2CHCH5CH2SHC2HCH2NHC2H3C2SHCH12NFeS2FeSFeS3HCHC2H2C4HCH3C2FeH3C2SC2H2C2H3CH2C2H3CHC4HFeS2FeNHFeHCHS2C4HCHC2HC3H3C3HSH2FeH2CH2CH2CSHSHC4H2SH3CH5C2HC2HFeHFeS2H2S2H2CHC2H3C3HNH6C5H3NH3CHCHSHCHCSFeH2CH2CNH5CH3CNCHFeHCHSFeS2FeS2FeSFeHSHC4HC7H4CHSCHNH2CH2NHCHC2H5CH3CH3SHSH6CH2CHCH2C3H2SH2FeS2FeSNFeSFeS3C6H4FeHCH2FeSH4CH3FeCH2NC4H2CH2SHSH4CHCH2NCH3CH3SHSFeS2FeSFeCS2CSHCHSH2CHC2HNH2CFeHNC7H4CHSH4CH4CHCH2NH2CFeH2C2H3C2H2CH6CHCHSHSFeH4SH2SFeSHFeSFeS2C7H4CSH4C2H2SFeH2NCSHC2HCH6CH2C3HC2SH2SFe2SFeH3SC6H4CSHSH4SCFeHSNC4H9FeHSC2FeNS2C3H2C6H3CSFeHC2HSHSCH3CH4SHSCFeSFeSFeS3C5NCH2CHCSHNSC2HCH6CH4C3HCH3CSH2CNH4CHCFeH2SHSH6FeH2FeS2FeCHSCSCHC2HC3H4CHC2H10NHC2H2CHS3HSHCH2CH2NHFeHC6H7CHC2SHC3HC3H2C3NH4CHCHCHCFeHC3H2NH4CH3CFeC2H4NS2HCHSH2FeS2CH2C3H2C2HCH2CH3CHCNH4CHCH7CH4CSFeSCHC6H4C2H2CH2SCH5NS3FeHSHFe2C2H2CHCHSH2CH2CSC2HC3H2C2H2CH5CSCH2NCH2SHNH6CHCH3CSFeSHFeSHFeSFeS3CSCH2CHCHCHSH2CHC7H6NHCNCH3CNH2SC2HCH3FeHSC2H4CH6NCFeCSCH4CH2C2HCFeCSHSHCFeCHFeSHFeSFeHSH2CH2FeH2SHSCHC6H5CNC2HCHNC2H8CSCH2SC2SHC3SH3CH5FeCS2H2CFeSFeCNFeS2CH2S2HSH4C2HCHC3SHFeHC6H5NC4HCH6CH7CSH3FeSHFeSCH2SHSHFeSNSH3CSH4C7H4NCH2C2HCHC2H2FeCFeSCHNHCHC2H2SH2CHCHSCHSHCH3FeH2FeCSFeH2FeC2S2NSHC2H5NC4H2CHCH3CH4CNH2C3H2SHC2H2CSC2H2CH2C2H2CH2SCFeC2H4FeHSFeCSCSC2H3CHSCH5CSHCSH7C2H3FeCH2NSHNH3CHFeH9CHS2H2S2FeSH2C7HCH3CHSCHS3FeCHFeH3SFeHSHCFeHFeH3NH5CHSC7H6CH2C2H2C2HCH3CN
_chemical_formula_sum              "Fe96 S192 H768 C480 N48"
_cell_length_a       44.5483
_cell_length_b       46.7544
_cell_length_c       36.3018
_cell_angle_alpha    88.7592
_cell_angle_beta     88.6079
_cell_angle_gamma    89.9451

_space_group_name_H-M_alt    "P 1"
_space_group_IT_number       1

loop_
  _space_group_symop_operation_xyz
  'x, y, z'

loop_
  _atom_site_type_symbol
  _atom_site_label
  _atom_site_symmetry_multiplicity
  _atom_site_fract_x
  _atom_site_fract_y
  _atom_site_fract_z
  _atom_site_occupancy
  Fe  Fe1       1.0  0.35038  0.18288  0.54025  1.0000
  S   S1        1.0  0.39149  0.20362  0.51495  1.0000
  S   S2        1.0  0.35536  0.13903  0.56592  1.0000
  Fe  Fe2       1.0  0.31084  0.23421  0.52498  1.0000
  S   S3        1.0  0.34831  0.25920  0.49775  1.0000
  S   S4        1.0  0.26393  0.25153  0.52986  1.0000
  Fe  Fe3       1.0  0.36064  0.21838  0.47046  1.0000
  Fe  Fe4       1.0  0.37553  0.24255  0.54451  1.0000
  H   H1        1.0  0.50338  0.30405  0.14707  1.0000
  S   S5        1.0  0.32054  0.19447  0.49337  1.0000
  S   S6        1.0  0.33706  0.22065  0.57424  1.0000
  C   C1        1.0  0.26133  0.28557  0.50928  1.0000
  H   H2        1.0  0.45627  0.16529  0.43984  1.0000
  C   C2        1.0  0.45241  0.14467  0.42596  1.0000
  H   H3        1.0  0.33841  0.30875  0.44172  1.0000
  H   H4        1.0  0.46209  0.25723  0.11957  1.0000
  H   H5        1.0  0.38192  0.08314  0.56538  1.0000
  H   H6        1.0  0.21591  0.27939  0.49198  1.0000
  H   H7        1.0  0.40055  0.16863  0.44896  1.0000
  C   C3        1.0  0.18642  0.31477  0.56672  1.0000
  H   H8        1.0  0.59424  0.28195  0.21181  1.0000
  H   H9        1.0  0.56852  0.22880  0.09342  1.0000
  S   S7        1.0  0.57121  0.19349  0.30648  1.0000
  H   H10       1.0  0.57924  0.27358  0.16811  1.0000
  C   C4        1.0  0.33712  0.11491  0.50193  1.0000
  C   C5        1.0  0.35339  0.11140  0.53416  1.0000
  H   H11       1.0  0.40406  0.20764  0.34203  1.0000
  C   C6        1.0  0.39871  0.14761  0.43550  1.0000
  H   H12       1.0  0.32426  0.13413  0.49724  1.0000
  H   H13       1.0  0.31502  0.25025  0.42021  1.0000
  N   N1        1.0  0.42562  0.12982  0.44173  1.0000
  H   H14       1.0  0.30582  0.29852  0.52381  1.0000
  C   C7        1.0  0.36927  0.08598  0.54047  1.0000
  C   C8        1.0  0.23470  0.29403  0.49252  1.0000
  H   H15       1.0  0.40954  0.11390  0.49444  1.0000
  H   H16       1.0  0.40193  0.09025  0.43516  1.0000
  H   H17       1.0  0.32459  0.09616  0.45078  1.0000
  C   C9        1.0  0.40959  0.21842  0.39890  1.0000
  C   C10       1.0  0.30123  0.26971  0.41477  1.0000
  S   S8        1.0  0.37093  0.21778  0.40948  1.0000
  H   H18       1.0  0.43176  0.14563  0.49632  1.0000
  C   C11       1.0  0.33716  0.09330  0.47574  1.0000
  H   H19       1.0  0.19945  0.29674  0.55478  1.0000
  H   H20       1.0  0.47306  0.13154  0.42915  1.0000
  H   H21       1.0  0.39534  0.15209  0.40563  1.0000
  H   H22       1.0  0.37801  0.13707  0.44684  1.0000
  H   H23       1.0  0.30904  0.27329  0.34125  1.0000
  H   H24       1.0  0.53546  0.31514  0.09173  1.0000
  H   H25       1.0  0.42642  0.23989  0.11892  1.0000
  H   H26       1.0  0.52529  0.09119  0.28151  1.0000
  H   H27       1.0  0.52926  0.07139  0.21905  1.0000
  H   H28       1.0  0.57935  0.08955  0.12759  1.0000
  H   H29       1.0  0.48698  0.21105  0.10710  1.0000
  H   H30       1.0  0.57509  0.22716  0.42834  1.0000
  N   N2        1.0  0.31852  0.29170  0.39347  1.0000
  Fe  Fe5       1.0  0.52041  0.22998  0.23441  1.0000
  S   S9        1.0  0.50555  0.19055  0.26626  1.0000
  S   S10       1.0  0.49446  0.25243  0.19001  1.0000
  Fe  Fe6       1.0  0.52515  0.21176  0.31517  1.0000
  S   S11       1.0  0.51021  0.21140  0.37474  1.0000
  Fe  Fe7       1.0  0.55273  0.17576  0.25494  1.0000
  S   S12       1.0  0.55872  0.13152  0.23347  1.0000
  S   S13       1.0  0.53506  0.25293  0.28456  1.0000
  S   S14       1.0  0.56624  0.21366  0.21962  1.0000
  H   H31       1.0  0.58370  0.08005  0.20734  1.0000
  C   C12       1.0  0.51791  0.26020  0.15161  1.0000
  H   H32       1.0  0.53637  0.21767  0.14853  1.0000
  C   C13       1.0  0.47150  0.21551  0.38289  1.0000
  C   C14       1.0  0.45092  0.21062  0.35522  1.0000
  H   H33       1.0  0.41905  0.10471  0.39362  1.0000
  H   H34       1.0  0.44939  0.11167  0.48762  1.0000
  C   C15       1.0  0.43021  0.22415  0.42618  1.0000
  C   C16       1.0  0.32848  0.27989  0.35775  1.0000
  C   C17       1.0  0.53576  0.29389  0.10417  1.0000
  C   C18       1.0  0.51757  0.28760  0.13535  1.0000
  H   H35       1.0  0.42245  0.22994  0.45342  1.0000
  C   C19       1.0  0.42932  0.12507  0.48175  1.0000
  H   H36       1.0  0.34298  0.26068  0.36179  1.0000
  H   H37       1.0  0.44996  0.14976  0.39606  1.0000
  H   H38       1.0  0.29345  0.27780  0.44192  1.0000
  C   C20       1.0  0.42199  0.10197  0.42383  1.0000
  C   C21       1.0  0.55409  0.24515  0.10476  1.0000
  Fe  Fe8       1.0  0.57968  0.23319  0.27234  1.0000
  H   H39       1.0  0.45885  0.20530  0.32782  1.0000
  H   H40       1.0  0.47696  0.22663  0.43963  1.0000
  H   H41       1.0  0.44178  0.08784  0.42822  1.0000
  C   C22       1.0  0.41995  0.21198  0.36328  1.0000
  C   C23       1.0  0.53630  0.23900  0.13638  1.0000
  S   S15       1.0  0.40615  0.27360  0.57073  1.0000
  C   C24       1.0  0.46109  0.22253  0.41825  1.0000
  C   C25       1.0  0.44383  0.25075  0.10114  1.0000
  H   H42       1.0  0.16611  0.30535  0.58071  1.0000
  H   H43       1.0  0.57812  0.20396  0.38994  1.0000
  C   C26       1.0  0.59293  0.11480  0.24324  1.0000
  C   C27       1.0  0.28566  0.30444  0.50961  1.0000
  H   H44       1.0  0.27873  0.31155  0.37203  1.0000
  H   H45       1.0  0.28097  0.26290  0.39996  1.0000
  H   H46       1.0  0.36023  0.28145  0.41932  1.0000
  C   C28       1.0  0.59279  0.06949  0.12626  1.0000
  H   H47       1.0  0.45131  0.19352  0.10541  1.0000
  H   H48       1.0  0.34179  0.29582  0.34101  1.0000
  C   C29       1.0  0.34508  0.30007  0.41437  1.0000
  C   C30       1.0  0.59070  0.21251  0.41348  1.0000
  H   H49       1.0  0.59193  0.30915  0.17632  1.0000
  H   H50       1.0  0.35852  0.31683  0.39930  1.0000
  H   H51       1.0  0.48524  0.08791  0.27994  1.0000
  C   C31       1.0  0.35395  0.06836  0.48139  1.0000
  H   H52       1.0  0.50522  0.07181  0.31760  1.0000
  C   C32       1.0  0.55364  0.27255  0.08843  1.0000
  C   C33       1.0  0.50613  0.07631  0.28735  1.0000
  C   C34       1.0  0.46832  0.20574  0.08858  1.0000
  C   C35       1.0  0.29937  0.31709  0.38701  1.0000
  H   H53       1.0  0.43386  0.27070  0.08945  1.0000
  Fe  Fe9       1.0  0.35456  0.20956  0.76167  1.0000
  S   S16       1.0  0.38665  0.24552  0.76960  1.0000
  S   S17       1.0  0.31277  0.21876  0.72993  1.0000
  Fe  Fe10      1.0  0.39409  0.16588  0.79919  1.0000
  N   N3        1.0  0.32387  0.14172  0.67254  1.0000
  H   H54       1.0  0.30959  0.12822  0.61953  1.0000
  Fe  Fe11      1.0  0.39117  0.22664  0.82614  1.0000
  H   H55       1.0  0.19722  0.30147  0.63822  1.0000
  C   C36       1.0  0.25071  0.28072  0.74851  1.0000
  H   H56       1.0  0.52479  0.29388  0.79725  1.0000
  S   S18       1.0  0.35583  0.19290  0.82025  1.0000
  S   S19       1.0  0.38992  0.17956  0.73999  1.0000
  C   C37       1.0  0.29173  0.24624  0.75055  1.0000
  C   C38       1.0  0.30049  0.25738  0.78406  1.0000
  C   C39       1.0  0.34167  0.07845  0.75965  1.0000
  C   C40       1.0  0.40242  0.07172  0.77510  1.0000
  H   H57       1.0  0.30294  0.12323  0.72143  1.0000
  C   C41       1.0  0.26672  0.25785  0.73283  1.0000
  H   H58       1.0  0.31967  0.24855  0.79801  1.0000
  C   C42       1.0  0.41299  0.23444  0.62712  1.0000
  C   C43       1.0  0.25945  0.29175  0.78217  1.0000
  H   H59       1.0  0.47823  0.27668  0.66945  1.0000
  C   C44       1.0  0.38711  0.09619  0.78672  1.0000
  C   C45       1.0  0.35686  0.09989  0.77827  1.0000
  C   C46       1.0  0.21598  0.31117  0.62135  1.0000
  H   H60       1.0  0.34486  0.11861  0.78766  1.0000
  H   H61       1.0  0.31262  0.31062  0.64039  1.0000
  H   H62       1.0  0.39982  0.19696  0.89190  1.0000
  C   C47       1.0  0.38259  0.30286  0.67451  1.0000
  C   C48       1.0  0.43023  0.22389  0.04802  1.0000
  C   C49       1.0  0.49220  0.15211  0.88083  1.0000
  H   H63       1.0  0.35753  0.25122  0.68123  1.0000
  S   S20       1.0  0.40519  0.12047  0.81481  1.0000
  H   H64       1.0  0.25978  0.24923  0.70697  1.0000
  H   H65       1.0  0.47896  0.09243  0.93383  1.0000
  Fe  Fe12      1.0  0.42218  0.21420  0.75362  1.0000
  H   H66       1.0  0.50085  0.16572  0.90304  1.0000
  H   H67       1.0  0.43782  0.20884  0.02639  1.0000
  C   C50       1.0  0.28429  0.27992  0.79991  1.0000
  H   H68       1.0  0.54038  0.11866  0.87024  1.0000
  H   H69       1.0  0.35070  0.17970  0.67656  1.0000
  C   C51       1.0  0.57399  0.07403  0.96466  1.0000
  H   H70       1.0  0.29296  0.10879  0.65788  1.0000
  H   H71       1.0  0.52934  0.09063  0.90234  1.0000
  C   C52       1.0  0.58838  0.11851  0.99224  1.0000
  S   S21       1.0  0.42952  0.19804  0.81084  1.0000
  H   H72       1.0  0.41583  0.20668  0.67494  1.0000
  S   S22       1.0  0.39877  0.25656  0.87207  1.0000
  H   H73       1.0  0.47082  0.28170  0.79009  1.0000
  C   C53       1.0  0.41966  0.23753  0.90432  1.0000
  C   C54       1.0  0.31113  0.14421  0.71031  1.0000
  C   C55       1.0  0.42403  0.25921  0.60930  1.0000
  C   C56       1.0  0.33361  0.17028  0.65865  1.0000
  H   H74       1.0  0.49320  0.22058  0.79432  1.0000
  H   H75       1.0  0.45362  0.12114  0.92314  1.0000
  S   S23       1.0  0.59021  0.24010  0.86801  1.0000
  H   H76       1.0  0.23127  0.28938  0.73497  1.0000
  H   H77       1.0  0.39392  0.28776  0.69388  1.0000
  H   H78       1.0  0.31791  0.08056  0.75478  1.0000
  C   C57       1.0  0.52664  0.11384  0.89560  1.0000
  H   H79       1.0  0.53653  0.12583  0.91855  1.0000
  H   H80       1.0  0.54712  0.27360  0.82898  1.0000
  H   H81       1.0  0.28082  0.14473  0.64719  1.0000
  H   H82       1.0  0.48417  0.22657  0.86247  1.0000
  H   H83       1.0  0.47759  0.19124  0.06711  1.0000
  C   C58       1.0  0.30073  0.13037  0.64827  1.0000
  C   C59       1.0  0.42471  0.22555  0.66097  1.0000
  H   H84       1.0  0.36022  0.11999  0.64480  1.0000
  C   C60       1.0  0.41654  0.20784  0.90759  1.0000
  C   C61       1.0  0.43494  0.19216  0.93130  1.0000
  H   H85       1.0  0.31046  0.29686  0.70641  1.0000
  Fe  Fe13      1.0  0.57932  0.22835  0.92740  1.0000
  H   H86       1.0  0.53235  0.22860  0.79987  1.0000
  Fe  Fe14      1.0  0.52802  0.20444  0.97551  1.0000
  S   S24       1.0  0.56256  0.18403  0.93920  1.0000
  S   S25       1.0  0.48179  0.18576  0.97729  1.0000
  H   H87       1.0  0.39491  0.22256  0.61534  1.0000
  H   H88       1.0  0.49646  0.25875  0.88350  1.0000
  S   S26       1.0  0.55543  0.20197  0.02601  1.0000
  S   S27       1.0  0.54177  0.24914  0.95946  1.0000
  H   H89       1.0  0.29110  0.28825  0.82600  1.0000
  H   H90       1.0  0.46839  0.15835  0.87639  1.0000
  C   C62       1.0  0.45731  0.20602  0.95044  1.0000
  H   H91       1.0  0.39433  0.30127  0.64724  1.0000
  C   C63       1.0  0.44098  0.25162  0.92496  1.0000
  C   C64       1.0  0.46019  0.23578  0.94759  1.0000
  H   H92       1.0  0.48824  0.23316  0.02760  1.0000
  H   H93       1.0  0.44329  0.27462  0.92243  1.0000
  H   H94       1.0  0.47705  0.24666  0.96285  1.0000
  C   C65       1.0  0.44782  0.27420  0.62434  1.0000
  C   C66       1.0  0.48222  0.10410  0.86118  1.0000
  C   C67       1.0  0.55853  0.12292  0.00365  1.0000
  H   H95       1.0  0.55241  0.14173  0.01878  1.0000
  N   N4        1.0  0.49472  0.12139  0.89078  1.0000
  H   H96       1.0  0.48681  0.12786  0.94868  1.0000
  H   H97       1.0  0.56113  0.07862  0.06467  1.0000
  H   H98       1.0  0.35693  0.26230  0.63357  1.0000
  H   H99       1.0  0.32809  0.15232  0.72953  1.0000
  H   H100      1.0  0.48389  0.08079  0.86780  1.0000
  H   H101      1.0  0.51360  0.10584  0.00583  1.0000
  C   C68       1.0  0.33694  0.31519  0.64340  1.0000
  C   C69       1.0  0.53653  0.10263  0.99626  1.0000
  C   C70       1.0  0.46010  0.26483  0.65765  1.0000
  C   C71       1.0  0.47167  0.27085  0.81766  1.0000
  C   C72       1.0  0.50150  0.24373  0.86082  1.0000
  H   H102      1.0  0.45642  0.29334  0.61051  1.0000
  H   H103      1.0  0.46489  0.28653  0.83897  1.0000
  H   H104      1.0  0.22918  0.29336  0.60897  1.0000
  N   N5        1.0  0.50175  0.25871  0.82452  1.0000
  H   H105      1.0  0.50517  0.15747  0.85504  1.0000
  H   H106      1.0  0.51902  0.29771  0.84614  1.0000
  H   H107      1.0  0.41179  0.21313  0.06420  1.0000
  C   C73       1.0  0.52413  0.28205  0.82419  1.0000
  H   H108      1.0  0.29191  0.15947  0.71111  1.0000
  C   C74       1.0  0.50983  0.23827  0.79539  1.0000
  H   H109      1.0  0.34376  0.16921  0.63045  1.0000
  S   S28       1.0  0.46099  0.23139  0.72013  1.0000
  H   H110      1.0  0.43225  0.16923  0.93405  1.0000
  C   C75       1.0  0.54433  0.07804  0.97712  1.0000
  H   H111      1.0  0.51042  0.24888  0.76760  1.0000
  C   C76       1.0  0.47774  0.11546  0.92559  1.0000
  S   S29       1.0  0.57500  0.28036  0.04826  1.0000
  Fe  Fe15      1.0  0.57258  0.24500  0.00746  1.0000
  H   H112      1.0  0.45807  0.10912  0.85704  1.0000
  H   H113      1.0  0.34328  0.10015  0.68272  1.0000
  C   C77       1.0  0.44813  0.24085  0.67635  1.0000
  H   H114      1.0  0.34814  0.31224  0.61590  1.0000
  H   H115      1.0  0.42061  0.24296  0.03366  1.0000
  C   C78       1.0  0.34990  0.12204  0.67291  1.0000
  N   N6        1.0  0.35028  0.29627  0.67178  1.0000
  H   H116      1.0  0.52370  0.23378  0.86650  1.0000
  H   H117      1.0  0.36769  0.12967  0.69131  1.0000
  H   H118      1.0  0.49426  0.10821  0.83437  1.0000
  H   H119      1.0  0.31445  0.18555  0.65757  1.0000
  H   H120      1.0  0.45411  0.25399  0.81831  1.0000
  C   C79       1.0  0.34664  0.26613  0.66127  1.0000
  H   H121      1.0  0.32252  0.25998  0.66046  1.0000
  H   H122      1.0  0.46963  0.26665  0.03570  1.0000
  H   H123      1.0  0.49755  0.25371  0.06664  1.0000
  C   C80       1.0  0.47863  0.24705  0.04941  1.0000
  N   N7        1.0  0.45524  0.23186  0.07179  1.0000
  C   C81       1.0  0.33501  0.30086  0.70778  1.0000
  H   H124      1.0  0.34386  0.28618  0.72951  1.0000
  Fe  Fe16      1.0  0.59160  0.18531  0.98849  1.0000
  H   H125      1.0  0.42593  0.06899  0.78115  1.0000
  C   C82       1.0  0.21524  0.56399  0.15841  1.0000
  H   H126      1.0  0.11449  0.34708  0.32815  1.0000
  S   S30       1.0  0.23645  0.54117  0.32987  1.0000
  Fe  Fe17      1.0  0.15920  0.41702  0.40671  1.0000
  S   S31       1.0  0.17321  0.37103  0.41268  1.0000
  S   S32       1.0  0.14644  0.43803  0.35313  1.0000
  Fe  Fe18      1.0  0.16273  0.42836  0.48783  1.0000
  S   S33       1.0  0.17731  0.38376  0.50131  1.0000
  S   S34       1.0  0.15574  0.45879  0.53383  1.0000
  Fe  Fe19      1.0  0.20710  0.38817  0.45116  1.0000
  S   S35       1.0  0.25486  0.37349  0.45398  1.0000
  Fe  Fe20      1.0  0.14222  0.37066  0.46234  1.0000
  H   H127      1.0  0.20338  0.56403  0.43238  1.0000
  S   S36       1.0  0.19586  0.43435  0.44123  1.0000
  H   H128      1.0  0.10214  0.42490  0.58297  1.0000
  C   C83       1.0  0.17995  0.44763  0.56871  1.0000
  C   C84       1.0  0.23034  0.34467  0.57273  1.0000
  C   C85       1.0  0.20692  0.43386  0.55955  1.0000
  C   C86       1.0  0.23237  0.32133  0.47611  1.0000
  H   H129      1.0  0.21390  0.43190  0.53095  1.0000
  C   C87       1.0  0.21213  0.51152  0.33155  1.0000
  C   C88       1.0  0.18270  0.51352  0.31908  1.0000
  C   C89       1.0  0.16284  0.49039  0.32410  1.0000
  C   C90       1.0  0.17243  0.46515  0.34159  1.0000
  C   C91       1.0  0.20222  0.46264  0.35246  1.0000
  C   C92       1.0  0.22200  0.48580  0.34755  1.0000
  C   C93       1.0  0.15025  0.54932  0.40505  1.0000
  H   H130      1.0  0.13987  0.49238  0.31539  1.0000
  H   H131      1.0  0.21010  0.44286  0.36476  1.0000
  H   H132      1.0  0.24486  0.48394  0.35675  1.0000
  H   H133      1.0  0.16568  0.53442  0.49476  1.0000
  C   C94       1.0  0.25694  0.33992  0.47577  1.0000
  H   H134      1.0  0.13884  0.53415  0.17489  1.0000
  S   S37       1.0  0.12476  0.41504  0.45290  1.0000
  C   C95       1.0  0.28361  0.33145  0.49241  1.0000
  H   H135      1.0  0.09552  0.35617  0.37044  1.0000
  N   N8        1.0  0.16606  0.53475  0.43550  1.0000
  H   H136      1.0  0.24561  0.32845  0.56060  1.0000
  H   H137      1.0  0.17882  0.32850  0.54332  1.0000
  C   C96       1.0  0.11238  0.40316  0.58423  1.0000
  H   H138      1.0  0.10466  0.49558  0.15586  1.0000
  H   H139      1.0  0.11212  0.40699  0.29235  1.0000
  N   N9        1.0  0.11399  0.53434  0.12477  1.0000
  H   H140      1.0  0.15162  0.50557  0.11977  1.0000
  C   C97       1.0  0.09744  0.54902  0.28573  1.0000
  H   H141      1.0  0.31153  0.33403  0.37063  1.0000
  C   C98       1.0  0.09768  0.55508  0.10126  1.0000
  C   C99       1.0  0.13887  0.52150  0.10313  1.0000
  H   H142      1.0  0.29196  0.32684  0.41340  1.0000
  H   H143      1.0  0.13062  0.40288  0.56275  1.0000
  H   H144      1.0  0.12296  0.35088  0.55860  1.0000
  H   H145      1.0  0.10814  0.55899  0.17381  1.0000
  H   H146      1.0  0.12990  0.54126  0.47468  1.0000
  C   C100      1.0  0.22515  0.42276  0.58736  1.0000
  H   H147      1.0  0.15946  0.54268  0.37781  1.0000
  H   H148      1.0  0.17197  0.49206  0.45728  1.0000
  H   H149      1.0  0.13667  0.49818  0.43573  1.0000
  C   C101      1.0  0.16099  0.50357  0.43403  1.0000
  H   H150      1.0  0.17508  0.53292  0.30594  1.0000
  H   H151      1.0  0.30249  0.34602  0.49255  1.0000
  H   H152      1.0  0.17025  0.49471  0.40793  1.0000
  S   S38       1.0  0.21850  0.54006  0.09037  1.0000
  H   H153      1.0  0.22412  0.54384  0.16859  1.0000
  S   S39       1.0  0.11541  0.33280  0.48235  1.0000
  H   H154      1.0  0.12959  0.55967  0.32637  1.0000
  H   H155      1.0  0.24601  0.41220  0.58010  1.0000
  H   H156      1.0  0.10351  0.37397  0.27040  1.0000
  H   H157      1.0  0.21177  0.32776  0.46305  1.0000
  H   H158      1.0  0.20813  0.53283  0.40517  1.0000
  H   H159      1.0  0.11015  0.53082  0.27597  1.0000
  C   C102      1.0  0.10453  0.36512  0.34376  1.0000
  H   H160      1.0  0.22294  0.35902  0.54985  1.0000
  H   H161      1.0  0.12312  0.38001  0.35012  1.0000
  C   C103      1.0  0.10855  0.56541  0.31412  1.0000
  H   H162      1.0  0.12581  0.54440  0.40585  1.0000
  C   C104      1.0  0.15444  0.54532  0.47118  1.0000
  H   H163      1.0  0.15527  0.53804  0.09352  1.0000
  H   H164      1.0  0.21132  0.52996  0.45421  1.0000
  C   C105      1.0  0.19862  0.54068  0.43178  1.0000
  C   C106      1.0  0.12630  0.54918  0.15667  1.0000
  C   C107      1.0  0.10446  0.35228  0.57963  1.0000
  H   H165      1.0  0.14229  0.56643  0.14766  1.0000
  H   H166      1.0  0.17864  0.36494  0.88547  1.0000
  S   S40       1.0  0.23083  0.50314  0.90971  1.0000
  H   H167      1.0  0.13061  0.51063  0.07829  1.0000
  H   H168      1.0  0.23907  0.40669  0.92817  1.0000
  Fe  Fe21      1.0  0.20879  0.34646  0.76794  1.0000
  S   S41       1.0  0.21828  0.39357  0.76521  1.0000
  S   S42       1.0  0.23979  0.32003  0.80314  1.0000
  Fe  Fe22      1.0  0.15443  0.35231  0.71894  1.0000
  S   S43       1.0  0.15912  0.39974  0.71264  1.0000
  N   N10       1.0  0.20461  0.33100  0.59262  1.0000
  Fe  Fe23      1.0  0.20824  0.39056  0.70526  1.0000
  S   S44       1.0  0.23736  0.40774  0.65855  1.0000
  Fe  Fe24      1.0  0.16848  0.39848  0.77312  1.0000
  S   S45       1.0  0.14615  0.42839  0.81320  1.0000
  S   S46       1.0  0.20305  0.34300  0.70731  1.0000
  S   S47       1.0  0.15939  0.35138  0.78035  1.0000
  C   C108      1.0  0.20759  0.48188  0.88329  1.0000
  C   C109      1.0  0.21840  0.47108  0.84981  1.0000
  C   C110      1.0  0.19959  0.45478  0.82795  1.0000
  C   C111      1.0  0.17000  0.44911  0.83966  1.0000
  C   C112      1.0  0.15924  0.45993  0.87316  1.0000
  C   C113      1.0  0.17810  0.47610  0.89506  1.0000
  H   H169      1.0  0.24122  0.47561  0.84057  1.0000
  H   H170      1.0  0.20783  0.44707  0.80176  1.0000
  H   H171      1.0  0.13637  0.45557  0.88239  1.0000
  H   H172      1.0  0.16997  0.48386  0.92128  1.0000
  Fe  Fe25      1.0  0.20509  0.52618  0.95427  1.0000
  H   H173      1.0  0.25702  0.35657  0.91832  1.0000
  C   C114      1.0  0.15987  0.53164  0.83144  1.0000
  H   H174      1.0  0.15631  0.52930  0.86178  1.0000
  H   H175      1.0  0.38624  0.32496  0.68422  1.0000
  Fe  Fe26      1.0  0.20055  0.54560  0.03335  1.0000
  S   S48       1.0  0.18605  0.50543  0.00599  1.0000
  H   H176      1.0  0.18283  0.44154  0.66214  1.0000
  H   H177      1.0  0.10022  0.50863  0.86952  1.0000
  H   H178      1.0  0.20048  0.35552  0.84540  1.0000
  H   H179      1.0  0.26898  0.39509  0.87219  1.0000
  C   C115      1.0  0.23596  0.35253  0.90340  1.0000
  H   H180      1.0  0.20140  0.39319  0.93431  1.0000
  H   H181      1.0  0.24379  0.35792  0.59143  1.0000
  H   H182      1.0  0.20563  0.55300  0.87038  1.0000
  Fe  Fe27      1.0  0.14459  0.53028  0.99358  1.0000
  C   C116      1.0  0.18415  0.55808  0.78124  1.0000
  H   H183      1.0  0.25283  0.37402  0.83694  1.0000
  H   H184      1.0  0.23984  0.40980  0.84429  1.0000
  N   N11       1.0  0.22470  0.37895  0.88538  1.0000
  C   C117      1.0  0.24761  0.38996  0.85855  1.0000
  C   C118      1.0  0.09883  0.50779  0.92892  1.0000
  C   C119      1.0  0.21843  0.40079  0.91341  1.0000
  C   C120      1.0  0.19678  0.37247  0.86603  1.0000
  H   H185      1.0  0.17015  0.51135  0.82177  1.0000
  H   H186      1.0  0.12298  0.40050  0.61157  1.0000
  C   C121      1.0  0.20834  0.55340  0.83980  1.0000
  H   H187      1.0  0.21914  0.34344  0.92356  1.0000
  H   H188      1.0  0.24098  0.33573  0.88275  1.0000
  S   S49       1.0  0.09812  0.51337  0.00359  1.0000
  H   H189      1.0  0.11377  0.34761  0.60724  1.0000
  S   S50       1.0  0.16206  0.54774  0.93931  1.0000
  H   H190      1.0  0.20948  0.42078  0.90059  1.0000
  H   H191      1.0  0.15073  0.46153  0.61296  1.0000
  H   H192      1.0  0.33921  0.33814  0.65041  1.0000
  H   H193      1.0  0.18815  0.39163  0.85104  1.0000
  C   C122      1.0  0.18941  0.43904  0.63358  1.0000
  H   H194      1.0  0.19556  0.53845  0.77108  1.0000
  C   C123      1.0  0.21609  0.42477  0.62439  1.0000
  H   H195      1.0  0.12202  0.50169  0.93127  1.0000
  H   H196      1.0  0.17729  0.36886  0.58900  1.0000
  N   N12       1.0  0.17913  0.55653  0.82164  1.0000
  C   C124      1.0  0.17146  0.45070  0.60576  1.0000
  H   H197      1.0  0.33792  0.32316  0.71715  1.0000
  H   H198      1.0  0.21985  0.53317  0.83212  1.0000
  H   H199      1.0  0.19885  0.36576  0.62975  1.0000
  C   C125      1.0  0.18584  0.35332  0.60990  1.0000
  H   H200      1.0  0.13738  0.53347  0.81889  1.0000
  H   H201      1.0  0.16639  0.34387  0.62561  1.0000
  H   H202      1.0  0.23101  0.32240  0.64033  1.0000
  S   S51       1.0  0.12085  0.33089  0.68353  1.0000
  H   H203      1.0  0.16259  0.56032  0.76659  1.0000
  S   S52       1.0  0.22382  0.56434  0.98263  1.0000
  Fe  Fe28      1.0  0.21911  0.64733  0.33398  1.0000
  S   S53       1.0  0.24028  0.62103  0.28919  1.0000
  S   S54       1.0  0.24466  0.68290  0.35968  1.0000
  Fe  Fe29      1.0  0.15915  0.61765  0.32978  1.0000
  S   S55       1.0  0.17470  0.58949  0.28398  1.0000
  Fe  Fe30      1.0  0.19709  0.62856  0.25998  1.0000
  C   C126      1.0  0.26845  0.69985  0.52459  1.0000
  S   S56       1.0  0.19888  0.60984  0.36505  1.0000
  S   S57       1.0  0.17756  0.65763  0.30277  1.0000
  C   C127      1.0  0.15603  0.74212  0.32802  1.0000
  S   S58       1.0  0.19173  0.64077  0.20008  1.0000
  H   H204      1.0  0.21295  0.74758  0.50614  1.0000
  C   C128      1.0  0.19901  0.59414  0.10765  1.0000
  H   H205      1.0  0.10886  0.78948  0.36943  1.0000
  S   S59       1.0  0.16542  0.76678  0.45503  1.0000
  H   H206      1.0  0.25876  0.75727  0.46705  1.0000
  H   H207      1.0  0.12028  0.78887  0.50807  1.0000
  C   C129      1.0  0.20924  0.58614  0.18304  1.0000
  H   H208      1.0  0.14619  0.77958  0.38162  1.0000
  C   C130      1.0  0.11293  0.81060  0.57549  1.0000
  C   C131      1.0  0.09853  0.79993  0.51350  1.0000
  H   H209      1.0  0.25999  0.69305  0.55258  1.0000
  N   N13       1.0  0.12651  0.75284  0.34117  1.0000
  H   H210      1.0  0.29007  0.75190  0.54110  1.0000
  H   H211      1.0  0.13980  0.79716  0.33820  1.0000
  C   C132      1.0  0.19854  0.61247  0.16991  1.0000
  Fe  Fe31      1.0  0.18630  0.81039  0.45824  1.0000
  H   H212      1.0  0.25585  0.77116  0.53341  1.0000
  N   N14       1.0  0.10225  0.65054  0.22312  1.0000
  C   C133      1.0  0.12028  0.67558  0.23325  1.0000
  C   C134      1.0  0.22231  0.70600  0.38595  1.0000
  C   C135      1.0  0.23118  0.73453  0.38948  1.0000
  C   C136      1.0  0.21364  0.75334  0.41052  1.0000
  C   C137      1.0  0.18756  0.74346  0.42876  1.0000
  C   C138      1.0  0.17894  0.71481  0.42577  1.0000
  C   C139      1.0  0.19604  0.69618  0.40389  1.0000
  H   H213      1.0  0.25146  0.74217  0.37547  1.0000
  H   H214      1.0  0.22033  0.77549  0.41248  1.0000
  H   H215      1.0  0.15891  0.70703  0.44018  1.0000
  H   H216      1.0  0.18923  0.67411  0.40137  1.0000
  C   C140      1.0  0.22307  0.72641  0.51316  1.0000
  H   H217      1.0  0.11778  0.62536  0.26903  1.0000
  S   S60       1.0  0.11174  0.61488  0.35196  1.0000
  H   H218      1.0  0.11069  0.69582  0.22195  1.0000
  H   H219      1.0  0.21367  0.58303  0.21203  1.0000
  H   H220      1.0  0.10178  0.60499  0.23298  1.0000
  H   H221      1.0  0.11203  0.71033  0.35748  1.0000
  C   C141      1.0  0.26523  0.74968  0.54039  1.0000
  H   H222      1.0  0.29284  0.73810  0.47576  1.0000
  H   H223      1.0  0.10694  0.75532  0.56106  1.0000
  H   H224      1.0  0.12480  0.64657  0.17049  1.0000
  H   H225      1.0  0.26176  0.72024  0.45565  1.0000
  C   C142      1.0  0.26793  0.73627  0.47645  1.0000
  H   H226      1.0  0.17183  0.73953  0.35110  1.0000
  C   C143      1.0  0.19315  0.61635  0.13225  1.0000
  H   H227      1.0  0.12668  0.73121  0.39403  1.0000
  H   H228      1.0  0.26192  0.68305  0.50500  1.0000
  N   N15       1.0  0.25619  0.72808  0.51363  1.0000
  H   H229      1.0  0.25707  0.74388  0.56883  1.0000
  H   H230      1.0  0.15257  0.57299  0.40608  1.0000
  C   C144      1.0  0.10620  0.75594  0.30972  1.0000
  Fe  Fe32      1.0  0.21593  0.58417  0.31736  1.0000
  H   H231      1.0  0.21540  0.71103  0.49238  1.0000
  H   H232      1.0  0.18182  0.75313  0.57311  1.0000
  C   C145      1.0  0.13047  0.78098  0.35829  1.0000
  C   C146      1.0  0.11334  0.73231  0.36859  1.0000
  H   H233      1.0  0.29341  0.70027  0.52518  1.0000
  H   H234      1.0  0.21353  0.71931  0.54048  1.0000
  H   H235      1.0  0.16677  0.75709  0.30743  1.0000
  C   C147      1.0  0.20211  0.79498  0.57224  1.0000
  C   C148      1.0  0.11558  0.62413  0.23866  1.0000
  H   H236      1.0  0.15406  0.72087  0.31509  1.0000
  H   H237      1.0  0.19186  0.80145  0.54682  1.0000
  C   C149      1.0  0.10162  0.64867  0.18256  1.0000
  H   H238      1.0  0.11568  0.77070  0.28799  1.0000
  H   H239      1.0  0.10182  0.73492  0.29705  1.0000
  H   H240      1.0  0.13474  0.79921  0.57201  1.0000
  H   H241      1.0  0.18508  0.63676  0.12196  1.0000
  H   H242      1.0  0.12128  0.67744  0.26371  1.0000
  H   H243      1.0  0.14377  0.67398  0.22244  1.0000
  C   C150      1.0  0.21037  0.56801  0.12066  1.0000
  H   H244      1.0  0.13829  0.62011  0.22671  1.0000
  C   C151      1.0  0.19663  0.76750  0.58693  1.0000
  H   H245      1.0  0.11263  0.57276  0.09113  1.0000
  S   S61       1.0  0.23315  0.81618  0.47778  1.0000
  H   H246      1.0  0.15814  0.56875  0.47346  1.0000
  S   S62       1.0  0.19152  0.76800  0.72735  1.0000
  Fe  Fe33      1.0  0.23121  0.75986  0.76301  1.0000
  H   H247      1.0  0.27026  0.79574  0.70859  1.0000
  H   H248      1.0  0.12958  0.75389  0.70946  1.0000
  H   H249      1.0  0.16133  0.58311  0.86457  1.0000
  H   H250      1.0  0.10705  0.64453  0.94428  1.0000
  S   S63       1.0  0.16792  0.62769  0.94853  1.0000
  H   H251      1.0  0.29805  0.69818  0.81497  1.0000
  H   H252      1.0  0.19565  0.59757  0.07851  1.0000
  S   S64       1.0  0.24823  0.72221  0.73149  1.0000
  Fe  Fe34      1.0  0.16676  0.73766  0.76596  1.0000
  S   S65       1.0  0.17845  0.69788  0.73556  1.0000
  H   H253      1.0  0.24088  0.70364  0.86279  1.0000
  Fe  Fe35      1.0  0.21901  0.69628  0.77080  1.0000
  S   S66       1.0  0.23712  0.65673  0.79873  1.0000
  Fe  Fe36      1.0  0.20612  0.72762  0.69939  1.0000
  S   S67       1.0  0.20338  0.72456  0.63804  1.0000
  S   S68       1.0  0.20481  0.73352  0.80464  1.0000
  C   C152      1.0  0.20984  0.75886  0.61986  1.0000
  C   C153      1.0  0.21741  0.64821  0.83985  1.0000
  C   C154      1.0  0.22837  0.62684  0.86357  1.0000
  C   C155      1.0  0.21301  0.62012  0.89683  1.0000
  C   C156      1.0  0.18710  0.63530  0.90681  1.0000
  C   C157      1.0  0.17613  0.65662  0.88307  1.0000
  C   C158      1.0  0.19106  0.66284  0.84942  1.0000
  H   H254      1.0  0.24889  0.61564  0.85638  1.0000
  H   H255      1.0  0.22162  0.60368  0.91514  1.0000
  H   H256      1.0  0.15600  0.66831  0.89062  1.0000
  H   H257      1.0  0.18211  0.67896  0.83095  1.0000
  C   C159      1.0  0.23390  0.80511  0.62343  1.0000
  S   S69       1.0  0.15732  0.56895  0.02451  1.0000
  H   H258      1.0  0.25124  0.75545  0.85665  1.0000
  H   H259      1.0  0.26826  0.72299  0.80741  1.0000
  H   H260      1.0  0.30563  0.73612  0.81064  1.0000
  H   H261      1.0  0.12002  0.59759  0.91751  1.0000
  C   C160      1.0  0.22850  0.77762  0.63810  1.0000
  C   C161      1.0  0.10745  0.76157  0.71707  1.0000
  H   H262      1.0  0.23915  0.77074  0.66324  1.0000
  H   H263      1.0  0.28870  0.76856  0.85953  1.0000
  S   S70       1.0  0.26164  0.79207  0.78824  1.0000
  Fe  Fe37      1.0  0.17895  0.58420  0.97147  1.0000
  H   H264      1.0  0.32315  0.69676  0.87542  1.0000
  H   H265      1.0  0.31097  0.72031  0.91131  1.0000
  N   N16       1.0  0.28482  0.72264  0.86233  1.0000
  C   C162      1.0  0.28955  0.71982  0.82213  1.0000
  S   S71       1.0  0.11985  0.74444  0.78778  1.0000
  H   H266      1.0  0.27083  0.67879  0.86984  1.0000
  C   C163      1.0  0.31369  0.71836  0.88089  1.0000
  C   C164      1.0  0.26300  0.70085  0.87603  1.0000
  H   H267      1.0  0.25902  0.70202  0.90634  1.0000
  C   C165      1.0  0.27308  0.75153  0.87019  1.0000
  H   H268      1.0  0.17770  0.60228  0.82582  1.0000
  H   H269      1.0  0.26941  0.75460  0.90026  1.0000
  H   H270      1.0  0.33064  0.73449  0.87113  1.0000
  H   H271      1.0  0.14169  0.58563  0.82185  1.0000
  H   H272      1.0  0.10650  0.80960  0.60535  1.0000
  H   H273      1.0  0.10580  0.60149  0.98409  1.0000
  C   C166      1.0  0.16424  0.58303  0.83402  1.0000
  H   H274      1.0  0.22378  0.57136  0.83212  1.0000
  H   H275      1.0  0.19855  0.57673  0.77289  1.0000
  C   C167      1.0  0.22044  0.81395  0.59071  1.0000
  C   C168      1.0  0.09721  0.75959  0.75377  1.0000
  C   C169      1.0  0.09588  0.59444  0.91174  1.0000
  H   H276      1.0  0.09672  0.77436  0.66157  1.0000
  C   C170      1.0  0.28014  0.81707  0.75884  1.0000
  C   C171      1.0  0.28064  0.81414  0.72056  1.0000
  S   S72       1.0  0.21951  0.88566  0.47412  1.0000
  H   H277      1.0  0.46228  0.04021  0.26845  1.0000
  H   H278      1.0  0.51521  0.96485  0.57740  1.0000
  S   S73       1.0  0.39931  0.98650  0.50884  1.0000
  Fe  Fe38      1.0  0.23601  0.85193  0.43572  1.0000
  Fe  Fe39      1.0  0.40487  0.94816  0.47328  1.0000
  S   S74       1.0  0.38143  0.90876  0.49606  1.0000
  Fe  Fe40      1.0  0.39243  0.01057  0.45576  1.0000
  H   H279      1.0  0.48929  0.06696  0.21769  1.0000
  H   H280      1.0  0.11788  0.85036  0.43213  1.0000
  H   H281      1.0  0.36215  0.89750  0.57279  1.0000
  S   S75       1.0  0.27680  0.86153  0.40024  1.0000
  C   C172      1.0  0.35342  0.89448  0.46874  1.0000
  C   C173      1.0  0.32957  0.87941  0.48584  1.0000
  C   C174      1.0  0.30613  0.86896  0.46481  1.0000
  C   C175      1.0  0.30682  0.87306  0.42652  1.0000
  C   C176      1.0  0.33095  0.88769  0.40934  1.0000
  C   C177      1.0  0.35412  0.89864  0.43048  1.0000
  H   H282      1.0  0.32890  0.87619  0.51545  1.0000
  H   H283      1.0  0.28752  0.85778  0.47826  1.0000
  H   H284      1.0  0.33155  0.89082  0.37970  1.0000
  H   H285      1.0  0.37271  0.90991  0.41709  1.0000
  C   C178      1.0  0.41567  0.87156  0.57946  1.0000
  S   S76       1.0  0.22597  0.84883  0.57334  1.0000
  H   H286      1.0  0.29656  0.97270  0.39089  1.0000
  S   S77       1.0  0.44094  0.02151  0.44652  1.0000
  H   H287      1.0  0.26221  0.00036  0.43185  1.0000
  H   H288      1.0  0.40898  0.87458  0.55029  1.0000
  H   H289      1.0  0.11684  0.83346  0.56760  1.0000
  H   H290      1.0  0.38319  0.04562  0.51831  1.0000
  S   S78       1.0  0.39404  0.97169  0.42087  1.0000
  C   C179      1.0  0.48415  0.03027  0.27549  1.0000
  Fe  Fe41      1.0  0.21256  0.84917  0.51432  1.0000
  H   H291      1.0  0.25957  0.94700  0.43108  1.0000
  S   S79       1.0  0.14053  0.90790  0.44016  1.0000
  N   N17       1.0  0.29677  0.97166  0.45018  1.0000
  C   C180      1.0  0.27920  0.99834  0.45373  1.0000
  C   C181      1.0  0.27639  0.94673  0.45329  1.0000
  C   C182      1.0  0.31897  0.96990  0.47975  1.0000
  C   C183      1.0  0.31260  0.97172  0.41391  1.0000
  H   H292      1.0  0.29403  0.01754  0.45138  1.0000
  H   H293      1.0  0.26713  0.99911  0.48089  1.0000
  H   H294      1.0  0.28905  0.92634  0.45100  1.0000
  H   H295      1.0  0.26393  0.94595  0.48023  1.0000
  H   H296      1.0  0.33314  0.95041  0.47739  1.0000
  H   H297      1.0  0.30791  0.96919  0.50754  1.0000
  H   H298      1.0  0.33437  0.98865  0.47858  1.0000
  H   H299      1.0  0.32632  0.95200  0.41044  1.0000
  H   H300      1.0  0.32803  0.99039  0.41056  1.0000
  Fe  Fe42      1.0  0.17406  0.87392  0.45392  1.0000
  H   H301      1.0  0.40835  0.92683  0.56042  1.0000
  S   S80       1.0  0.16529  0.84082  0.49815  1.0000
  C   C184      1.0  0.37001  0.06470  0.51379  1.0000
  C   C185      1.0  0.59448  0.94617  0.11066  1.0000
  Fe  Fe43      1.0  0.44364  0.98036  0.41616  1.0000
  N   N18       1.0  0.50961  0.04966  0.26649  1.0000
  S   S81       1.0  0.19093  0.84285  0.41204  1.0000
  S   S82       1.0  0.56755  0.00357  0.18648  1.0000
  C   C186      1.0  0.57024  0.98339  0.14626  1.0000
  C   C187      1.0  0.59193  0.96190  0.14303  1.0000
  C   C188      1.0  0.51044  0.05653  0.22654  1.0000
  H   H302      1.0  0.53448  0.00594  0.11919  1.0000
  H   H303      1.0  0.53826  0.02989  0.30658  1.0000
  C   C189      1.0  0.56760  0.96107  0.35784  1.0000
  C   C190      1.0  0.55188  0.96454  0.32516  1.0000
  C   C191      1.0  0.52093  0.96990  0.32639  1.0000
  C   C192      1.0  0.50554  0.97236  0.36025  1.0000
  C   C193      1.0  0.52122  0.96896  0.39304  1.0000
  C   C194      1.0  0.55222  0.96310  0.39182  1.0000
  H   H304      1.0  0.56341  0.96260  0.29881  1.0000
  H   H305      1.0  0.50884  0.97185  0.30101  1.0000
  H   H306      1.0  0.56425  0.96046  0.41720  1.0000
  C   C195      1.0  0.55147  0.98951  0.11668  1.0000
  S   S83       1.0  0.45481  0.95309  0.46571  1.0000
  Fe  Fe44      1.0  0.44819  0.99374  0.49660  1.0000
  H   H307      1.0  0.48310  0.02442  0.30542  1.0000
  C   C196      1.0  0.53795  0.03549  0.27661  1.0000
  C   C197      1.0  0.10388  0.86498  0.41673  1.0000
  H   H308      1.0  0.50951  0.97093  0.41930  1.0000
  S   S84       1.0  0.46698  0.98042  0.36041  1.0000
  H   H309      1.0  0.44064  0.87153  0.57961  1.0000
  S   S85       1.0  0.48063  0.00703  0.53908  1.0000
  C   C198      1.0  0.11015  0.89434  0.41613  1.0000
  H   H310      1.0  0.48618  0.00991  0.26023  1.0000
  H   H311      1.0  0.55760  0.04954  0.26998  1.0000
  H   H312      1.0  0.54135  0.01526  0.26136  1.0000
  C   C199      1.0  0.47385  0.98856  0.58093  1.0000
  H   H313      1.0  0.10094  0.82260  0.50391  1.0000
  H   H314      1.0  0.51376  0.03689  0.21004  1.0000
  H   H315      1.0  0.57876  0.05194  0.13872  1.0000
  H   H316      1.0  0.09680  0.93586  0.39563  1.0000
  S   S86       1.0  0.35565  0.04267  0.44691  1.0000
  H   H317      1.0  0.21986  0.91102  0.72547  1.0000
  S   S87       1.0  0.37013  0.95591  0.68290  1.0000
  C   C200      1.0  0.36314  0.04533  0.86734  1.0000
  Fe  Fe45      1.0  0.37687  0.93604  0.78644  1.0000
  S   S88       1.0  0.33251  0.94660  0.76152  1.0000
  Fe  Fe46      1.0  0.34886  0.91932  0.71493  1.0000
  S   S89       1.0  0.32280  0.88657  0.68424  1.0000
  Fe  Fe47      1.0  0.35790  0.98219  0.73210  1.0000
  S   S90       1.0  0.33672  0.02606  0.72839  1.0000
  S   S91       1.0  0.39109  0.90567  0.74249  1.0000
  S   S92       1.0  0.40110  0.97355  0.76069  1.0000
  C   C201      1.0  0.36436  0.99890  0.89782  1.0000
  C   C202      1.0  0.30771  0.85926  0.71314  1.0000
  C   C203      1.0  0.30781  0.86179  0.75142  1.0000
  C   C204      1.0  0.44777  0.99376  0.60203  1.0000
  C   C205      1.0  0.41231  0.88924  0.64133  1.0000
  N   N19       1.0  0.36886  0.01450  0.86226  1.0000
  C   C206      1.0  0.21823  0.85489  0.71167  1.0000
  H   H318      1.0  0.31819  0.88013  0.76354  1.0000
  H   H319      1.0  0.19450  0.85065  0.64535  1.0000
  C   C207      1.0  0.20217  0.90407  0.70641  1.0000
  H   H320      1.0  0.37999  0.00656  0.91892  1.0000
  C   C208      1.0  0.57596  0.95241  0.08096  1.0000
  S   S93       1.0  0.38326  0.92982  0.84717  1.0000
  H   H321      1.0  0.18149  0.89944  0.72333  1.0000
  N   N20       1.0  0.54161  0.95241  0.74668  1.0000
  S   S94       1.0  0.58469  0.94270  0.93593  1.0000
  C   C209      1.0  0.35684  0.05368  0.74867  1.0000
  C   C210      1.0  0.29438  0.83528  0.69773  1.0000
  H   H322      1.0  0.41910  0.94805  0.90779  1.0000
  C   C211      1.0  0.18806  0.87020  0.66058  1.0000
  H   H323      1.0  0.36570  0.05753  0.84081  1.0000
  H   H324      1.0  0.36848  0.97554  0.89480  1.0000
  H   H325      1.0  0.41663  0.01807  0.86876  1.0000
  H   H326      1.0  0.52393  0.92894  0.70185  1.0000
  H   H327      1.0  0.43238  0.90985  0.80208  1.0000
  H   H328      1.0  0.40441  0.02198  0.82209  1.0000
  C   C212      1.0  0.44309  0.97947  0.63613  1.0000
  H   H329      1.0  0.32402  0.00664  0.84396  1.0000
  H   H330      1.0  0.39956  0.03230  0.74589  1.0000
  H   H331      1.0  0.35107  0.98008  0.83108  1.0000
  H   H332      1.0  0.16670  0.86535  0.67596  1.0000
  C   C213      1.0  0.55470  0.97438  0.08376  1.0000
  C   C214      1.0  0.23955  0.88597  0.66380  1.0000
  C   C215      1.0  0.40011  0.01040  0.84873  1.0000
  H   H333      1.0  0.53648  0.90814  0.76302  1.0000
  C   C216      1.0  0.56291  0.97606  0.75224  1.0000
  H   H334      1.0  0.56478  0.98082  0.78205  1.0000
  H   H335      1.0  0.58156  0.05372  0.03673  1.0000
  H   H336      1.0  0.19807  0.84907  0.72894  1.0000
  C   C217      1.0  0.42206  0.92902  0.85424  1.0000
  S   S95       1.0  0.51709  0.05219  0.96933  1.0000
  H   H337      1.0  0.29391  0.84299  0.80380  1.0000
  H   H338      1.0  0.55573  0.99603  0.73774  1.0000
  C   C218      1.0  0.38741  0.05073  0.75559  1.0000
  N   N21       1.0  0.21200  0.87877  0.68559  1.0000
  H   H339      1.0  0.19726  0.92249  0.68754  1.0000
  H   H340      1.0  0.35110  0.01409  0.80767  1.0000
  H   H341      1.0  0.53101  0.96597  0.69152  1.0000
  H   H342      1.0  0.29465  0.83310  0.66812  1.0000
  C   C219      1.0  0.29407  0.84072  0.77419  1.0000
  H   H343      1.0  0.40503  0.98744  0.84403  1.0000
  C   C220      1.0  0.34783  0.00339  0.83511  1.0000
  Fe  Fe48      1.0  0.41139  0.94431  0.71417  1.0000
  H   H344      1.0  0.23655  0.86039  0.73063  1.0000
  H   H345      1.0  0.24804  0.86739  0.64808  1.0000
  S   S96       1.0  0.58455  0.00129  0.98425  1.0000
  H   H346      1.0  0.35968  0.91089  0.61877  1.0000
  S   S97       1.0  0.57990  0.93258  0.04060  1.0000
  H   H347      1.0  0.43721  0.88928  0.64353  1.0000
  H   H348      1.0  0.40362  0.90623  0.65960  1.0000
  H   H349      1.0  0.25799  0.89287  0.68175  1.0000
  H   H350      1.0  0.42334  0.98412  0.65274  1.0000
  H   H351      1.0  0.50608  0.93828  0.63636  1.0000
  H   H352      1.0  0.34099  0.00136  0.90881  1.0000
  Fe  Fe49      1.0  0.56595  0.95709  0.99017  1.0000
  H   H353      1.0  0.51212  0.96410  0.79173  1.0000
  H   H354      1.0  0.33993  0.04923  0.87809  1.0000
  Fe  Fe50      1.0  0.54147  0.95817  0.91257  1.0000
  S   S98       1.0  0.55848  0.00252  0.90011  1.0000
  S   S99       1.0  0.52361  0.93387  0.86523  1.0000
  Fe  Fe51      1.0  0.54108  0.01137  0.95704  1.0000
  C   C221      1.0  0.48998  0.95404  0.62722  1.0000
  H   H355      1.0  0.37909  0.05469  0.88689  1.0000
  S   S100      1.0  0.52060  0.96805  0.96795  1.0000
  C   C222      1.0  0.55230  0.92631  0.76601  1.0000
  S   S101      1.0  0.45795  0.93983  0.68978  1.0000
  C   C223      1.0  0.51161  0.96030  0.76155  1.0000
  H   H356      1.0  0.18358  0.88721  0.63948  1.0000
  C   C224      1.0  0.48448  0.93150  0.86240  1.0000
  C   C225      1.0  0.47245  0.91949  0.83107  1.0000
  H   H357      1.0  0.55439  0.92981  0.79608  1.0000
  C   C226      1.0  0.43396  0.94020  0.88629  1.0000
  C   C227      1.0  0.36991  0.89392  0.60145  1.0000
  C   C228      1.0  0.46524  0.94184  0.89013  1.0000
  H   H358      1.0  0.48721  0.91079  0.81005  1.0000
  H   H359      1.0  0.50286  0.97995  0.74768  1.0000
  H   H360      1.0  0.49489  0.94307  0.75721  1.0000
  H   H361      1.0  0.47443  0.95090  0.91455  1.0000
  C   C229      1.0  0.46404  0.95934  0.64849  1.0000
  H   H362      1.0  0.23558  0.90349  0.64328  1.0000
  C   C230      1.0  0.44137  0.91879  0.82665  1.0000
  C   C231      1.0  0.53962  0.94690  0.70688  1.0000
  H   H363      1.0  0.54019  0.97913  0.06093  1.0000
  H   H364      1.0  0.40363  0.86848  0.65276  1.0000
  H   H365      1.0  0.22529  0.83530  0.69688  1.0000
  H   H366      1.0  0.36047  0.87314  0.61182  1.0000
  H   H367      1.0  0.24884  0.81925  0.63721  1.0000
  H   H368      1.0  0.57479  0.91959  0.75524  1.0000
  H   H369      1.0  0.57990  0.05566  0.94847  1.0000
  H   H370      1.0  0.56101  0.04120  0.07674  1.0000
  H   H371      1.0  0.56194  0.94128  0.69456  1.0000
  H   H372      1.0  0.40479  0.94008  0.60614  1.0000
  N   N22       1.0  0.40306  0.89428  0.60292  1.0000
  H   H373      1.0  0.58590  0.97068  0.74161  1.0000
  C   C232      1.0  0.49504  0.96887  0.59371  1.0000
  C   C233      1.0  0.57528  0.05901  0.06561  1.0000
  H   H374      1.0  0.43154  0.00927  0.59238  1.0000
  H   H375      1.0  0.43927  0.92374  0.59078  1.0000
  C   C234      1.0  0.41438  0.92243  0.58951  1.0000
  H   H376      1.0  0.40766  0.85004  0.58892  1.0000
  S   S102      1.0  0.62012  0.26072  0.27864  1.0000
  S   S103      1.0  0.71644  0.17408  0.41687  1.0000
  S   S104      1.0  0.73055  0.18187  0.31341  1.0000
  H   H377      1.0  0.70826  0.10969  0.57809  1.0000
  S   S105      1.0  0.75398  0.11059  0.46162  1.0000
  H   H378      1.0  0.91183  0.29907  0.53657  1.0000
  C   C235      1.0  0.78648  0.29166  0.54842  1.0000
  H   H379      1.0  0.68205  0.14992  0.55000  1.0000
  H   H380      1.0  0.72259  0.09848  0.53396  1.0000
  C   C236      1.0  0.68844  0.17209  0.55233  1.0000
  H   H381      1.0  0.62040  0.25315  0.44914  1.0000
  H   H382      1.0  0.65952  0.21785  0.37125  1.0000
  N   N23       1.0  0.80086  0.27547  0.51821  1.0000
  H   H383      1.0  0.63073  0.24189  0.20467  1.0000
  Fe  Fe52      1.0  0.74579  0.19066  0.37030  1.0000
  H   H384      1.0  0.64394  0.18843  0.39768  1.0000
  C   C237      1.0  0.65138  0.23916  0.28651  1.0000
  C   C238      1.0  0.65116  0.21042  0.27662  1.0000
  C   C239      1.0  0.67598  0.19300  0.28403  1.0000
  C   C240      1.0  0.70056  0.20417  0.30221  1.0000
  C   C241      1.0  0.70071  0.23288  0.31215  1.0000
  C   C242      1.0  0.67627  0.25052  0.30377  1.0000
  H   H385      1.0  0.63198  0.20160  0.26312  1.0000
  H   H386      1.0  0.67587  0.17076  0.27635  1.0000
  H   H387      1.0  0.71987  0.24160  0.32581  1.0000
  H   H388      1.0  0.67647  0.27279  0.31130  1.0000
  H   H389      1.0  0.75900  0.26770  0.49175  1.0000
  H   H390      1.0  0.71435  0.08903  0.32966  1.0000
  H   H391      1.0  0.73599  0.13206  0.27120  1.0000
  C   C243      1.0  0.80467  0.24530  0.53020  1.0000
  H   H392      1.0  0.77801  0.13944  0.31322  1.0000
  C   C244      1.0  0.76579  0.06864  0.29986  1.0000
  C   C245      1.0  0.59917  0.08879  0.22663  1.0000
  S   S106      1.0  0.70148  0.23979  0.48341  1.0000
  H   H393      1.0  0.71032  0.25197  0.56014  1.0000
  C   C246      1.0  0.64462  0.08374  0.26164  1.0000
  C   C247      1.0  0.93666  0.30096  0.53325  1.0000
  C   C248      1.0  0.93313  0.30563  0.46722  1.0000
  H   H394      1.0  0.84547  0.28771  0.53292  1.0000
  C   C249      1.0  0.70422  0.22970  0.55798  1.0000
  C   C250      1.0  0.78385  0.11637  0.31086  1.0000
  C   C251      1.0  0.63919  0.11045  0.27731  1.0000
  H   H395      1.0  0.79168  0.26447  0.46237  1.0000
  H   H396      1.0  0.94500  0.31042  0.55893  1.0000
  C   C252      1.0  0.63234  0.24738  0.17471  1.0000
  C   C253      1.0  0.77290  0.08450  0.43599  1.0000
  C   C254      1.0  0.78169  0.27681  0.48551  1.0000
  N   N24       1.0  0.61841  0.22746  0.40070  1.0000
  H   H397      1.0  0.64855  0.29080  0.21742  1.0000
  H   H398      1.0  0.80095  0.08780  0.56496  1.0000
  H   H399      1.0  0.80042  0.29122  0.57352  1.0000
  H   H400      1.0  0.65433  0.11858  0.29745  1.0000
  C   C255      1.0  0.61040  0.25179  0.37616  1.0000
  H   H401      1.0  0.77863  0.29919  0.47522  1.0000
  C   C256      1.0  0.69771  0.21858  0.52356  1.0000
  H   H402      1.0  0.61372  0.27133  0.11222  1.0000
  C   C257      1.0  0.69013  0.18973  0.52073  1.0000
  H   H403      1.0  0.94609  0.27898  0.53135  1.0000
  C   C258      1.0  0.82811  0.30578  0.36969  1.0000
  Fe  Fe53      1.0  0.72999  0.21372  0.44544  1.0000
  H   H404      1.0  0.74760  0.14787  0.57705  1.0000
  C   C259      1.0  0.62502  0.07356  0.23546  1.0000
  C   C260      1.0  0.73508  0.10150  0.33460  1.0000
  C   C261      1.0  0.59686  0.28611  0.18159  1.0000
  H   H405      1.0  0.77612  0.08405  0.52712  1.0000
  H   H406      1.0  0.75942  0.10814  0.24528  1.0000
  N   N25       1.0  0.75703  0.09897  0.30362  1.0000
  H   H407      1.0  0.63075  0.26312  0.36498  1.0000
  H   H408      1.0  0.90302  0.31138  0.38343  1.0000
  H   H409      1.0  0.65259  0.27985  0.11654  1.0000
  H   H410      1.0  0.68532  0.18102  0.49416  1.0000
  C   C262      1.0  0.88053  0.30274  0.38507  1.0000
  H   H411      1.0  0.76407  0.28258  0.55639  1.0000
  H   H412      1.0  0.59574  0.19423  0.43246  1.0000
  H   H413      1.0  0.80606  0.11341  0.41246  1.0000
  C   C263      1.0  0.62967  0.28452  0.12772  1.0000
  Fe  Fe54      1.0  0.75905  0.15533  0.43810  1.0000
  C   C264      1.0  0.77744  0.08283  0.55768  1.0000
  C   C265      1.0  0.81234  0.07070  0.39265  1.0000
  H   H414      1.0  0.78259  0.23502  0.53696  1.0000
  H   H415      1.0  0.61543  0.23414  0.16074  1.0000
  H   H416      1.0  0.64135  0.22037  0.45170  1.0000
  H   H417      1.0  0.71911  0.07318  0.57182  1.0000
  N   N26       1.0  0.62720  0.27826  0.16778  1.0000
  S   S107      1.0  0.99553  0.31201  0.39797  1.0000
  S   S108      1.0  0.77017  0.19364  0.47107  1.0000
  H   H418      1.0  0.72320  0.09669  0.26248  1.0000
  C   C266      1.0  0.74336  0.10939  0.26912  1.0000
  H   H419      1.0  0.65541  0.24981  0.42408  1.0000
  S   S109      1.0  0.75474  0.23269  0.39657  1.0000
  H   H420      1.0  0.59615  0.26769  0.39080  1.0000
  H   H421      1.0  0.03406  0.27449  0.43745  1.0000
  Fe  Fe55      1.0  0.79469  0.21021  0.42023  1.0000
  S   S110      1.0  0.78784  0.16945  0.38955  1.0000
  S   S111      1.0  0.83953  0.23162  0.42830  1.0000
  C   C267      1.0  0.63805  0.20743  0.38032  1.0000
  H   H422      1.0  0.94133  0.28331  0.46393  1.0000
  H   H423      1.0  0.72816  0.12412  0.33848  1.0000
  C   C268      1.0  0.63451  0.23816  0.43278  1.0000
  C   C269      1.0  0.84606  0.26454  0.40467  1.0000
  C   C270      1.0  0.82267  0.27944  0.38786  1.0000
  H   H424      1.0  0.62713  0.19967  0.35515  1.0000
  H   H425      1.0  0.98846  0.29928  0.49118  1.0000
  C   C271      1.0  0.61329  0.12608  0.26798  1.0000
  C   C272      1.0  0.87500  0.27640  0.40350  1.0000
  H   H426      1.0  0.80035  0.27084  0.38864  1.0000
  C   C273      1.0  0.04329  0.29585  0.43860  1.0000
  H   H427      1.0  0.89329  0.26490  0.41612  1.0000
  H   H428      1.0  0.74466  0.09370  0.36103  1.0000
  C   C274      1.0  0.79767  0.09175  0.41335  1.0000
  H   H429      1.0  0.90815  0.30523  0.46788  1.0000
  H   H430      1.0  0.65501  0.24068  0.16465  1.0000
  H   H431      1.0  0.78639  0.13830  0.57140  1.0000
  C   C275      1.0  0.83057  0.28804  0.50869  1.0000
  H   H432      1.0  0.59755  0.24454  0.35216  1.0000
  C   C276      1.0  0.72510  0.09569  0.56426  1.0000
  N   N27       1.0  0.75591  0.10264  0.57536  1.0000
  H   H433      1.0  0.83178  0.07627  0.37552  1.0000
  H   H434      1.0  0.67311  0.28948  0.17766  1.0000
  H   H435      1.0  0.62450  0.30733  0.12109  1.0000
  H   H436      1.0  0.64051  0.09108  0.08846  1.0000
  C   C277      1.0  0.64990  0.29500  0.18709  1.0000
  H   H437      1.0  0.84211  0.27603  0.48622  1.0000
  C   C278      1.0  0.06964  0.30049  0.45779  1.0000
  H   H438      1.0  0.81867  0.24348  0.55511  1.0000
  H   H439      1.0  0.81587  0.23260  0.50814  1.0000
  H   H440      1.0  0.79444  0.10960  0.33703  1.0000
  H   H441      1.0  0.61251  0.07208  0.14417  1.0000
  H   H442      1.0  0.80112  0.11460  0.28838  1.0000
  H   H443      1.0  0.76143  0.13556  0.53343  1.0000
  H   H444      1.0  0.60874  0.14634  0.28066  1.0000
  C   C279      1.0  0.76321  0.13240  0.56379  1.0000
  H   H445      1.0  0.08073  0.28270  0.47135  1.0000
  H   H446      1.0  0.82849  0.31065  0.49884  1.0000
  H   H447      1.0  0.80988  0.31706  0.35657  1.0000
  H   H448      1.0  0.78312  0.31451  0.54024  1.0000
  C   C280      1.0  0.69556  0.18293  0.58666  1.0000
  S   S112      1.0  0.61170  0.22820  0.97399  1.0000
  Fe  Fe56      1.0  0.77903  0.16217  0.71105  1.0000
  S   S113      1.0  0.61542  0.14438  0.00090  1.0000
  C   C281      1.0  0.74404  0.09417  0.80351  1.0000
  H   H449      1.0  0.74585  0.24829  0.78070  1.0000
  C   C282      1.0  0.61997  0.21898  0.85108  1.0000
  C   C283      1.0  0.62894  0.22096  0.81379  1.0000
  C   C284      1.0  0.65343  0.20477  0.80059  1.0000
  C   C285      1.0  0.66904  0.18672  0.82471  1.0000
  C   C286      1.0  0.65964  0.18437  0.86173  1.0000
  C   C287      1.0  0.63519  0.20042  0.87487  1.0000
  H   H450      1.0  0.61698  0.23500  0.79515  1.0000
  H   H451      1.0  0.66004  0.20604  0.77177  1.0000
  H   H452      1.0  0.67148  0.17030  0.88048  1.0000
  H   H453      1.0  0.62833  0.19851  0.90358  1.0000
  C   C288      1.0  0.81423  0.30688  0.68696  1.0000
  C   C289      1.0  0.75787  0.09963  0.61583  1.0000
  H   H454      1.0  0.70881  0.08587  0.74554  1.0000
  H   H455      1.0  0.78082  0.10481  0.62515  1.0000
  C   C290      1.0  0.89780  0.30695  0.75102  1.0000
  H   H456      1.0  0.60691  0.10744  0.07159  1.0000
  H   H457      1.0  0.67919  0.29439  0.76419  1.0000
  S   S114      1.0  0.73301  0.14344  0.71567  1.0000
  C   C291      1.0  0.68977  0.27619  0.83378  1.0000
  H   H458      1.0  0.95143  0.28365  0.76531  1.0000
  H   H459      1.0  0.67813  0.25604  0.76685  1.0000
  H   H460      1.0  0.94423  0.30206  0.70256  1.0000
  H   H461      1.0  0.75243  0.07738  0.62548  1.0000
  H   H462      1.0  0.67530  0.25679  0.83572  1.0000
  N   N28       1.0  0.71062  0.27525  0.80150  1.0000
  S   S115      1.0  0.77014  0.19444  0.75441  1.0000
  S   S116      1.0  0.69542  0.15970  0.62517  1.0000
  S   S117      1.0  0.70073  0.16724  0.80993  1.0000
  Fe  Fe57      1.0  0.72179  0.17601  0.67200  1.0000
  H   H463      1.0  0.69350  0.10461  0.84309  1.0000
  S   S118      1.0  0.70766  0.20995  0.71174  1.0000
  H   H464      1.0  0.77619  0.09675  0.69024  1.0000
  Fe  Fe58      1.0  0.75631  0.22311  0.70760  1.0000
  Fe  Fe59      1.0  0.72275  0.17851  0.75501  1.0000
  C   C292      1.0  0.82960  0.08678  0.75441  1.0000
  C   C293      1.0  0.78931  0.08607  0.71095  1.0000
  H   H465      1.0  0.61907  0.09094  0.96308  1.0000
  H   H466      1.0  0.70212  0.27710  0.86002  1.0000
  C   C294      1.0  0.62011  0.08719  0.07222  1.0000
  H   H467      1.0  0.75668  0.09249  0.77690  1.0000
  C   C295      1.0  0.69907  0.08165  0.83866  1.0000
  H   H468      1.0  0.73996  0.11734  0.80807  1.0000
  S   S119      1.0  0.76900  0.19182  0.66371  1.0000
  H   H469      1.0  0.74202  0.24818  0.82999  1.0000
  H   H470      1.0  0.93453  0.26720  0.68682  1.0000
  C   C296      1.0  0.73029  0.30073  0.80076  1.0000
  H   H471      1.0  0.67761  0.06941  0.83961  1.0000
  H   H472      1.0  0.70845  0.27387  0.74242  1.0000
  C   C297      1.0  0.72926  0.24916  0.80403  1.0000
  S   S120      1.0  0.77006  0.26949  0.71051  1.0000
  C   C298      1.0  0.83866  0.26989  0.63479  1.0000
  C   C299      1.0  0.69703  0.08854  0.77267  1.0000
  H   H473      1.0  0.84813  0.25543  0.61474  1.0000
  C   C300      1.0  0.59614  0.09405  0.97274  1.0000
  C   C301      1.0  0.69331  0.27489  0.76728  1.0000
  C   C302      1.0  0.92527  0.28682  0.69968  1.0000
  H   H474      1.0  0.71254  0.07402  0.86236  1.0000
  H   H475      1.0  0.67466  0.29512  0.83234  1.0000
  C   C303      1.0  0.80151  0.27972  0.68296  1.0000
  C   C304      1.0  0.81397  0.26121  0.65698  1.0000
  H   H476      1.0  0.74610  0.30067  0.77644  1.0000
  H   H477      1.0  0.70916  0.22013  0.61605  1.0000
  C   C305      1.0  0.93272  0.26825  0.76120  1.0000
  H   H478      1.0  0.69172  0.11169  0.77549  1.0000
  H   H479      1.0  0.80449  0.24028  0.65372  1.0000
  H   H480      1.0  0.86885  0.26804  0.71148  1.0000
  H   H481      1.0  0.62759  0.08314  0.04329  1.0000
  H   H482      1.0  0.92239  0.26309  0.78877  1.0000
  C   C306      1.0  0.88593  0.25949  0.73078  1.0000
  S   S121      1.0  0.82099  0.13612  0.71444  1.0000
  C   C307      1.0  0.81281  0.10059  0.72726  1.0000
  H   H483      1.0  0.94287  0.24825  0.75038  1.0000
  H   H484      1.0  0.84779  0.09796  0.76708  1.0000
  N   N29       1.0  0.91040  0.28034  0.73570  1.0000
  C   C308      1.0  0.85127  0.29702  0.63871  1.0000
  H   H485      1.0  0.87403  0.25417  0.75736  1.0000
  H   H486      1.0  0.75905  0.08611  0.82549  1.0000
  S   S122      1.0  0.88209  0.30719  0.61035  1.0000
  H   H487      1.0  0.90931  0.29662  0.67999  1.0000
  N   N30       1.0  0.71560  0.07791  0.80327  1.0000
  H   H488      1.0  0.67536  0.07678  0.77178  1.0000
  H   H489      1.0  0.89458  0.23914  0.71918  1.0000
  H   H490      1.0  0.88687  0.30301  0.77855  1.0000
  H   H491      1.0  0.74406  0.30154  0.82588  1.0000
  H   H492      1.0  0.74183  0.11423  0.63009  1.0000
  H   H493      1.0  0.71534  0.22944  0.80333  1.0000
  C   C309      1.0  0.70364  0.21171  0.58952  1.0000
  H   H494      1.0  0.88052  0.31642  0.73272  1.0000
  C   C310      1.0  0.83918  0.31548  0.66501  1.0000
  H   H495      1.0  0.98524  0.33531  0.47393  1.0000
  H   H496      1.0  0.90775  0.34760  0.50692  1.0000
  H   H497      1.0  0.95399  0.42455  0.55250  1.0000
  C   C311      1.0  0.04072  0.34630  0.42280  1.0000
  S   S123      1.0  0.93222  0.50908  0.17314  1.0000
  Fe  Fe60      1.0  0.91034  0.36665  0.34656  1.0000
  S   S124      1.0  0.92469  0.41122  0.32888  1.0000
  H   H498      1.0  0.93928  0.36214  0.48096  1.0000
  Fe  Fe61      1.0  0.97156  0.34947  0.37249  1.0000
  S   S125      1.0  0.99174  0.39185  0.35736  1.0000
  H   H499      1.0  0.96166  0.50024  0.37402  1.0000
  Fe  Fe62      1.0  0.94981  0.41051  0.38148  1.0000
  S   S126      1.0  0.95307  0.44686  0.42011  1.0000
  Fe  Fe63      1.0  0.96558  0.38923  0.30582  1.0000
  S   S127      1.0  0.99305  0.40478  0.25690  1.0000
  S   S128      1.0  0.93164  0.36835  0.40152  1.0000
  S   S129      1.0  0.94911  0.34465  0.31843  1.0000
  C   C312      1.0  0.96799  0.43139  0.46007  1.0000
  S   S130      1.0  0.06068  0.53988  0.22874  1.0000
  C   C313      1.0  0.99194  0.41217  0.45693  1.0000
  H   H500      1.0  0.08626  0.41976  0.35017  1.0000
  H   H501      1.0  0.00258  0.40865  0.43045  1.0000
  C   C314      1.0  0.99251  0.46698  0.32745  1.0000
  H   H502      1.0  0.93600  0.45098  0.49718  1.0000
  C   C315      1.0  0.05658  0.35943  0.31510  1.0000
  H   H503      1.0  0.01352  0.46564  0.34332  1.0000
  C   C316      1.0  0.02884  0.31870  0.42098  1.0000
  H   H504      1.0  0.01010  0.50205  0.27073  1.0000
  S   S131      1.0  0.99956  0.38049  0.56005  1.0000
  H   H505      1.0  0.02905  0.36407  0.41034  1.0000
  H   H506      1.0  0.02055  0.38238  0.48539  1.0000
  C   C317      1.0  0.08203  0.32790  0.45878  1.0000
  H   H507      1.0  0.97195  0.53392  0.35242  1.0000
  C   C318      1.0  0.06755  0.35089  0.44136  1.0000
  C   C319      1.0  0.94885  0.47959  0.19586  1.0000
  C   C320      1.0  0.98004  0.47820  0.19929  1.0000
  C   C321      1.0  0.99339  0.45476  0.21712  1.0000
  C   C322      1.0  0.97558  0.43296  0.23293  1.0000
  C   C323      1.0  0.94430  0.43447  0.23039  1.0000
  C   C324      1.0  0.93098  0.45754  0.21130  1.0000
  H   H508      1.0  0.99410  0.49496  0.18804  1.0000
  H   H509      1.0  0.01756  0.45381  0.21919  1.0000
  H   H510      1.0  0.93040  0.41762  0.24252  1.0000
  H   H511      1.0  0.90682  0.45848  0.20901  1.0000
  H   H512      1.0  0.05907  0.39616  0.37138  1.0000
  H   H513      1.0  0.99638  0.45561  0.30116  1.0000
  N   N31       1.0  0.94516  0.31873  0.50050  1.0000
  H   H514      1.0  0.02897  0.51136  0.31190  1.0000
  C   C325      1.0  0.06859  0.40380  0.34435  1.0000
  N   N32       1.0  0.98334  0.49697  0.32068  1.0000
  C   C326      1.0  0.95466  0.43624  0.49468  1.0000
  H   H515      1.0  0.94727  0.51977  0.29464  1.0000
  H   H516      1.0  0.08351  0.50000  0.11444  1.0000
  H   H517      1.0  0.08822  0.33493  0.57390  1.0000
  C   C327      1.0  0.95477  0.49750  0.30078  1.0000
  N   N33       1.0  0.08087  0.37988  0.32269  1.0000
  H   H518      1.0  0.93650  0.48643  0.31701  1.0000
  H   H519      1.0  0.07665  0.37223  0.44276  1.0000
  S   S132      1.0  0.00976  0.54194  0.14840  1.0000
  C   C328      1.0  0.98825  0.40148  0.52242  1.0000
  C   C329      1.0  0.97912  0.51128  0.35635  1.0000
  H   H520      1.0  0.00107  0.53480  0.29323  1.0000
  C   C330      1.0  0.96464  0.42108  0.52588  1.0000
  H   H521      1.0  0.97489  0.45498  0.34358  1.0000
  H   H522      1.0  0.00020  0.51120  0.37220  1.0000
  H   H523      1.0  0.06391  0.40582  0.54015  1.0000
  Fe  Fe64      1.0  0.96328  0.54699  0.17163  1.0000
  H   H524      1.0  0.98830  0.32867  0.52240  1.0000
  S   S133      1.0  0.86303  0.35043  0.34467  1.0000
  C   C331      1.0  0.07640  0.38521  0.54178  1.0000
  C   C332      1.0  0.00687  0.51193  0.29823  1.0000
  H   H525      1.0  0.94117  0.35803  0.52982  1.0000
  H   H526      1.0  0.07646  0.40250  0.27090  1.0000
  H   H527      1.0  0.90039  0.51014  0.10314  1.0000
  H   H528      1.0  0.03835  0.36982  0.29907  1.0000
  C   C333      1.0  0.00226  0.39746  0.48810  1.0000
  H   H529      1.0  0.05057  0.41525  0.32926  1.0000
  H   H530      1.0  0.95704  0.48648  0.27405  1.0000
  H   H531      1.0  0.07412  0.52045  0.15443  1.0000
  H   H532      1.0  0.04616  0.35042  0.34105  1.0000
  H   H533      1.0  0.06025  0.36787  0.53569  1.0000
  H   H534      1.0  0.06505  0.34109  0.29881  1.0000
  N   N34       1.0  0.08984  0.38065  0.57828  1.0000
  C   C334      1.0  0.93269  0.34784  0.50469  1.0000
  Fe  Fe65      1.0  0.02340  0.56243  0.20022  1.0000
  C   C335      1.0  0.07108  0.55730  0.26842  1.0000
  S   S134      1.0  0.97715  0.56512  0.22516  1.0000
  C   C336      1.0  0.97823  0.32049  0.49695  1.0000
  H   H535      1.0  0.95022  0.53372  0.10269  1.0000
  H   H536      1.0  0.09380  0.38539  0.51931  1.0000
  H   H537      1.0  0.07835  0.56482  0.11643  1.0000
  H   H538      1.0  0.94047  0.31754  0.44182  1.0000
  C   C337      1.0  0.85703  0.31746  0.36805  1.0000
  H   H539      1.0  0.64668  0.31840  0.18243  1.0000
  H   H540      1.0  0.94668  0.48245  0.09103  1.0000
  C   C338      1.0  0.09382  0.39132  0.28750  1.0000
  C   C339      1.0  0.09316  0.51155  0.13792  1.0000
  H   H541      1.0  0.04951  0.36435  0.60478  1.0000
  C   C340      1.0  0.94754  0.53827  0.07277  1.0000
  Fe  Fe66      1.0  0.99414  0.54244  0.85170  1.0000
  C   C341      1.0  0.05637  0.51965  0.89113  1.0000
  S   S135      1.0  0.90772  0.47911  0.83374  1.0000
  H   H542      1.0  0.97101  0.48287  0.75160  1.0000
  S   S136      1.0  0.95886  0.33475  0.63222  1.0000
  H   H543      1.0  0.08852  0.54467  0.07656  1.0000
  C   C342      1.0  0.97989  0.46107  0.74597  1.0000
  Fe  Fe67      1.0  0.90958  0.34384  0.63068  1.0000
  C   C343      1.0  0.92731  0.52235  0.01568  1.0000
  H   H544      1.0  0.88754  0.53575  0.06952  1.0000
  Fe  Fe68      1.0  0.95805  0.35857  0.68492  1.0000
  S   S137      1.0  0.96802  0.40098  0.65790  1.0000
  H   H545      1.0  0.07576  0.37964  0.63545  1.0000
  Fe  Fe69      1.0  0.91802  0.40480  0.65452  1.0000
  S   S138      1.0  0.89794  0.44762  0.66626  1.0000
  Fe  Fe70      1.0  0.96456  0.37775  0.60509  1.0000
  H   H546      1.0  0.96019  0.44713  0.74127  1.0000
  S   S139      1.0  0.90797  0.36407  0.68632  1.0000
  H   H547      1.0  0.93655  0.55956  0.07002  1.0000
  H   H548      1.0  0.98679  0.56480  0.95074  1.0000
  C   C344      1.0  0.08329  0.33480  0.69859  1.0000
  H   H549      1.0  0.97045  0.54000  0.05999  1.0000
  H   H550      1.0  0.98851  0.40585  0.76546  1.0000
  Fe  Fe71      1.0  0.93079  0.52124  0.84095  1.0000
  H   H551      1.0  0.94983  0.52374  0.00174  1.0000
  H   H552      1.0  0.93185  0.47031  0.04845  1.0000
  S   S140      1.0  0.98471  0.34532  0.73415  1.0000
  H   H553      1.0  0.97176  0.47153  0.81815  1.0000
  S   S141      1.0  0.96699  0.53651  0.80162  1.0000
  C   C345      1.0  0.89934  0.51489  0.07296  1.0000
  H   H554      1.0  0.03910  0.46911  0.75599  1.0000
  C   C346      1.0  0.89947  0.45641  0.71290  1.0000
  C   C347      1.0  0.89787  0.43502  0.74042  1.0000
  C   C348      1.0  0.89952  0.44226  0.77761  1.0000
  C   C349      1.0  0.90356  0.47081  0.78730  1.0000
  C   C350      1.0  0.90531  0.49219  0.75981  1.0000
  C   C351      1.0  0.90288  0.48502  0.72266  1.0000
  H   H555      1.0  0.89485  0.41298  0.73310  1.0000
  H   H556      1.0  0.89800  0.42572  0.79887  1.0000
  H   H557      1.0  0.90812  0.51432  0.76717  1.0000
  H   H558      1.0  0.90400  0.50163  0.70143  1.0000
  H   H559      1.0  0.01520  0.52837  0.92089  1.0000
  C   C352      1.0  0.00799  0.42048  0.76867  1.0000
  N   N35       1.0  0.92969  0.51581  0.05556  1.0000
  C   C353      1.0  0.05070  0.51807  0.95779  1.0000
  C   C354      1.0  0.04561  0.34878  0.74435  1.0000
  H   H560      1.0  0.99235  0.44122  0.83498  1.0000
  C   C355      1.0  0.07591  0.34606  0.73308  1.0000
  H   H561      1.0  0.03689  0.52058  0.98240  1.0000
  N   N36       1.0  0.99798  0.44992  0.77673  1.0000
  C   C356      1.0  0.02442  0.46853  0.78122  1.0000
  C   C357      1.0  0.97955  0.44962  0.81115  1.0000
  H   H562      1.0  0.88519  0.49814  0.06073  1.0000
  H   H563      1.0  0.01757  0.49095  0.78704  1.0000
  H   H564      1.0  0.03998  0.35713  0.77120  1.0000
  H   H565      1.0  0.95910  0.43620  0.80873  1.0000
  H   H566      1.0  0.03832  0.46108  0.80467  1.0000
  H   H567      1.0  0.02165  0.41978  0.74262  1.0000
  H   H568      1.0  0.96771  0.48795  0.04855  1.0000
  H   H569      1.0  0.02190  0.41140  0.79114  1.0000
  C   C358      1.0  0.08643  0.51153  0.89408  1.0000
  S   S142      1.0  0.04225  0.52832  0.84779  1.0000
  C   C359      1.0  0.03838  0.52230  0.92297  1.0000
  H   H570      1.0  0.99319  0.46233  0.71966  1.0000
  H   H571      1.0  0.05354  0.40239  0.60613  1.0000
  S   S143      1.0  0.95934  0.52359  0.89062  1.0000
  C   C360      1.0  0.94464  0.48786  0.06108  1.0000
  C   C361      1.0  0.08123  0.51197  0.96072  1.0000
  S   S144      1.0  0.91036  0.56475  0.84790  1.0000
  H   H572      1.0  0.91593  0.54327  0.01065  1.0000
  C   C362      1.0  0.02269  0.34107  0.72071  1.0000
  C   C363      1.0  0.06038  0.32662  0.67533  1.0000
  C   C364      1.0  0.06618  0.38186  0.60748  1.0000
  S   S145      1.0  0.91530  0.38510  0.59872  1.0000
  H   H573      1.0  0.91421  0.50576  0.00155  1.0000
  H   H574      1.0  0.09351  0.35235  0.75123  1.0000
  H   H575      1.0  0.84852  0.33664  0.66780  1.0000
  C   C365      1.0  0.03021  0.33011  0.68614  1.0000
  H   H576      1.0  0.71700  0.32087  0.79901  1.0000
  H   H577      1.0  0.01283  0.32358  0.66801  1.0000
  H   H578      1.0  0.80460  0.32142  0.70682  1.0000
  H   H579      1.0  0.91563  0.32338  0.75433  1.0000
  H   H580      1.0  0.06595  0.31763  0.64882  1.0000
  Fe  Fe72      1.0  0.97525  0.60769  0.19541  1.0000
  C   C366      1.0  0.94226  0.75735  0.56780  1.0000
  S   S146      1.0  0.95392  0.64752  0.21815  1.0000
  S   S147      1.0  0.02358  0.76424  0.48964  1.0000
  H   H581      1.0  0.93231  0.66530  0.36070  1.0000
  H   H582      1.0  0.05366  0.61564  0.31908  1.0000
  C   C367      1.0  0.05454  0.58064  0.28131  1.0000
  Fe  Fe73      1.0  0.00505  0.58630  0.12578  1.0000
  S   S148      1.0  0.02349  0.60683  0.17562  1.0000
  Fe  Fe74      1.0  0.00958  0.77354  0.43213  1.0000
  C   C368      1.0  0.06088  0.81335  0.55890  1.0000
  N   N37       1.0  0.08946  0.79782  0.55293  1.0000
  Fe  Fe75      1.0  0.01353  0.75383  0.35374  1.0000
  S   S149      1.0  0.98731  0.79125  0.33199  1.0000
  S   S150      1.0  0.03580  0.71866  0.32200  1.0000
  C   C369      1.0  0.93803  0.75815  0.52969  1.0000
  H   H583      1.0  0.91830  0.72349  0.39170  1.0000
  H   H584      1.0  0.08852  0.62978  0.17406  1.0000
  S   S151      1.0  0.04402  0.78041  0.38714  1.0000
  S   S152      1.0  0.98114  0.74385  0.40044  1.0000
  H   H585      1.0  0.90786  0.81326  0.53559  1.0000
  S   S153      1.0  0.90758  0.78765  0.37729  1.0000
  H   H586      1.0  0.93905  0.74100  0.33068  1.0000
  H   H587      1.0  0.95967  0.76150  0.47595  1.0000
  H   H588      1.0  0.88104  0.72682  0.37511  1.0000
  H   H589      1.0  0.08161  0.78990  0.49578  1.0000
  C   C370      1.0  0.06559  0.59686  0.31008  1.0000
  C   C371      1.0  0.08549  0.76740  0.56389  1.0000
  H   H590      1.0  0.06891  0.75676  0.54626  1.0000
  C   C372      1.0  0.09334  0.59001  0.32520  1.0000
  H   H591      1.0  0.92464  0.81186  0.44653  1.0000
  C   C373      1.0  0.96296  0.76042  0.50533  1.0000
  C   C374      1.0  0.99205  0.76110  0.51918  1.0000
  C   C375      1.0  0.99611  0.75982  0.55718  1.0000
  S   S154      1.0  0.98357  0.81294  0.41807  1.0000
  H   H592      1.0  0.94553  0.67673  0.31579  1.0000
  Fe  Fe76      1.0  0.95765  0.78402  0.38224  1.0000
  H   H593      1.0  0.89367  0.69309  0.39397  1.0000
  C   C376      1.0  0.97670  0.66721  0.24701  1.0000
  C   C377      1.0  0.99739  0.65341  0.26962  1.0000
  C   C378      1.0  0.01457  0.66941  0.29365  1.0000
  C   C379      1.0  0.01165  0.69916  0.29460  1.0000
  C   C380      1.0  0.99066  0.71297  0.27243  1.0000
  C   C381      1.0  0.97315  0.69696  0.24868  1.0000
  H   H594      1.0  0.99973  0.63039  0.26903  1.0000
  H   H595      1.0  0.03017  0.65881  0.31170  1.0000
  H   H596      1.0  0.98847  0.73601  0.27287  1.0000
  H   H597      1.0  0.95716  0.70764  0.23110  1.0000
  H   H598      1.0  0.91557  0.75748  0.51906  1.0000
  N   N38       1.0  0.91145  0.70367  0.33965  1.0000
  C   C382      1.0  0.93770  0.68449  0.34312  1.0000
  C   C383      1.0  0.88728  0.68859  0.32073  1.0000
  C   C384      1.0  0.92014  0.72959  0.31793  1.0000
  C   C385      1.0  0.90061  0.71201  0.37673  1.0000
  H   H599      1.0  0.95703  0.69554  0.35550  1.0000
  C   C386      1.0  0.97130  0.75835  0.58134  1.0000
  H   H600      1.0  0.86717  0.70250  0.31746  1.0000
  H   H601      1.0  0.89483  0.68194  0.29266  1.0000
  H   H602      1.0  0.88009  0.66892  0.33635  1.0000
  H   H603      1.0  0.90118  0.74507  0.31609  1.0000
  H   H604      1.0  0.92729  0.72430  0.28935  1.0000
  H   H605      1.0  0.86441  0.80068  0.57548  1.0000
  C   C387      1.0  0.07147  0.65377  0.23838  1.0000
  H   H606      1.0  0.05724  0.63501  0.23236  1.0000
  H   H607      1.0  0.01836  0.76021  0.56823  1.0000
  H   H608      1.0  0.03394  0.58688  0.26818  1.0000
  H   H609      1.0  0.07172  0.65555  0.26890  1.0000
  H   H610      1.0  0.08396  0.76466  0.31861  1.0000
  H   H611      1.0  0.09126  0.66805  0.16985  1.0000
  H   H612      1.0  0.04284  0.80474  0.54163  1.0000
  C   C388      1.0  0.89259  0.81583  0.40328  1.0000
  S   S155      1.0  0.95661  0.58980  0.14362  1.0000
  H   H613      1.0  0.06018  0.67320  0.22707  1.0000
  H   H614      1.0  0.09013  0.73844  0.37704  1.0000
  H   H615      1.0  0.05284  0.81151  0.58817  1.0000
  Fe  Fe77      1.0  0.01522  0.81714  0.36960  1.0000
  S   S156      1.0  0.97998  0.58792  0.86000  1.0000
  H   H616      1.0  0.06890  0.65214  0.95747  1.0000
  Fe  Fe78      1.0  0.94233  0.56855  0.89457  1.0000
  S   S157      1.0  0.94668  0.61026  0.76354  1.0000
  C   C389      1.0  0.04942  0.77997  0.73603  1.0000
  H   H617      1.0  0.02706  0.78703  0.74349  1.0000
  H   H618      1.0  0.02822  0.64561  0.73027  1.0000
  S   S158      1.0  0.96483  0.74949  0.68509  1.0000
  H   H619      1.0  0.04751  0.67610  0.79901  1.0000
  S   S159      1.0  0.90134  0.78402  0.70177  1.0000
  H   H620      1.0  0.06672  0.70538  0.77602  1.0000
  Fe  Fe79      1.0  0.93939  0.76598  0.73429  1.0000
  S   S160      1.0  0.93123  0.74236  0.78810  1.0000
  N   N39       1.0  0.86835  0.81550  0.80510  1.0000
  S   S161      1.0  0.03596  0.79470  0.66493  1.0000
  H   H621      1.0  0.06724  0.60786  0.99735  1.0000
  H   H622      1.0  0.09196  0.60231  0.88314  1.0000
  H   H623      1.0  0.05133  0.72152  0.71404  1.0000
  C   C390      1.0  0.05463  0.68493  0.77147  1.0000
  S   S162      1.0  0.91154  0.75723  0.59890  1.0000
  H   H624      1.0  0.96581  0.61675  0.06630  1.0000
  H   H625      1.0  0.00396  0.65287  0.76920  1.0000
  H   H626      1.0  0.98809  0.71431  0.74720  1.0000
  H   H627      1.0  0.92692  0.61403  0.01860  1.0000
  C   C391      1.0  0.04470  0.60495  0.92970  1.0000
  C   C392      1.0  0.93827  0.64620  0.77197  1.0000
  C   C393      1.0  0.93248  0.66457  0.74201  1.0000
  C   C394      1.0  0.92893  0.69399  0.74719  1.0000
  C   C395      1.0  0.93124  0.70518  0.78238  1.0000
  C   C396      1.0  0.93592  0.68672  0.81265  1.0000
  C   C397      1.0  0.93950  0.65719  0.80744  1.0000
  H   H628      1.0  0.93125  0.65606  0.71459  1.0000
  H   H629      1.0  0.92473  0.70800  0.72381  1.0000
  H   H630      1.0  0.93761  0.69530  0.83996  1.0000
  H   H631      1.0  0.94379  0.64304  0.83070  1.0000
  N   N40       1.0  0.07649  0.60938  0.93877  1.0000
  C   C398      1.0  0.08326  0.64034  0.93737  1.0000
  H   H632      1.0  0.06036  0.76752  0.79167  1.0000
  H   H633      1.0  0.91548  0.81503  0.81714  1.0000
  C   C399      1.0  0.05970  0.78207  0.69937  1.0000
  C   C400      1.0  0.95451  0.58942  0.98141  1.0000
  H   H634      1.0  0.07725  0.76505  0.59304  1.0000
  C   C401      1.0  0.97045  0.60533  0.04119  1.0000
  H   H635      1.0  0.01990  0.70535  0.69273  1.0000
  C   C402      1.0  0.94852  0.60388  0.01417  1.0000
  C   C403      1.0  0.99834  0.59225  0.03546  1.0000
  H   H636      1.0  0.97487  0.75784  0.61051  1.0000
  H   H637      1.0  0.07956  0.64982  0.90948  1.0000
  Fe  Fe80      1.0  0.92940  0.77196  0.65242  1.0000
  C   C404      1.0  0.03905  0.70103  0.71123  1.0000
  Fe  Fe81      1.0  0.98749  0.79229  0.68348  1.0000
  S   S163      1.0  0.95364  0.81382  0.64794  1.0000
  C   C405      1.0  0.01303  0.66191  0.74254  1.0000
  H   H638      1.0  0.03973  0.61318  0.90151  1.0000
  N   N41       1.0  0.02860  0.68944  0.74753  1.0000
  H   H639      1.0  0.02931  0.61603  0.94936  1.0000
  C   C406      1.0  0.08213  0.59777  0.97620  1.0000
  H   H640      1.0  0.99364  0.66448  0.72397  1.0000
  C   C407      1.0  0.86625  0.78392  0.80620  1.0000
  C   C408      1.0  0.00763  0.70993  0.76487  1.0000
  H   H641      1.0  0.07118  0.66989  0.75905  1.0000
  H   H642      1.0  0.01859  0.73081  0.76968  1.0000
  S   S164      1.0  0.96538  0.80699  0.73592  1.0000
  H   H643      1.0  0.09151  0.57099  0.91265  1.0000
  H   H644      1.0  0.99864  0.70165  0.79192  1.0000
  C   C409      1.0  0.06825  0.76890  0.76326  1.0000
  H   H645      1.0  0.88115  0.77428  0.82736  1.0000
  C   C410      1.0  0.98235  0.57629  0.97578  1.0000
  H   H646      1.0  0.05456  0.68594  0.69705  1.0000
  S   S165      1.0  0.02571  0.59290  0.06928  1.0000
  C   C411      1.0  0.08879  0.77305  0.68993  1.0000
  H   H647      1.0  0.84294  0.77651  0.81254  1.0000
  S   S166      1.0  0.92652  0.58673  0.94862  1.0000
  H   H648      1.0  0.07814  0.57427  0.97809  1.0000
  C   C412      1.0  0.00424  0.57774  0.00281  1.0000
  H   H649      1.0  0.90720  0.81648  0.76922  1.0000
  H   H650      1.0  0.03883  0.58183  0.93063  1.0000
  H   H651      1.0  0.88310  0.80935  0.61681  1.0000
  Fe  Fe82      1.0  0.94949  0.58053  0.81286  1.0000
  H   H652      1.0  0.87337  0.77465  0.77936  1.0000
  H   H653      1.0  0.02559  0.56723  0.99878  1.0000
  Fe  Fe83      1.0  0.66241  0.95818  0.23243  1.0000
  C   C413      1.0  0.79670  0.95894  0.55732  1.0000
  S   S167      1.0  0.69005  0.92539  0.20327  1.0000
  Fe  Fe84      1.0  0.65732  0.01760  0.26269  1.0000
  H   H654      1.0  0.65497  0.04567  0.44407  1.0000
  H   H655      1.0  0.89724  0.90359  0.37420  1.0000
  Fe  Fe85      1.0  0.62309  0.96838  0.29936  1.0000
  C   C414      1.0  0.65410  0.99006  0.42703  1.0000
  C   C415      1.0  0.06781  0.90272  0.37639  1.0000
  S   S168      1.0  0.67204  0.97598  0.28808  1.0000
  S   S169      1.0  0.65253  0.00060  0.20574  1.0000
  N   N42       1.0  0.79447  0.92791  0.56552  1.0000
  S   S170      1.0  0.71581  0.94007  0.46141  1.0000
  H   H656      1.0  0.68811  0.84782  0.33922  1.0000
  C   C416      1.0  0.72437  0.99767  0.56005  1.0000
  C   C417      1.0  0.71709  0.96362  0.49824  1.0000
  H   H657      1.0  0.79924  0.88845  0.53654  1.0000
  H   H658      1.0  0.69349  0.96856  0.58777  1.0000
  H   H659      1.0  0.71564  0.87392  0.32508  1.0000
  H   H660      1.0  0.67778  0.90097  0.28915  1.0000
  H   H661      1.0  0.75612  0.85396  0.25793  1.0000
  N   N43       1.0  0.67471  0.89151  0.34746  1.0000
  C   C418      1.0  0.71971  0.91455  0.23079  1.0000
  C   C419      1.0  0.73276  0.93388  0.25448  1.0000
  C   C420      1.0  0.74989  0.87633  0.25667  1.0000
  C   C421      1.0  0.72882  0.88593  0.23118  1.0000
  H   H662      1.0  0.72666  0.95623  0.25310  1.0000
  H   H663      1.0  0.71878  0.87100  0.21274  1.0000
  C   C422      1.0  0.76390  0.92096  0.57961  1.0000
  H   H664      1.0  0.63342  0.90039  0.37700  1.0000
  C   C423      1.0  0.69786  0.86885  0.34623  1.0000
  H   H665      1.0  0.86119  0.83876  0.52439  1.0000
  H   H666      1.0  0.74736  0.99310  0.47039  1.0000
  H   H667      1.0  0.68655  0.93876  0.53291  1.0000
  C   C424      1.0  0.70101  0.95735  0.53098  1.0000
  H   H668      1.0  0.65038  0.97146  0.40909  1.0000
  H   H669      1.0  0.68990  0.02924  0.45623  1.0000
  H   H670      1.0  0.92728  0.84649  0.54143  1.0000
  H   H671      1.0  0.76164  0.89788  0.58739  1.0000
  C   C425      1.0  0.86789  0.83124  0.39034  1.0000
  N   N44       1.0  0.67057  0.01330  0.40700  1.0000
  H   H672      1.0  0.69954  0.91726  0.38452  1.0000
  H   H673      1.0  0.63161  0.99729  0.43713  1.0000
  C   C426      1.0  0.69950  0.00222  0.39247  1.0000
  C   C427      1.0  0.65239  0.02405  0.37606  1.0000
  C   C428      1.0  0.90633  0.82426  0.43555  1.0000
  H   H674      1.0  0.74390  0.05041  0.45584  1.0000
  H   H675      1.0  0.62931  0.05350  0.22244  1.0000
  S   S171      1.0  0.03078  0.86104  0.35219  1.0000
  H   H676      1.0  0.64299  0.91130  0.31111  1.0000
  C   C429      1.0  0.65134  0.88378  0.37553  1.0000
  C   C430      1.0  0.68876  0.91885  0.35716  1.0000
  H   H677      1.0  0.07439  0.83205  0.39845  1.0000
  H   H678      1.0  0.66095  0.88157  0.40349  1.0000
  C   C431      1.0  0.73519  0.98800  0.49568  1.0000
  S   S172      1.0  0.61438  0.94699  0.24605  1.0000
  C   C432      1.0  0.67632  0.03679  0.43253  1.0000
  C   C433      1.0  0.75400  0.92432  0.27972  1.0000
  H   H679      1.0  0.67181  0.93630  0.35848  1.0000
  H   H680      1.0  0.70922  0.86629  0.37310  1.0000
  C   C434      1.0  0.70513  0.97405  0.56213  1.0000
  H   H681      1.0  0.70641  0.92535  0.33639  1.0000
  H   H682      1.0  0.81986  0.96522  0.54831  1.0000
  C   C435      1.0  0.66089  0.89465  0.31095  1.0000
  C   C436      1.0  0.73835  0.00537  0.52633  1.0000
  H   H683      1.0  0.75302  0.02379  0.52438  1.0000
  H   H684      1.0  0.68886  0.05468  0.41847  1.0000
  C   C437      1.0  0.86712  0.85457  0.54557  1.0000
  H   H685      1.0  0.76426  0.93933  0.29766  1.0000
  H   H686      1.0  0.84581  0.86277  0.55779  1.0000
  S   S173      1.0  0.76277  0.95387  0.37180  1.0000
  C   C438      1.0  0.91365  0.82966  0.55606  1.0000
  Fe  Fe86      1.0  0.75999  0.93866  0.43051  1.0000
  C   C439      1.0  0.76188  0.89541  0.28154  1.0000
  C   C440      1.0  0.76290  0.05611  0.43810  1.0000
  H   H687      1.0  0.06325  0.83649  0.55166  1.0000
  H   H688      1.0  0.76947  0.01333  0.41812  1.0000
  H   H689      1.0  0.97291  0.87254  0.38382  1.0000
  H   H690      1.0  0.71345  0.99334  0.41504  1.0000
  Fe  Fe87      1.0  0.82503  0.91896  0.43066  1.0000
  H   H691      1.0  0.66431  0.04117  0.35966  1.0000
  S   S174      1.0  0.86096  0.89620  0.46236  1.0000
  Fe  Fe88      1.0  0.78913  0.91366  0.36217  1.0000
  C   C441      1.0  0.07922  0.85460  0.39763  1.0000
  S   S175      1.0  0.83382  0.93333  0.37223  1.0000
  C   C442      1.0  0.80223  0.04238  0.39457  1.0000
  S   S176      1.0  0.78407  0.88228  0.31714  1.0000
  C   C443      1.0  0.87230  0.86477  0.44015  1.0000
  C   C444      1.0  0.85782  0.85573  0.40866  1.0000
  H   H692      1.0  0.89993  0.90959  0.32516  1.0000
  H   H693      1.0  0.89643  0.87386  0.34385  1.0000
  H   H694      1.0  0.05413  0.91738  0.36059  1.0000
  C   C445      1.0  0.89645  0.84886  0.45367  1.0000
  H   H695      1.0  0.83915  0.86780  0.39791  1.0000
  S   S177      1.0  0.67366  0.06126  0.27687  1.0000
  C   C446      1.0  0.77741  0.03512  0.41711  1.0000
  H   H696      1.0  0.90801  0.85585  0.47766  1.0000
  H   H697      1.0  0.94771  0.93614  0.33098  1.0000
  H   H698      1.0  0.69603  0.98478  0.37267  1.0000
  H   H699      1.0  0.93971  0.85179  0.37738  1.0000
  H   H700      1.0  0.97683  0.87835  0.31514  1.0000
  C   C447      1.0  0.95328  0.92132  0.35424  1.0000
  S   S178      1.0  0.78198  0.89653  0.41970  1.0000
  H   H701      1.0  0.97826  0.92010  0.35552  1.0000
  C   C448      1.0  0.90700  0.89508  0.34807  1.0000
  S   S179      1.0  0.80251  0.95987  0.44750  1.0000
  H   H702      1.0  0.94487  0.93116  0.38019  1.0000
  H   H703      1.0  0.83994  0.92467  0.58389  1.0000
  H   H704      1.0  0.64088  0.03889  0.10449  1.0000
  H   H705      1.0  0.65044  0.87432  0.30236  1.0000
  H   H706      1.0  0.78401  0.91738  0.50992  1.0000
  H   H707      1.0  0.66664  0.98203  0.45133  1.0000
  H   H708      1.0  0.78160  0.96532  0.53476  1.0000
  C   C449      1.0  0.06131  0.87345  0.37718  1.0000
  C   C450      1.0  0.94813  0.87391  0.38095  1.0000
  H   H709      1.0  0.63054  0.03294  0.38600  1.0000
  H   H710      1.0  0.94273  0.85849  0.31089  1.0000
  H   H711      1.0  0.90854  0.88116  0.58623  1.0000
  Fe  Fe89      1.0  0.80701  0.97216  0.38747  1.0000
  C   C451      1.0  0.95189  0.88033  0.31494  1.0000
  H   H712      1.0  0.93855  0.88185  0.40742  1.0000
  H   H713      1.0  0.94605  0.89381  0.29051  1.0000
  N   N45       1.0  0.94005  0.89270  0.34951  1.0000
  S   S180      1.0  0.82032  0.01633  0.36813  1.0000
  H   H714      1.0  0.64026  0.86320  0.36916  1.0000
  N   N46       1.0  0.88640  0.84168  0.57397  1.0000
  H   H715      1.0  0.82330  0.91703  0.51966  1.0000
  H   H716      1.0  0.64705  0.00663  0.35685  1.0000
  H   H717      1.0  0.78238  0.06584  0.27681  1.0000
  C   C452      1.0  0.80061  0.91195  0.53146  1.0000
  H   H718      1.0  0.71284  0.01930  0.37785  1.0000
  Fe  Fe90      1.0  0.60510  0.99115  0.22383  1.0000
  H   H719      1.0  0.61093  0.92919  0.10866  1.0000
  H   H720      1.0  0.77628  0.06006  0.32536  1.0000
  H   H721      1.0  0.60754  0.01810  0.09949  1.0000
  H   H722      1.0  0.92828  0.81885  0.57643  1.0000
  H   H723      1.0  0.74675  0.92591  0.55872  1.0000
  H   H724      1.0  0.77287  0.06028  0.56650  1.0000
  H   H725      1.0  0.79025  0.97180  0.58178  1.0000
  H   H726      1.0  0.74596  0.05500  0.29430  1.0000
  H   H727      1.0  0.87863  0.87282  0.53102  1.0000
  C   C453      1.0  0.09194  0.91318  0.39619  1.0000
  H   H728      1.0  0.85703  0.82476  0.36550  1.0000
  S   S181      1.0  0.60906  0.01134  0.27874  1.0000
  S   S182      1.0  0.60657  0.95501  0.35584  1.0000
  H   H729      1.0  0.60663  0.95711  0.16558  1.0000
  H   H730      1.0  0.86471  0.83139  0.67674  1.0000
  S   S183      1.0  0.64712  0.99570  0.90704  1.0000
  S   S184      1.0  0.71727  0.00510  0.70623  1.0000
  Fe  Fe91      1.0  0.69932  0.96078  0.71637  1.0000
  S   S185      1.0  0.65382  0.95346  0.74294  1.0000
  H   H731      1.0  0.76510  0.04638  0.70818  1.0000
  H   H732      1.0  0.60812  0.94860  0.79938  1.0000
  C   C454      1.0  0.79913  0.04409  0.74933  1.0000
  C   C455      1.0  0.64979  0.98298  0.86194  1.0000
  C   C456      1.0  0.62524  0.96924  0.84683  1.0000
  C   C457      1.0  0.62697  0.95961  0.81060  1.0000
  C   C458      1.0  0.65305  0.96400  0.78906  1.0000
  C   C459      1.0  0.67791  0.97722  0.80433  1.0000
  C   C460      1.0  0.67631  0.98662  0.84086  1.0000
  H   H733      1.0  0.82467  0.82168  0.78194  1.0000
  C   C461      1.0  0.69348  0.92193  0.00937  1.0000
  H   H734      1.0  0.69829  0.98026  0.78796  1.0000
  H   H735      1.0  0.69550  0.99682  0.85266  1.0000
  H   H736      1.0  0.90232  0.84783  0.79577  1.0000
  C   C462      1.0  0.82239  0.05875  0.76593  1.0000
  H   H737      1.0  0.64616  0.95296  0.03300  1.0000
  S   S186      1.0  0.90845  0.86712  0.71170  1.0000
  C   C463      1.0  0.65133  0.95383  0.00281  1.0000
  H   H738      1.0  0.81241  0.93163  0.61959  1.0000
  S   S187      1.0  0.71065  0.94594  0.65932  1.0000
  S   S188      1.0  0.74131  0.94325  0.74118  1.0000
  S   S189      1.0  0.78959  0.00954  0.76529  1.0000
  Fe  Fe92      1.0  0.73264  0.98882  0.65123  1.0000
  C   C464      1.0  0.67111  0.92905  0.94986  1.0000
  H   H739      1.0  0.86017  0.85060  0.84124  1.0000
  Fe  Fe93      1.0  0.60010  0.98784  0.92824  1.0000
  H   H740      1.0  0.63876  0.90095  0.02852  1.0000
  H   H741      1.0  0.70966  0.93972  0.00372  1.0000
  H   H742      1.0  0.62979  0.95797  0.98898  1.0000
  S   S190      1.0  0.77421  0.88974  0.66657  1.0000
  Fe  Fe94      1.0  0.76039  0.98649  0.72628  1.0000
  H   H743      1.0  0.68626  0.94735  0.94246  1.0000
  S   S191      1.0  0.73301  0.01652  0.59964  1.0000
  H   H744      1.0  0.87497  0.87399  0.61329  1.0000
  C   C465      1.0  0.72217  0.04725  0.79816  1.0000
  Fe  Fe95      1.0  0.92879  0.82410  0.70017  1.0000
  H   H745      1.0  0.73650  0.03834  0.82035  1.0000
  Fe  Fe96      1.0  0.75450  0.93213  0.68327  1.0000
  H   H746      1.0  0.60482  0.96594  0.86295  1.0000
  H   H747      1.0  0.65377  0.88210  0.98941  1.0000
  H   H748      1.0  0.70121  0.03438  0.79785  1.0000
  N   N47       1.0  0.66505  0.92690  0.99008  1.0000
  H   H749      1.0  0.85036  0.85097  0.77384  1.0000
  H   H750      1.0  0.68959  0.92027  0.03979  1.0000
  H   H751      1.0  0.68163  0.90921  0.93916  1.0000
  H   H752      1.0  0.73438  0.04367  0.77160  1.0000
  H   H753      1.0  0.62245  0.90594  0.98446  1.0000
  C   C466      1.0  0.85889  0.82680  0.84127  1.0000
  H   H754      1.0  0.65009  0.93276  0.93446  1.0000
  S   S192      1.0  0.77755  0.97384  0.67047  1.0000
  C   C467      1.0  0.64423  0.90286  0.99843  1.0000
  C   C468      1.0  0.81108  0.88334  0.68054  1.0000
  C   C469      1.0  0.82750  0.90451  0.69769  1.0000
  C   C470      1.0  0.85744  0.89934  0.70709  1.0000
  C   C471      1.0  0.87100  0.87300  0.69948  1.0000
  C   C472      1.0  0.85450  0.85178  0.68252  1.0000
  C   C473      1.0  0.82461  0.85697  0.67299  1.0000
  H   H755      1.0  0.81719  0.92490  0.70374  1.0000
  H   H756      1.0  0.87009  0.91582  0.72034  1.0000
  H   H757      1.0  0.70445  0.90173  0.00052  1.0000
  H   H758      1.0  0.81182  0.84049  0.65996  1.0000
  H   H759      1.0  0.75807  0.93331  0.60462  1.0000
  H   H760      1.0  0.83502  0.04835  0.78750  1.0000
  C   C474      1.0  0.86972  0.81862  0.59398  1.0000
  H   H761      1.0  0.81516  0.89665  0.60093  1.0000
  H   H762      1.0  0.62771  0.03111  0.05923  1.0000
  C   C475      1.0  0.84865  0.82721  0.77624  1.0000
  C   C476      1.0  0.78292  0.05760  0.72134  1.0000
  H   H763      1.0  0.90874  0.85481  0.62278  1.0000
  H   H764      1.0  0.66611  0.97257  0.99650  1.0000
  C   C477      1.0  0.81659  0.91984  0.59360  1.0000
  C   C478      1.0  0.89502  0.86389  0.60013  1.0000
  H   H765      1.0  0.84825  0.82648  0.60629  1.0000
  C   C479      1.0  0.89970  0.82412  0.79663  1.0000
  H   H766      1.0  0.83534  0.82062  0.84862  1.0000
  H   H767      1.0  0.85492  0.81866  0.74874  1.0000
  H   H768      1.0  0.87347  0.81846  0.86357  1.0000
  C   C480      1.0  0.62044  0.03667  0.08775  1.0000
  N   N48       1.0  0.60216  0.06309  0.08797  1.0000
