data_image0
_chemical_formula_structural       H4CH2NC3H5CH2SH5NH2SH4CHSCFe2SHFeSHSC3H3C2HCSH2SH2FeH3SHCHC2H6SHCHCHSHNHCHCH2CHCH3C2NHFeSFeHSH2C3HC2HC2H3CSHC2H2S2NCNSCSC5H2CFeH6FeS2FeSHFe2S2FeS2HS3HC6H7CHFeH2SCHNC3H7CH3CFeHS2NCH5FeSCHFeSFe2SCSC2HC6H4CH3NC4H4SH5CSH4CH2C3HCFeSHS2FeSFeHCH4C4H2CHFeH2SCHCH2SCHCHC2H2SCHCH10CHC2HNC3FeC2HSCHCHCH2NH2CH3C3HS2H2CS2FeCFeC2HC2HCH2S2H2C3HSNCH6NH2CH2SFeSFeS2HCHNC2H3CH4CHC3H2CH3CH2CH5CHFeS2FeCHSH3C2HC5H2CHCH2C2H3CHCHS2HC2FeH4CNFeH3SH4CH3FeHFeHFeS2FeHSCNFeS2CHS2HC6H6SCHSNH3CFeH4NH4CHSH2FeS2HFeSCSCH3C2H4CH2CH2CHC5FeHFeS3FeNSNHC5H4CH3CSHCHCH5C3SHCSH4SHCFeHSHCH4CSHFeHCH3C2HSHC2HSH2C4H2CHSN2FeSCSCSH3CHCHFeC2S2CH5FeH2CHCHSHFeH2C2HSHNH3CHCH4SFeCFeCSCHC4H2CH3CH4C2SHCS2CH7C2SHSFeCSFeHC2SFeHCSC7H4CSCHFeS2FeSFeS2HFeSCHCHC6H5CH4NH6CHC2HSH3CH2CHNCH2C2HSH5CNH4CHFeHCFeHSHCHSCFeS3HFeHC5SC2H8C2H2SH2NHCH4CNCNCHSH4SC2FeHCH3C2H2FeH2NCH2CHCH2CHC2SH2FeS2CHFeHCHSH7NHCNHCH3C2HC2SC3H2CH2CHS2HCHCH5C3H2CH3C2S2H3C2H2SHCHSCH3C2HCHCH2CH2C2H3NH2FeC2HSHNH2CHFeCH4C2SH5CHCH3SHSC6H3SH2CHCH2CH3SCNH5NH3SHCHC2Fe2S3C3H4FeHCHNH4CHCFeSHFeSC6H5CS2HFe2H6FeCHCH2CHCH5CH4CS2FeSHC4H2FeSCH2CHC2SC3Fe2CH4CSH3NFeS2CH5SH2CHNH4CNCHSC2HCH3C3H3C2FeSFeH6SC3H2SHSHNCHFeH2CHCS2H2CHCHSH3C3FeH2SHSHFeSH2C3NH2SHNCHCFeC2SH4CFeH2CH2C3SCH2SHCHC2HCSHCH2CHCHFeS4CH2SFeC7H4CNCH4NH2FeCH2CHCSCHSCFeHS2FeSFeHC3H3C2HSHFeCHSH2NFeC2HFeSH3FeS3C6H7CHCH2FeH3C2H6CHC2SHCH2SHCSH3C5HC2H2FeC2H2NH2CH2C2HSHFeS2H2CFeS2C2H3SHC3H2C2NH2CH4CH2C2HC2H5CNH2CHCFeHFeSH8C2HSCNH3CHCHCHCNH3CH2C2H4C2H2C3HFeC5HCHFeSFeSHSHC3SH2C2H5CH3CHCHCHC2SHSFeS2FeHSH3C6H4SH2NFeH3NCNCHFeHC2H2CH3CSH3CHSHC3H3CNH2CSCH3FeHCSFe2HSFeS3FeHCHSC2HC4SC2H3CHCH2C3H3SCH2CHC3H5SHCH4CH2CSFeC3SH2C2HSHCHC4H3FeHCSFeHFeH2S2HCHCH3SHCH3SHNFeC3HC2HCH4CHSHSH4C2SNCHFe2SCH2C2NCSH2NH2CH2C2SH3CH2SH3SC2HCHCFeSH2CH2CSHCHCFeC3H2CH3SHCH2CH8SCHS2FeSFe2S2C6H4SCSH2SH2FeCHCH2CHCNHCH2C2SHFeH2SH3CHNCH2C2HCSCSHCHFeC2HSHFeSHSH2CH2C3H3CHCFeH2NH4CHNH3CH4FeHCHNHFeS2C2HC3HCH3CSCHSCH2CHCHCH3CNH2SH4SCHCHFeSC3H2CH6FeNCSCFeSCHCSH5CHC3H3C2HC4SH2CHCSH5C2H3CSFeSCFeNFeSHC6HCH6C3H2SNHCH3C2H2SHCHSCFeSCHNCHC2H7SH2NHCH3SH3S2HC7H4NCSH4SHSH5CSHFe3S2FeNSHFeSFeSFe2S2HSCH4C6H4CSC2H3C3H6SNHCH2C3HCH3CNHCSHCH2SHCNC6H5CHCH5CHFeHCSH7CH6CHCH2NSHCH6CFeC2H2FeSH3C2H3CH2NFeS2HS3C4H3C2HSH2C2FeHC2H5CH2CH3FeHC4SNCHFeH4CHCSHC4SCHC2H7CH4CHCHCH2S2HCSC2H3CH2SCFeH4NCHCHCH4CHCH3NH8SCSHC2HC2SHCSHC2HCH3SFeC2H3SCSHCHC2HFeSHFeSCH3C6H4NHCH2CHSHS2CSH2C2HC3H2C6H3C2HFe2S2NCHCHSFeHSH5NFeH2CH7CH3C2H2C2H2FeHNSHSH5C2HCSH6C2HCHS3CH4FeHC5HNCFeHCSFeC3H4C3HSHCH2CHCH2SHSCH3CHCHNHFeS2H3SCHCH2CHC3HCH2SHCFe2CHC2HFeHSFeS2CSHCH6C2H2CNHCHCFeS2FeHS3H2CNC6H4CH7NH3S2H2CFeSH2FeHCH2C2FeNFeHS3FeS2H2C6H4CH2CH3CFeH3FeH4SHSHCSNC4H4CHSCSHCHCH7FeSHC2HC2SH5CHNFeCH3C3SC2HCH3CHFe2SHNHSH4SH4CSHCH3FeCHCHC2HCH4SCH3C3HCHCH2CHSHFeSHSC2H2CHC2HC2HCH6SCNH2CH2C3FeSH3C2SCSHSC2HC3HC2NHSH3CFeH3Fe2H7C2HCH3CSH4CHCH2CN
_chemical_formula_sum              "H1536 C960 N96 S384 Fe192"
_cell_length_a       79.0589
_cell_length_b       78.0176
_cell_length_c       37.6222
_cell_angle_alpha    88.6253
_cell_angle_beta     88.6272
_cell_angle_gamma    110.907

_space_group_name_H-M_alt    "P 1"
_space_group_IT_number       1

loop_
  _space_group_symop_operation_xyz
  'x, y, z'

loop_
  _atom_site_type_symbol
  _atom_site_label
  _atom_site_symmetry_multiplicity
  _atom_site_fract_x
  _atom_site_fract_y
  _atom_site_fract_z
  _atom_site_occupancy
  H   H1        1.0  0.11555  0.31657  0.01901  1.0000
  H   H2        1.0  0.22721  0.31947  0.15508  1.0000
  H   H3        1.0  0.15217  0.29490  0.41580  1.0000
  H   H4        1.0  0.16794  0.31598  0.43098  1.0000
  C   C1        1.0  0.00915  0.29932  0.62509  1.0000
  H   H5        1.0  0.16981  0.26489  0.47051  1.0000
  H   H6        1.0  0.17575  0.30208  0.40244  1.0000
  N   N1        1.0  0.16958  0.29169  0.45659  1.0000
  C   C2        1.0  0.18823  0.30125  0.46831  1.0000
  C   C3        1.0  0.16740  0.27274  0.44728  1.0000
  C   C4        1.0  0.16621  0.30155  0.42504  1.0000
  H   H7        1.0  0.19028  0.31553  0.47589  1.0000
  H   H8        1.0  0.19854  0.30208  0.44696  1.0000
  H   H9        1.0  0.19132  0.29416  0.49191  1.0000
  H   H10       1.0  0.17720  0.27267  0.42554  1.0000
  H   H11       1.0  0.15351  0.26513  0.43813  1.0000
  C   C5        1.0  0.15648  0.29121  0.48568  1.0000
  H   H12       1.0  0.15783  0.30532  0.49344  1.0000
  H   H13       1.0  0.14224  0.28428  0.47769  1.0000
  S   S1        1.0  0.04833  0.31922  0.56575  1.0000
  H   H14       1.0  0.15858  0.28389  0.50994  1.0000
  H   H15       1.0  0.02395  0.30362  0.62931  1.0000
  H   H16       1.0  0.99087  0.28926  0.53902  1.0000
  H   H17       1.0  0.00752  0.30444  0.59802  1.0000
  H   H18       1.0  0.00357  0.28406  0.62512  1.0000
  N   N2        1.0  0.00011  0.30654  0.65266  1.0000
  H   H19       1.0  0.99697  0.30540  0.70971  1.0000
  H   H20       1.0  0.10178  0.31198  0.87830  1.0000
  S   S2        1.0  0.00566  0.30971  0.92070  1.0000
  H   H21       1.0  0.99806  0.28482  0.69071  1.0000
  H   H22       1.0  0.04549  0.31259  0.73840  1.0000
  H   H23       1.0  0.12005  0.31422  0.82198  1.0000
  H   H24       1.0  0.01821  0.30484  0.69315  1.0000
  C   C6        1.0  0.00342  0.30008  0.68816  1.0000
  H   H25       1.0  0.08796  0.31190  0.81971  1.0000
  S   S3        1.0  0.05558  0.32540  0.66598  1.0000
  C   C7        1.0  0.22157  0.50095  0.18634  1.0000
  Fe  Fe1       1.0  0.15131  0.48246  0.04053  1.0000
  Fe  Fe2       1.0  0.20024  0.35994  0.04065  1.0000
  S   S4        1.0  0.20322  0.37849  0.08680  1.0000
  H   H26       1.0  0.19768  0.33080  0.24467  1.0000
  Fe  Fe3       1.0  0.21354  0.35932  0.11759  1.0000
  S   S5        1.0  0.20542  0.34617  0.17344  1.0000
  H   H27       1.0  0.20112  0.47539  0.01477  1.0000
  S   S6        1.0  0.20836  0.33925  0.07301  1.0000
  C   C8        1.0  0.21278  0.35589  0.21521  1.0000
  C   C9        1.0  0.20691  0.34483  0.24647  1.0000
  C   C10       1.0  0.21282  0.35177  0.28012  1.0000
  H   H28       1.0  0.18039  0.47320  0.15936  1.0000
  H   H29       1.0  0.22883  0.50378  0.15983  1.0000
  H   H30       1.0  0.20373  0.45498  0.08270  1.0000
  C   C11       1.0  0.19256  0.49149  0.21810  1.0000
  C   C12       1.0  0.08833  0.42688  0.00888  1.0000
  H   H31       1.0  0.10605  0.45021  0.03655  1.0000
  C   C13       1.0  0.17405  0.52718  0.24546  1.0000
  S   S7        1.0  0.13748  0.50031  0.06467  1.0000
  H   H32       1.0  0.17756  0.48672  0.21603  1.0000
  H   H33       1.0  0.22532  0.49022  0.20056  1.0000
  S   S8        1.0  0.16712  0.48263  0.08918  1.0000
  H   H34       1.0  0.09485  0.61040  0.02151  1.0000
  H   H35       1.0  0.10594  0.39989  0.05436  1.0000
  Fe  Fe4       1.0  0.15528  0.50243  0.11188  1.0000
  H   H36       1.0  0.11196  0.36580  0.08642  1.0000
  H   H37       1.0  0.20167  0.48054  0.13469  1.0000
  H   H38       1.0  0.19663  0.50409  0.23406  1.0000
  S   S9        1.0  0.14253  0.45785  0.00450  1.0000
  H   H39       1.0  0.14590  0.49263  0.29924  1.0000
  C   C14       1.0  0.09426  0.38682  0.05968  1.0000
  H   H40       1.0  0.21657  0.53029  0.00905  1.0000
  C   C15       1.0  0.23060  0.38093  0.25157  1.0000
  C   C16       1.0  0.10919  0.61969  0.02384  1.0000
  H   H41       1.0  0.20323  0.42222  0.03794  1.0000
  H   H42       1.0  0.07897  0.35067  0.07859  1.0000
  H   H43       1.0  0.17250  0.52913  0.18819  1.0000
  H   H44       1.0  0.18536  0.54002  0.24676  1.0000
  H   H45       1.0  0.19568  0.48072  0.23359  1.0000
  H   H46       1.0  0.21751  0.63689  0.00335  1.0000
  S   S10       1.0  0.14361  0.49503  0.16875  1.0000
  H   H47       1.0  0.13557  0.65262  0.03112  1.0000
  C   C17       1.0  0.11352  0.36869  0.05718  1.0000
  H   H48       1.0  0.07631  0.42625  0.02405  1.0000
  C   C18       1.0  0.10519  0.44048  0.01602  1.0000
  H   H49       1.0  0.22273  0.44892  0.06919  1.0000
  S   S11       1.0  0.17673  0.52509  0.31816  1.0000
  H   H50       1.0  0.11799  0.61165  0.01762  1.0000
  N   N3        1.0  0.09730  0.37121  0.04273  1.0000
  H   H51       1.0  0.11119  0.62360  0.05213  1.0000
  C   C19       1.0  0.22466  0.36992  0.28288  1.0000
  H   H52       1.0  0.20783  0.65850  0.03655  1.0000
  C   C20       1.0  0.19537  0.47814  0.16205  1.0000
  H   H53       1.0  0.18276  0.50546  0.15885  1.0000
  H   H54       1.0  0.20156  0.52255  0.17862  1.0000
  C   C21       1.0  0.08130  0.35429  0.04966  1.0000
  H   H55       1.0  0.18250  0.45831  0.03848  1.0000
  C   C22       1.0  0.10191  0.64657  0.00917  1.0000
  H   H56       1.0  0.20811  0.34313  0.30390  1.0000
  H   H57       1.0  0.12589  0.38110  0.05196  1.0000
  H   H58       1.0  0.13341  0.48146  0.24060  1.0000
  C   C23       1.0  0.19752  0.50973  0.16342  1.0000
  C   C24       1.0  0.21942  0.45324  0.99852  1.0000
  N   N4        1.0  0.20176  0.49507  0.18253  1.0000
  H   H59       1.0  0.22942  0.38266  0.19417  1.0000
  Fe  Fe5       1.0  0.16092  0.52448  0.04113  1.0000
  S   S12       1.0  0.17782  0.52782  0.09021  1.0000
  Fe  Fe6       1.0  0.18859  0.50765  0.06487  1.0000
  H   H60       1.0  0.06878  0.35589  0.03963  1.0000
  S   S13       1.0  0.21637  0.50569  0.06842  1.0000
  H   H61       1.0  0.22270  0.47144  0.05863  1.0000
  H   H62       1.0  0.08206  0.38898  0.04914  1.0000
  C   C25       1.0  0.22867  0.52689  0.00681  1.0000
  C   C26       1.0  0.16659  0.51703  0.27714  1.0000
  C   C27       1.0  0.16687  0.52097  0.21218  1.0000
  H   H63       1.0  0.11607  0.35696  0.04476  1.0000
  C   C28       1.0  0.15234  0.50431  0.21010  1.0000
  C   C29       1.0  0.17482  0.59826  0.02610  1.0000
  H   H64       1.0  0.18792  0.42477  0.00556  1.0000
  C   C30       1.0  0.17019  0.57901  0.02801  1.0000
  C   C31       1.0  0.12444  0.32873  0.00456  1.0000
  H   H65       1.0  0.17332  0.57244  0.05129  1.0000
  H   H66       1.0  0.18151  0.60633  0.04810  1.0000
  H   H67       1.0  0.09215  0.38453  0.08900  1.0000
  C   C32       1.0  0.14474  0.49429  0.24182  1.0000
  S   S14       1.0  0.17379  0.50633  0.01471  1.0000
  H   H68       1.0  0.19866  0.46686  0.17525  1.0000
  C   C33       1.0  0.15180  0.50059  0.27514  1.0000
  C   C34       1.0  0.21398  0.45665  0.06088  1.0000
  H   H69       1.0  0.22680  0.51374  0.20159  1.0000
  H   H70       1.0  0.08292  0.34236  0.03615  1.0000
  S   S15       1.0  0.22915  0.37440  0.01970  1.0000
  S   S16       1.0  0.23244  0.37955  0.32453  1.0000
  N   N5        1.0  0.20530  0.45012  0.02694  1.0000
  C   C35       1.0  0.10010  0.37506  0.00403  1.0000
  N   N6        1.0  0.11362  0.63608  0.99982  1.0000
  S   S17       1.0  0.15438  0.54387  0.00149  1.0000
  C   C36       1.0  0.22475  0.37398  0.21793  1.0000
  S   S18       1.0  0.17878  0.36046  0.00014  1.0000
  C   C37       1.0  0.14304  0.33591  0.01244  1.0000
  C   C38       1.0  0.13280  0.64778  0.00354  1.0000
  C   C39       1.0  0.19335  0.46034  0.01766  1.0000
  C   C40       1.0  0.19453  0.43026  0.03076  1.0000
  C   C41       1.0  0.16125  0.56829  0.00007  1.0000
  H   H71       1.0  0.20467  0.51320  0.13692  1.0000
  H   H72       1.0  0.18373  0.42735  0.05196  1.0000
  C   C42       1.0  0.23179  0.51507  0.03218  1.0000
  Fe  Fe7       1.0  0.23202  0.39250  0.06620  1.0000
  H   H73       1.0  0.10440  0.65201  0.03641  1.0000
  H   H74       1.0  0.14829  0.32922  0.03261  1.0000
  H   H75       1.0  0.22818  0.44510  0.00408  1.0000
  H   H76       1.0  0.08729  0.63801  0.00789  1.0000
  H   H77       1.0  0.11212  0.38764  0.99762  1.0000
  H   H78       1.0  0.10903  0.36852  0.51422  1.0000
  Fe  Fe8       1.0  0.03312  0.33773  0.55068  1.0000
  S   S19       1.0  0.04406  0.35698  0.59553  1.0000
  S   S20       1.0  0.19467  0.49818  0.48601  1.0000
  Fe  Fe9       1.0  0.22725  0.36644  0.38066  1.0000
  S   S21       1.0  0.08445  0.35583  0.57782  1.0000
  H   H79       1.0  0.11716  0.33552  0.54424  1.0000
  Fe  Fe10      1.0  0.05943  0.33879  0.61009  1.0000
  Fe  Fe11      1.0  0.06802  0.37251  0.55915  1.0000
  S   S22       1.0  0.08325  0.40353  0.55821  1.0000
  S   S23       1.0  0.05613  0.35518  0.51286  1.0000
  Fe  Fe12      1.0  0.20083  0.35124  0.44498  1.0000
  S   S24       1.0  0.21717  0.37998  0.42493  1.0000
  S   S25       1.0  0.17509  0.34381  0.48135  1.0000
  H   H80       1.0  0.09846  0.48720  0.51564  1.0000
  S   S26       1.0  0.20932  0.33771  0.39854  1.0000
  S   S27       1.0  0.22368  0.34924  0.47732  1.0000
  S   S28       1.0  0.11315  0.45858  0.42385  1.0000
  H   H81       1.0  0.12170  0.40834  0.53592  1.0000
  C   C43       1.0  0.09127  0.41850  0.52033  1.0000
  C   C44       1.0  0.10521  0.43555  0.52434  1.0000
  C   C45       1.0  0.11232  0.44778  0.49496  1.0000
  C   C46       1.0  0.10520  0.44328  0.46132  1.0000
  C   C47       1.0  0.09107  0.42635  0.45736  1.0000
  C   C48       1.0  0.08427  0.41391  0.48662  1.0000
  H   H82       1.0  0.11070  0.43922  0.55033  1.0000
  H   H83       1.0  0.12326  0.46068  0.49845  1.0000
  H   H84       1.0  0.08543  0.42276  0.43146  1.0000
  H   H85       1.0  0.07346  0.40088  0.48317  1.0000
  H   H86       1.0  0.16699  0.54385  0.52356  1.0000
  H   H87       1.0  0.19625  0.55862  0.48874  1.0000
  H   H88       1.0  0.14843  0.34112  0.42585  1.0000
  C   C49       1.0  0.15162  0.34104  0.48248  1.0000
  H   H89       1.0  0.19786  0.53637  0.49040  1.0000
  Fe  Fe13      1.0  0.07228  0.33811  0.53213  1.0000
  H   H90       1.0  0.22795  0.64731  0.54243  1.0000
  H   H91       1.0  0.07983  0.46236  0.45527  1.0000
  S   S29       1.0  0.09019  0.33142  0.48936  1.0000
  C   C50       1.0  0.12390  0.33683  0.51839  1.0000
  H   H92       1.0  0.10185  0.51147  0.42823  1.0000
  N   N7        1.0  0.12889  0.39381  0.49379  1.0000
  C   C51       1.0  0.14259  0.38543  0.48613  1.0000
  C   C52       1.0  0.13040  0.40814  0.46621  1.0000
  C   C53       1.0  0.11057  0.37955  0.49379  1.0000
  H   H93       1.0  0.14224  0.37502  0.50712  1.0000
  H   H94       1.0  0.14022  0.37835  0.46036  1.0000
  H   H95       1.0  0.12032  0.41477  0.47131  1.0000
  H   H96       1.0  0.12796  0.40230  0.43928  1.0000
  H   H97       1.0  0.14403  0.41917  0.46540  1.0000
  H   H98       1.0  0.10765  0.37286  0.46768  1.0000
  H   H99       1.0  0.09985  0.38532  0.49980  1.0000
  C   C54       1.0  0.13194  0.40207  0.52912  1.0000
  H   H100      1.0  0.15656  0.39586  0.48476  1.0000
  H   H101      1.0  0.14557  0.41300  0.53019  1.0000
  H   H102      1.0  0.13080  0.39156  0.55052  1.0000
  C   C55       1.0  0.10222  0.49198  0.48747  1.0000
  Fe  Fe14      1.0  0.13772  0.48520  0.42318  1.0000
  H   H103      1.0  0.06509  0.50216  0.46792  1.0000
  S   S30       1.0  0.16500  0.48778  0.39960  1.0000
  S   S31       1.0  0.00180  0.32961  0.54647  1.0000
  N   N8        1.0  0.08618  0.49079  0.46692  1.0000
  C   C56       1.0  0.07722  0.50261  0.48286  1.0000
  H   H104      1.0  0.11217  0.50633  0.48742  1.0000
  H   H105      1.0  0.07272  0.49825  0.51097  1.0000
  H   H106      1.0  0.08661  0.51722  0.48275  1.0000
  H   H107      1.0  0.08023  0.49660  0.41339  1.0000
  H   H108      1.0  0.06109  0.47010  0.45268  1.0000
  Fe  Fe15      1.0  0.17659  0.64702  0.54627  1.0000
  S   S32       1.0  0.18546  0.62473  0.52228  1.0000
  C   C57       1.0  0.11395  0.33550  0.48764  1.0000
  H   H109      1.0  0.09855  0.48829  0.41677  1.0000
  Fe  Fe16      1.0  0.16531  0.51438  0.37417  1.0000
  S   S33       1.0  0.13715  0.51066  0.39424  1.0000
  Fe  Fe17      1.0  0.17627  0.50468  0.44700  1.0000
  Fe  Fe18      1.0  0.15054  0.52596  0.44209  1.0000
  S   S34       1.0  0.13880  0.54446  0.47206  1.0000
  C   C58       1.0  0.07346  0.47153  0.46764  1.0000
  S   S35       1.0  0.17882  0.53165  0.42047  1.0000
  C   C59       1.0  0.09193  0.49709  0.42971  1.0000
  C   C60       1.0  0.21770  0.51170  0.48963  1.0000
  H   H110      1.0  0.22097  0.63848  0.48044  1.0000
  C   C61       1.0  0.17182  0.60289  0.50706  1.0000
  C   C62       1.0  0.15344  0.59460  0.51684  1.0000
  C   C63       1.0  0.14345  0.57679  0.50564  1.0000
  C   C64       1.0  0.15165  0.56718  0.48425  1.0000
  C   C65       1.0  0.16991  0.57565  0.47383  1.0000
  C   C66       1.0  0.17998  0.59330  0.48552  1.0000
  H   H111      1.0  0.14699  0.60178  0.53347  1.0000
  H   H112      1.0  0.12931  0.57041  0.51374  1.0000
  H   H113      1.0  0.17619  0.56866  0.45644  1.0000
  H   H114      1.0  0.19413  0.59965  0.47750  1.0000
  C   C67       1.0  0.14251  0.33933  0.51578  1.0000
  H   H115      1.0  0.06915  0.46613  0.49534  1.0000
  H   H116      1.0  0.21666  0.54187  0.56262  1.0000
  H   H117      1.0  0.10930  0.48330  0.47598  1.0000
  N   N9        1.0  0.19339  0.54616  0.54121  1.0000
  C   C68       1.0  0.20136  0.54943  0.50464  1.0000
  C   C69       1.0  0.20167  0.53503  0.56193  1.0000
  C   C70       1.0  0.17364  0.53616  0.53998  1.0000
  C   C71       1.0  0.19687  0.56395  0.55812  1.0000
  H   H118      1.0  0.19119  0.56201  0.58592  1.0000
  H   H119      1.0  0.21641  0.55580  0.50446  1.0000
  H   H120      1.0  0.19896  0.52139  0.55005  1.0000
  H   H121      1.0  0.19620  0.53246  0.58986  1.0000
  S   S36       1.0  0.15037  0.65119  0.56086  1.0000
  H   H122      1.0  0.17060  0.52248  0.52816  1.0000
  H   H123      1.0  0.16704  0.53384  0.56701  1.0000
  H   H124      1.0  0.21949  0.52924  0.44350  1.0000
  H   H125      1.0  0.19051  0.57252  0.54332  1.0000
  H   H126      1.0  0.21165  0.57197  0.55896  1.0000
  C   C72       1.0  0.14174  0.33994  0.45169  1.0000
  S   S37       1.0  0.14894  0.50019  0.47208  1.0000
  H   H127      1.0  0.11547  0.33588  0.43032  1.0000
  H   H128      1.0  0.22027  0.49664  0.53672  1.0000
  H   H129      1.0  0.14992  0.34003  0.53985  1.0000
  H   H130      1.0  0.02233  0.33224  0.65519  1.0000
  C   C73       1.0  0.12301  0.33700  0.45432  1.0000
  H   H131      1.0  0.22829  0.65553  0.44464  1.0000
  H   H132      1.0  0.00555  0.33220  0.62383  1.0000
  C   C74       1.0  0.22716  0.50782  0.51789  1.0000
  C   C75       1.0  0.22666  0.52623  0.46554  1.0000
  C   C76       1.0  0.22369  0.65316  0.47310  1.0000
  H   H133      1.0  0.21043  0.65512  0.47539  1.0000
  C   C77       1.0  0.00752  0.32683  0.65052  1.0000
  Fe  Fe19      1.0  0.07477  0.33910  0.93983  1.0000
  S   S38       1.0  0.08502  0.36720  0.91398  1.0000
  H   H134      1.0  0.12533  0.50699  0.99425  1.0000
  S   S39       1.0  0.15326  0.64762  0.91064  1.0000
  S   S40       1.0  0.04250  0.36137  0.89679  1.0000
  Fe  Fe20      1.0  0.06545  0.35505  0.87055  1.0000
  S   S41       1.0  0.07649  0.36480  0.81398  1.0000
  Fe  Fe21      1.0  0.06152  0.37118  0.94228  1.0000
  H   H135      1.0  0.18652  0.45582  0.99220  1.0000
  C   C78       1.0  0.11730  0.33706  0.97816  1.0000
  H   H136      1.0  0.07691  0.36328  0.68344  1.0000
  H   H137      1.0  0.10563  0.50691  0.92601  1.0000
  H   H138      1.0  0.12243  0.48302  0.99567  1.0000
  H   H139      1.0  0.15215  0.51325  0.95374  1.0000
  C   C79       1.0  0.11942  0.42848  0.97032  1.0000
  C   C80       1.0  0.06933  0.35387  0.77318  1.0000
  C   C81       1.0  0.07605  0.36381  0.74098  1.0000
  C   C82       1.0  0.07158  0.35546  0.70794  1.0000
  H   H140      1.0  0.05272  0.32760  0.79649  1.0000
  H   H141      1.0  0.11931  0.62241  0.95456  1.0000
  C   C83       1.0  0.11893  0.49375  0.98082  1.0000
  H   H142      1.0  0.08482  0.37807  0.74157  1.0000
  Fe  Fe22      1.0  0.03417  0.33289  0.92258  1.0000
  H   H143      1.0  0.10173  0.40539  0.94233  1.0000
  H   H144      1.0  0.15671  0.37161  0.95211  1.0000
  S   S42       1.0  0.06563  0.39649  0.97562  1.0000
  C   C84       1.0  0.15490  0.35135  0.99344  1.0000
  H   H145      1.0  0.10399  0.49000  0.98360  1.0000
  C   C85       1.0  0.10258  0.41500  0.96304  1.0000
  H   H146      1.0  0.12719  0.52343  0.93711  1.0000
  H   H147      1.0  0.15882  0.60296  0.94479  1.0000
  S   S43       1.0  0.05163  0.34322  0.97016  1.0000
  C   C86       1.0  0.09279  0.32713  0.82043  1.0000
  H   H148      1.0  0.17877  0.64937  0.68571  1.0000
  C   C87       1.0  0.16201  0.59641  0.96804  1.0000
  H   H149      1.0  0.11751  0.36098  0.81230  1.0000
  C   C88       1.0  0.14495  0.49998  0.94095  1.0000
  C   C89       1.0  0.05390  0.32696  0.73896  1.0000
  H   H150      1.0  0.09630  0.62162  0.95862  1.0000
  H   H151      1.0  0.09623  0.33130  0.89129  1.0000
  S   S44       1.0  0.05682  0.32638  0.89432  1.0000
  C   C90       1.0  0.15721  0.57714  0.97012  1.0000
  H   H152      1.0  0.13141  0.42903  0.95513  1.0000
  C   C91       1.0  0.17320  0.65689  0.77397  1.0000
  H   H153      1.0  0.12038  0.47816  0.89767  1.0000
  H   H154      1.0  0.08809  0.37692  0.99230  1.0000
  H   H155      1.0  0.13700  0.33490  0.83640  1.0000
  H   H156      1.0  0.11949  0.46632  0.93958  1.0000
  H   H157      1.0  0.12391  0.35939  0.93933  1.0000
  H   H158      1.0  0.15015  0.50135  0.91289  1.0000
  H   H159      1.0  0.11918  0.33238  0.89252  1.0000
  H   H160      1.0  0.12841  0.36115  0.85400  1.0000
  H   H161      1.0  0.15033  0.56904  0.94831  1.0000
  H   H162      1.0  0.12666  0.33481  0.79429  1.0000
  C   C92       1.0  0.05804  0.33543  0.77199  1.0000
  H   H163      1.0  0.12500  0.51153  0.89618  1.0000
  C   C93       1.0  0.11611  0.47754  0.92621  1.0000
  C   C94       1.0  0.06063  0.33692  0.70676  1.0000
  H   H164      1.0  0.14894  0.48924  0.95459  1.0000
  N   N10       1.0  0.12511  0.49528  0.94312  1.0000
  C   C95       1.0  0.17978  0.65121  0.74303  1.0000
  C   C96       1.0  0.12907  0.35275  0.95969  1.0000
  C   C97       1.0  0.12050  0.50991  0.92472  1.0000
  Fe  Fe23      1.0  0.17487  0.65081  0.95049  1.0000
  C   C98       1.0  0.17374  0.65402  0.70916  1.0000
  C   C99       1.0  0.14771  0.35969  0.96707  1.0000
  H   H165      1.0  0.18950  0.64441  0.74536  1.0000
  S   S45       1.0  0.18117  0.65272  0.81591  1.0000
  C   C100      1.0  0.11555  0.35491  0.83988  1.0000
  H   H166      1.0  0.10109  0.47341  0.92778  1.0000
  C   C101      1.0  0.08695  0.41396  0.98255  1.0000
  H   H167      1.0  0.21337  0.44907  0.97227  1.0000
  C   C102      1.0  0.11067  0.63033  0.96260  1.0000
  H   H168      1.0  0.10516  0.35930  0.85329  1.0000
  H   H169      1.0  0.00092  0.33280  0.67067  1.0000
  N   N11       1.0  0.10975  0.33467  0.83993  1.0000
  H   H170      1.0  0.21494  0.64782  0.96278  1.0000
  H   H171      1.0  0.11406  0.64245  0.94377  1.0000
  C   C103      1.0  0.17077  0.60709  0.99615  1.0000
  H   H172      1.0  0.08175  0.33080  0.83306  1.0000
  H   H173      1.0  0.10217  0.36358  0.99022  1.0000
  H   H174      1.0  0.09452  0.33270  0.79248  1.0000
  C   C104      1.0  0.12401  0.32942  0.82235  1.0000
  C   C105      1.0  0.22474  0.64825  0.98377  1.0000
  C   C106      1.0  0.10663  0.32725  0.87703  1.0000
  H   H175      1.0  0.10444  0.65859  0.99051  1.0000
  S   S46       1.0  0.17655  0.63137  0.99571  1.0000
  S   S47       1.0  0.09368  0.32727  0.96911  1.0000
  H   H176      1.0  0.14207  0.64033  0.99674  1.0000
  H   H177      1.0  0.22837  0.46798  0.99593  1.0000
  C   C107      1.0  0.12085  0.44125  0.99687  1.0000
  S   S48       1.0  0.06192  0.72807  0.10511  1.0000
  S   S49       1.0  0.08633  0.74106  0.32219  1.0000
  Fe  Fe24      1.0  0.08521  0.73403  0.06501  1.0000
  C   C108      1.0  0.03195  0.72886  0.32785  1.0000
  Fe  Fe25      1.0  0.04690  0.73605  0.06088  1.0000
  C   C109      1.0  0.98591  0.72389  0.04159  1.0000
  C   C110      1.0  0.13298  0.69653  0.99983  1.0000
  H   H178      1.0  0.22664  0.72153  0.05735  1.0000
  C   C111      1.0  0.02987  0.74253  0.27067  1.0000
  C   C112      1.0  0.13260  0.81751  0.99799  1.0000
  H   H179      1.0  0.08337  0.72624  0.25260  1.0000
  C   C113      1.0  0.00631  0.73777  0.31609  1.0000
  H   H180      1.0  0.03191  0.77169  0.30909  1.0000
  H   H181      1.0  0.00131  0.74777  0.30250  1.0000
  S   S50       1.0  0.09462  0.79682  0.00356  1.0000
  S   S51       1.0  0.10372  0.71728  0.06504  1.0000
  H   H182      1.0  0.23004  0.76053  0.00711  1.0000
  H   H183      1.0  0.08275  0.77577  0.29907  1.0000
  C   C114      1.0  0.11165  0.70925  0.02667  1.0000
  C   C115      1.0  0.10408  0.82895  0.13919  1.0000
  C   C116      1.0  0.99300  0.71064  0.05285  1.0000
  H   H184      1.0  0.13374  0.70538  0.05394  1.0000
  S   S52       1.0  0.01687  0.71575  0.05871  1.0000
  N   N12       1.0  0.10252  0.82218  0.10262  1.0000
  C   C117      1.0  0.12678  0.70385  0.02915  1.0000
  H   H185      1.0  0.10871  0.83299  0.04888  1.0000
  H   H186      1.0  0.99502  0.73786  0.03611  1.0000
  H   H187      1.0  0.22059  0.77379  0.03392  1.0000
  H   H188      1.0  0.07838  0.78752  0.23926  1.0000
  H   H189      1.0  0.07915  0.73806  0.19284  1.0000
  H   H190      1.0  0.09603  0.70679  0.31469  1.0000
  N   N13       1.0  0.02598  0.74252  0.30932  1.0000
  H   H191      1.0  0.10738  0.79775  0.11845  1.0000
  H   H192      1.0  0.98592  0.68212  0.06838  1.0000
  C   C118      1.0  0.08214  0.73958  0.24990  1.0000
  H   H193      1.0  0.04456  0.74567  0.26480  1.0000
  H   H194      1.0  0.02600  0.75301  0.25582  1.0000
  S   S53       1.0  0.06999  0.74054  0.01992  1.0000
  Fe  Fe26      1.0  0.08209  0.76994  0.03811  1.0000
  S   S54       1.0  0.09817  0.76336  0.08097  1.0000
  Fe  Fe27      1.0  0.07361  0.75800  0.11702  1.0000
  S   S55       1.0  0.07558  0.77268  0.16963  1.0000
  S   S56       1.0  0.05768  0.76596  0.07495  1.0000
  H   H195      1.0  0.09844  0.81734  0.15916  1.0000
  C   C119      1.0  0.08304  0.75006  0.28018  1.0000
  H   H196      1.0  0.12733  0.81669  0.10380  1.0000
  N   N14       1.0  0.23118  0.66625  0.00074  1.0000
  C   C120      1.0  0.11267  0.80963  0.09907  1.0000
  C   C121      1.0  0.11005  0.83779  0.07669  1.0000
  H   H197      1.0  0.08154  0.80678  0.06824  1.0000
  H   H198      1.0  0.10288  0.84768  0.07884  1.0000
  H   H199      1.0  0.12472  0.84538  0.08055  1.0000
  C   C122      1.0  0.07975  0.74624  0.21594  1.0000
  H   H200      1.0  0.07511  0.82121  0.09791  1.0000
  H   H201      1.0  0.11847  0.83647  0.14553  1.0000
  H   H202      1.0  0.09652  0.83841  0.14296  1.0000
  H   H203      1.0  0.11162  0.80407  0.07189  1.0000
  C   C123      1.0  0.08323  0.81220  0.09556  1.0000
  H   H204      1.0  0.07714  0.80028  0.11455  1.0000
  C   C124      1.0  0.07838  0.76356  0.21185  1.0000
  C   C125      1.0  0.07928  0.77405  0.24217  1.0000
  C   C126      1.0  0.08162  0.76736  0.27617  1.0000
  H   H205      1.0  0.02245  0.72893  0.25943  1.0000
  H   H206      1.0  0.99842  0.72384  0.30679  1.0000
  C   C127      1.0  0.21556  0.66970  0.01706  1.0000
  H   H207      1.0  0.22988  0.80698  0.02344  1.0000
  H   H208      1.0  0.13471  0.80703  0.01472  1.0000
  H   H209      1.0  0.05071  0.76481  0.31902  1.0000
  C   C128      1.0  0.03581  0.76095  0.32284  1.0000
  H   H210      1.0  0.11319  0.69672  0.31253  1.0000
  H   H211      1.0  0.21103  0.70808  0.00237  1.0000
  C   C129      1.0  0.22454  0.71833  0.00055  1.0000
  H   H212      1.0  0.21992  0.68286  0.03115  1.0000
  H   H213      1.0  0.14469  0.69257  0.00216  1.0000
  H   H214      1.0  0.04681  0.73223  0.32393  1.0000
  H   H215      1.0  0.02500  0.71482  0.31807  1.0000
  H   H216      1.0  0.09046  0.68300  0.32730  1.0000
  C   C130      1.0  0.10117  0.69686  0.32837  1.0000
  H   H217      1.0  0.10364  0.73007  0.55512  1.0000
  Fe  Fe28      1.0  0.16263  0.67882  0.53201  1.0000
  S   S57       1.0  0.17581  0.69375  0.58003  1.0000
  S   S58       1.0  0.15288  0.69366  0.48890  1.0000
  Fe  Fe29      1.0  0.19971  0.68649  0.56396  1.0000
  C   C131      1.0  0.23042  0.66178  0.53382  1.0000
  H   H218      1.0  0.23206  0.81704  0.47542  1.0000
  S   S59       1.0  0.18755  0.67352  0.51398  1.0000
  H   H219      1.0  0.20172  0.93073  0.62719  1.0000
  H   H220      1.0  0.11546  0.72849  0.45163  1.0000
  H   H221      1.0  0.09136  0.68651  0.53252  1.0000
  C   C132      1.0  0.21828  0.83830  0.51268  1.0000
  C   C133      1.0  0.99319  0.70638  0.43551  1.0000
  H   H222      1.0  0.08726  0.75883  0.57668  1.0000
  C   C134      1.0  0.13336  0.69958  0.49243  1.0000
  C   C135      1.0  0.11877  0.69013  0.51570  1.0000
  C   C136      1.0  0.11624  0.71771  0.46925  1.0000
  C   C137      1.0  0.13209  0.71350  0.46949  1.0000
  C   C138      1.0  0.23024  0.97502  0.63188  1.0000
  H   H223      1.0  0.21222  0.71361  0.50352  1.0000
  H   H224      1.0  0.09120  0.77055  0.53391  1.0000
  C   C139      1.0  0.12298  0.77619  0.56539  1.0000
  H   H225      1.0  0.14342  0.72095  0.45166  1.0000
  C   C140      1.0  0.22767  0.85839  0.46041  1.0000
  H   H226      1.0  0.19223  0.68484  0.65472  1.0000
  H   H227      1.0  0.00501  0.70364  0.44380  1.0000
  C   C141      1.0  0.22632  0.72248  0.50287  1.0000
  C   C142      1.0  0.99518  0.72397  0.42227  1.0000
  H   H228      1.0  0.13223  0.72129  0.34985  1.0000
  H   H229      1.0  0.10259  0.67448  0.38280  1.0000
  H   H230      1.0  0.22703  0.68753  0.48889  1.0000
  C   C143      1.0  0.10277  0.69418  0.51505  1.0000
  H   H231      1.0  0.23066  0.84646  0.52663  1.0000
  C   C144      1.0  0.20784  0.94559  0.61944  1.0000
  H   H232      1.0  0.11960  0.67933  0.53339  1.0000
  S   S60       1.0  0.05825  0.72609  0.40625  1.0000
  S   S61       1.0  0.08084  0.71200  0.49021  1.0000
  H   H233      1.0  0.22522  0.73433  0.45103  1.0000
  C   C145      1.0  0.10137  0.70780  0.49146  1.0000
  C   C146      1.0  0.08939  0.70187  0.38529  1.0000
  Fe  Fe30      1.0  0.07678  0.73313  0.45228  1.0000
  H   H234      1.0  0.21283  0.94658  0.59125  1.0000
  H   H235      1.0  0.10752  0.74225  0.59579  1.0000
  H   H236      1.0  0.07857  0.68802  0.38628  1.0000
  H   H237      1.0  0.12238  0.78873  0.55138  1.0000
  C   C147      1.0  0.11231  0.74296  0.56755  1.0000
  N   N15       1.0  0.22171  0.83911  0.47377  1.0000
  Fe  Fe31      1.0  0.23163  0.92042  0.55113  1.0000
  H   H238      1.0  0.21702  0.86439  0.46539  1.0000
  H   H239      1.0  0.13742  0.77732  0.56489  1.0000
  H   H240      1.0  0.11831  0.77227  0.49616  1.0000
  S   S62       1.0  0.01682  0.74258  0.41789  1.0000
  H   H241      1.0  0.02896  0.72831  0.35701  1.0000
  H   H242      1.0  0.20002  0.81356  0.46569  1.0000
  H   H243      1.0  0.12636  0.74288  0.56729  1.0000
  H   H244      1.0  0.13169  0.75899  0.50940  1.0000
  C   C148      1.0  0.11786  0.75962  0.51106  1.0000
  H   H245      1.0  0.11858  0.77649  0.59361  1.0000
  H   H246      1.0  0.00303  0.73780  0.34507  1.0000
  H   H247      1.0  0.09229  0.70595  0.41326  1.0000
  Fe  Fe32      1.0  0.04729  0.74722  0.42502  1.0000
  H   H248      1.0  0.21380  0.82400  0.52383  1.0000
  Fe  Fe33      1.0  0.07992  0.74952  0.37704  1.0000
  H   H249      1.0  0.12394  0.72485  0.39273  1.0000
  Fe  Fe34      1.0  0.20208  0.88080  0.53796  1.0000
  S   S63       1.0  0.21093  0.86893  0.58613  1.0000
  S   S64       1.0  0.18272  0.86117  0.49810  1.0000
  Fe  Fe35      1.0  0.21291  0.89474  0.61435  1.0000
  H   H250      1.0  0.20762  0.84398  0.51981  1.0000
  S   S65       1.0  0.20208  0.90578  0.56751  1.0000
  C   C149      1.0  0.11274  0.68870  0.38266  1.0000
  N   N16       1.0  0.11142  0.75936  0.54832  1.0000
  Fe  Fe36      1.0  0.08702  0.77447  0.44197  1.0000
  S   S66       1.0  0.09951  0.75455  0.42178  1.0000
  S   S67       1.0  0.10361  0.79872  0.47676  1.0000
  C   C150      1.0  0.09247  0.75864  0.54904  1.0000
  H   H251      1.0  0.19680  0.95128  0.62028  1.0000
  S   S68       1.0  0.22865  0.70605  0.56741  1.0000
  S   S69       1.0  0.06873  0.77093  0.39441  1.0000
  H   H252      1.0  0.08333  0.74589  0.53697  1.0000
  C   C151      1.0  0.16068  0.84356  0.49327  1.0000
  C   C152      1.0  0.15675  0.83421  0.46102  1.0000
  C   C153      1.0  0.13969  0.82028  0.45573  1.0000
  C   C154      1.0  0.12592  0.81567  0.48230  1.0000
  C   C155      1.0  0.12980  0.82504  0.51450  1.0000
  C   C156      1.0  0.14702  0.83866  0.52012  1.0000
  H   H253      1.0  0.16689  0.83798  0.43960  1.0000
  H   H254      1.0  0.13704  0.81351  0.43063  1.0000
  H   H255      1.0  0.11933  0.82190  0.53525  1.0000
  H   H256      1.0  0.14955  0.84569  0.54498  1.0000
  H   H257      1.0  0.21601  0.69254  0.64330  1.0000
  H   H258      1.0  0.11602  0.69201  0.41091  1.0000
  S   S70       1.0  0.06437  0.75271  0.47376  1.0000
  C   C157      1.0  0.11982  0.72060  0.36535  1.0000
  H   H259      1.0  0.08371  0.71158  0.37269  1.0000
  S   S71       1.0  0.23087  0.89647  0.51691  1.0000
  N   N17       1.0  0.10579  0.70199  0.36545  1.0000
  H   H260      1.0  0.19382  0.83351  0.46260  1.0000
  H   H261      1.0  0.10869  0.74777  0.49685  1.0000
  H   H262      1.0  0.11485  0.73104  0.35330  1.0000
  C   C158      1.0  0.20487  0.82821  0.45643  1.0000
  Fe  Fe37      1.0  0.16539  0.66603  0.60846  1.0000
  H   H263      1.0  0.21734  0.66387  0.53759  1.0000
  H   H264      1.0  0.21985  0.98156  0.63369  1.0000
  H   H265      1.0  0.12532  0.68863  0.36885  1.0000
  H   H266      1.0  0.23177  0.93271  0.64960  1.0000
  N   N18       1.0  0.22263  0.95538  0.64306  1.0000
  H   H267      1.0  0.03293  0.76149  0.35184  1.0000
  H   H268      1.0  0.20684  0.82879  0.42698  1.0000
  H   H269      1.0  0.21661  0.72367  0.63138  1.0000
  H   H270      1.0  0.19285  0.71649  0.64242  1.0000
  C   C159      1.0  0.20655  0.72169  0.65385  1.0000
  H   H271      1.0  0.23085  0.85965  0.43130  1.0000
  S   S72       1.0  0.19050  0.65988  0.59586  1.0000
  H   H272      1.0  0.19561  0.85178  0.85790  1.0000
  H   H273      1.0  0.18051  0.70088  0.69942  1.0000
  Fe  Fe38      1.0  0.15528  0.67616  0.92587  1.0000
  S   S73       1.0  0.17652  0.69044  0.88321  1.0000
  S   S74       1.0  0.12954  0.68273  0.93183  1.0000
  H   H274      1.0  0.20960  0.93863  0.68911  1.0000
  Fe  Fe39      1.0  0.19644  0.69051  0.92499  1.0000
  S   S75       1.0  0.22301  0.71455  0.92757  1.0000
  C   C160      1.0  0.22487  0.78606  0.96508  1.0000
  S   S76       1.0  0.17531  0.67843  0.96846  1.0000
  C   C161      1.0  0.18076  0.84483  0.86347  1.0000
  H   H275      1.0  0.19487  0.69577  0.73084  1.0000
  H   H276      1.0  0.19604  0.71905  0.72364  1.0000
  H   H277      1.0  0.23278  0.99217  0.96111  1.0000
  C   C162      1.0  0.10275  0.70725  0.99449  1.0000
  C   C163      1.0  0.12380  0.69411  0.96792  1.0000
  H   H278      1.0  0.22903  0.79709  0.94383  1.0000
  H   H279      1.0  0.20446  0.95914  0.68300  1.0000
  H   H280      1.0  0.13656  0.66017  0.98558  1.0000
  H   H281      1.0  0.22830  0.70678  0.71768  1.0000
  C   C164      1.0  0.15431  0.66813  0.73679  1.0000
  H   H282      1.0  0.10144  0.69762  0.94094  1.0000
  H   H283      1.0  0.17787  0.84722  0.89171  1.0000
  C   C165      1.0  0.16049  0.66548  0.77064  1.0000
  H   H284      1.0  0.09104  0.71124  0.99227  1.0000
  H   H285      1.0  0.14434  0.67462  0.73458  1.0000
  C   C166      1.0  0.10869  0.69952  0.96543  1.0000
  H   H286      1.0  0.18950  0.85601  0.79529  1.0000
  C   C167      1.0  0.21542  0.95339  0.68015  1.0000
  C   C168      1.0  0.22657  0.71624  0.69660  1.0000
  C   C169      1.0  0.20598  0.69099  0.66557  1.0000
  C   C170      1.0  0.15064  0.84208  0.84689  1.0000
  C   C171      1.0  0.11260  0.82930  0.96671  1.0000
  Fe  Fe40      1.0  0.22389  0.92517  0.92920  1.0000
  H   H287      1.0  0.22623  0.96050  0.69878  1.0000
  Fe  Fe41      1.0  0.19356  0.88528  0.93727  1.0000
  S   S77       1.0  0.21341  0.87221  0.92042  1.0000
  S   S78       1.0  0.16319  0.86713  0.94583  1.0000
  S   S79       1.0  0.21286  0.90424  0.97463  1.0000
  Fe  Fe42      1.0  0.22273  0.89476  0.87771  1.0000
  N   N19       1.0  0.20838  0.70877  0.68158  1.0000
  S   S80       1.0  0.20232  0.90747  0.89319  1.0000
  N   N20       1.0  0.17020  0.85180  0.83891  1.0000
  H   H288      1.0  0.14224  0.84711  0.82909  1.0000
  C   C172      1.0  0.22109  0.89057  0.77983  1.0000
  C   C173      1.0  0.20917  0.90003  0.77535  1.0000
  C   C174      1.0  0.20333  0.90253  0.74110  1.0000
  C   C175      1.0  0.20962  0.89597  0.71090  1.0000
  C   C176      1.0  0.22181  0.88685  0.71531  1.0000
  H   H289      1.0  0.09911  0.82812  0.95918  1.0000
  H   H290      1.0  0.20438  0.90536  0.79821  1.0000
  H   H291      1.0  0.19388  0.90959  0.73799  1.0000
  H   H292      1.0  0.22214  0.77271  0.95197  1.0000
  C   C177      1.0  0.14524  0.84689  0.96344  1.0000
  H   H293      1.0  0.17157  0.83392  0.79715  1.0000
  H   H294      1.0  0.14668  0.82703  0.84369  1.0000
  H   H295      1.0  0.17753  0.82983  0.86103  1.0000
  C   C178      1.0  0.17477  0.84876  0.80181  1.0000
  S   S81       1.0  0.23058  0.95602  0.94096  1.0000
  H   H296      1.0  0.22892  0.72972  0.70880  1.0000
  C   C179      1.0  0.11484  0.81549  0.98854  1.0000
  H   H297      1.0  0.12517  0.85509  0.93778  1.0000
  C   C180      1.0  0.17476  0.87166  0.84364  1.0000
  H   H298      1.0  0.14696  0.84419  0.87487  1.0000
  H   H299      1.0  0.16721  0.85404  0.78244  1.0000
  H   H300      1.0  0.18954  0.87925  0.83923  1.0000
  H   H301      1.0  0.17102  0.87446  0.87102  1.0000
  H   H302      1.0  0.16758  0.87761  0.82470  1.0000
  C   C181      1.0  0.12749  0.84471  0.95446  1.0000
  C   C182      1.0  0.14775  0.83311  0.98536  1.0000
  C   C183      1.0  0.19439  0.70605  0.71014  1.0000
  S   S82       1.0  0.19754  0.66329  0.90997  1.0000
  H   H303      1.0  0.22674  0.88169  0.69237  1.0000
  C   C184      1.0  0.22736  0.88404  0.74961  1.0000
  S   S83       1.0  0.20146  0.89906  0.66851  1.0000
  H   H304      1.0  0.16131  0.83446  0.99263  1.0000
  H   H305      1.0  0.20752  0.68092  0.68552  1.0000
  H   H306      1.0  0.21188  0.78582  0.97757  1.0000
  H   H307      1.0  0.15524  0.66984  0.79418  1.0000
  S   S84       1.0  0.22787  0.88568  0.82247  1.0000
  H   H308      1.0  0.23096  0.68172  0.95267  1.0000
  C   C185      1.0  0.16094  0.66249  0.70586  1.0000
  Fe  Fe43      1.0  0.17606  0.66227  0.87082  1.0000
  H   H309      1.0  0.20857  0.73539  0.66473  1.0000
  S   S85       1.0  0.15321  0.66685  0.66379  1.0000
  H   H310      1.0  0.20591  0.67042  0.99658  1.0000
  C   C186      1.0  0.28791  0.16543  0.03464  1.0000
  H   H311      1.0  0.27694  0.16602  0.05176  1.0000
  H   H312      1.0  0.30708  0.22592  0.25563  1.0000
  H   H313      1.0  0.46551  0.15493  0.24238  1.0000
  H   H314      1.0  0.38443  0.31383  0.02510  1.0000
  C   C187      1.0  0.30360  0.18107  0.02943  1.0000
  S   S86       1.0  0.30416  0.20131  0.05183  1.0000
  H   H315      1.0  0.38120  0.26422  0.13220  1.0000
  Fe  Fe44      1.0  0.48172  0.21997  0.07519  1.0000
  H   H316      1.0  0.46886  0.16831  0.30230  1.0000
  C   C188      1.0  0.48238  0.27757  0.03325  1.0000
  H   H317      1.0  0.28438  0.23077  0.04901  1.0000
  H   H318      1.0  0.43270  0.22788  0.03021  1.0000
  H   H319      1.0  0.30545  0.31372  0.04946  1.0000
  C   C189      1.0  0.39854  0.12259  0.02617  1.0000
  C   C190      1.0  0.35812  0.13766  0.07341  1.0000
  H   H320      1.0  0.26278  0.31163  0.16244  1.0000
  S   S87       1.0  0.32055  0.25356  0.02024  1.0000
  H   H321      1.0  0.39507  0.29301  0.16422  1.0000
  C   C191      1.0  0.29019  0.26552  0.29789  1.0000
  C   C192      1.0  0.41558  0.29530  0.08273  1.0000
  H   H322      1.0  0.35277  0.15363  0.01228  1.0000
  S   S88       1.0  0.28425  0.27390  0.05762  1.0000
  H   H323      1.0  0.32820  0.14227  0.09979  1.0000
  H   H324      1.0  0.26728  0.20885  0.05843  1.0000
  C   C193      1.0  0.27829  0.29405  0.05540  1.0000
  C   C194      1.0  0.25981  0.29202  0.05719  1.0000
  C   C195      1.0  0.25433  0.30741  0.05469  1.0000
  C   C196      1.0  0.29121  0.31181  0.05113  1.0000
  H   H325      1.0  0.29057  0.29898  0.31489  1.0000
  H   H326      1.0  0.24769  0.31263  0.19823  1.0000
  C   C197      1.0  0.32905  0.24563  0.28243  1.0000
  H   H327      1.0  0.42691  0.29105  0.09132  1.0000
  S   S89       1.0  0.48268  0.20720  0.02327  1.0000
  N   N21       1.0  0.40025  0.28940  0.10911  1.0000
  N   N22       1.0  0.26556  0.22134  0.00759  1.0000
  Fe  Fe45      1.0  0.31070  0.26788  0.06331  1.0000
  S   S90       1.0  0.34791  0.24629  0.07838  1.0000
  C   C198      1.0  0.47155  0.16965  0.24477  1.0000
  S   S91       1.0  0.30807  0.24542  0.10455  1.0000
  C   C199      1.0  0.41725  0.15344  0.00508  1.0000
  S   S92       1.0  0.47979  0.16980  0.06630  1.0000
  H   H328      1.0  0.27371  0.13718  0.02260  1.0000
  H   H329      1.0  0.31773  0.14245  0.05808  1.0000
  H   H330      1.0  0.36572  0.12924  0.06247  1.0000
  C   C200      1.0  0.47723  0.18094  0.21374  1.0000
  H   H331      1.0  0.35255  0.26715  0.30065  1.0000
  C   C201      1.0  0.47348  0.17722  0.27882  1.0000
  H   H332      1.0  0.38001  0.28909  0.07191  1.0000
  Fe  Fe46      1.0  0.46004  0.18225  0.04523  1.0000
  C   C202      1.0  0.40643  0.29735  0.14384  1.0000
  C   C203      1.0  0.31939  0.23785  0.25230  1.0000
  S   S93       1.0  0.45777  0.19593  0.09619  1.0000
  S   S94       1.0  0.32048  0.23578  0.32520  1.0000
  C   C204      1.0  0.41425  0.13841  0.02857  1.0000
  H   H333      1.0  0.42105  0.31050  0.07822  1.0000
  H   H334      1.0  0.39093  0.31087  0.09164  1.0000
  H   H335      1.0  0.36367  0.28012  0.23987  1.0000
  H   H336      1.0  0.24220  0.31747  0.11976  1.0000
  H   H337      1.0  0.35583  0.13431  0.10245  1.0000
  Fe  Fe47      1.0  0.31930  0.23198  0.06186  1.0000
  H   H338      1.0  0.38844  0.26273  0.08714  1.0000
  H   H339      1.0  0.29483  0.27552  0.27493  1.0000
  C   C205      1.0  0.32560  0.24524  0.21781  1.0000
  H   H340      1.0  0.35222  0.13079  0.00480  1.0000
  C   C206      1.0  0.32954  0.11435  0.05996  1.0000
  H   H341      1.0  0.33188  0.13569  0.00244  1.0000
  S   S95       1.0  0.43704  0.17347  0.00565  1.0000
  H   H342      1.0  0.27442  0.19853  0.00020  1.0000
  Fe  Fe48      1.0  0.47878  0.18516  0.11667  1.0000
  H   H343      1.0  0.45654  0.23257  0.02581  1.0000
  H   H344      1.0  0.27528  0.25840  0.29659  1.0000
  C   C207      1.0  0.26987  0.22262  0.04564  1.0000
  C   C208      1.0  0.31766  0.17984  0.00705  1.0000
  H   H345      1.0  0.42416  0.13886  0.04824  1.0000
  S   S96       1.0  0.47490  0.17060  0.17153  1.0000
  H   H346      1.0  0.37445  0.29241  0.11695  1.0000
  N   N23       1.0  0.34083  0.13403  0.05535  1.0000
  H   H347      1.0  0.33654  0.10551  0.04849  1.0000
  H   H348      1.0  0.31642  0.11116  0.04640  1.0000
  H   H349      1.0  0.24963  0.27841  0.06030  1.0000
  C   C209      1.0  0.33102  0.14524  0.07073  1.0000
  H   H350      1.0  0.31811  0.23899  0.19488  1.0000
  C   C210      1.0  0.34165  0.26046  0.21307  1.0000
  H   H351      1.0  0.44107  0.20957  0.02357  1.0000
  H   H352      1.0  0.29652  0.25497  0.29407  1.0000
  H   H353      1.0  0.33886  0.16020  0.06675  1.0000
  H   H354      1.0  0.41134  0.28923  0.05643  1.0000
  S   S97       1.0  0.35046  0.26994  0.17017  1.0000
  Fe  Fe49      1.0  0.34879  0.26872  0.03884  1.0000
  C   C211      1.0  0.34495  0.26103  0.27775  1.0000
  Fe  Fe50      1.0  0.33688  0.26158  0.11711  1.0000
  C   C212      1.0  0.38581  0.29575  0.09686  1.0000
  S   S98       1.0  0.33918  0.28496  0.07825  1.0000
  C   C213      1.0  0.39577  0.31210  0.01104  1.0000
  H   H355      1.0  0.24008  0.30550  0.05570  1.0000
  C   C214      1.0  0.24619  0.21020  0.00405  1.0000
  C   C215      1.0  0.28606  0.14896  0.01801  1.0000
  C   C216      1.0  0.39306  0.26914  0.11302  1.0000
  C   C217      1.0  0.25949  0.32106  0.18089  1.0000
  H   H356      1.0  0.26197  0.22954  0.06070  1.0000
  H   H357      1.0  0.32018  0.29442  0.31045  1.0000
  C   C218      1.0  0.34463  0.13880  0.01704  1.0000
  H   H358      1.0  0.39647  0.11094  0.04418  1.0000
  H   H359      1.0  0.32636  0.11019  0.08855  1.0000
  H   H360      1.0  0.36710  0.15233  0.06997  1.0000
  C   C219      1.0  0.35123  0.26834  0.24323  1.0000
  H   H361      1.0  0.41736  0.29290  0.15399  1.0000
  H   H362      1.0  0.41175  0.31263  0.14186  1.0000
  H   H363      1.0  0.40347  0.26383  0.12284  1.0000
  H   H364      1.0  0.47555  0.28159  0.05499  1.0000
  C   C220      1.0  0.44319  0.22404  0.01577  1.0000
  C   C221      1.0  0.48142  0.19622  0.28229  1.0000
  S   S99       1.0  0.48172  0.24896  0.07771  1.0000
  H   H365      1.0  0.23737  0.21645  0.01809  1.0000
  C   C222      1.0  0.38561  0.12172  0.00059  1.0000
  S   S100      1.0  0.37320  0.27600  0.00006  1.0000
  S   S101      1.0  0.36620  0.10143  0.99819  1.0000
  C   C223      1.0  0.26725  0.32516  0.04994  1.0000
  H   H366      1.0  0.26123  0.24708  0.00582  1.0000
  H   H367      1.0  0.24291  0.19606  0.01563  1.0000
  H   H368      1.0  0.32983  0.19180  0.00243  1.0000
  H   H369      1.0  0.47769  0.24179  0.32853  1.0000
  H   H370      1.0  0.32212  0.27393  0.32927  1.0000
  H   H371      1.0  0.48115  0.29895  0.99707  1.0000
  H   H372      1.0  0.26539  0.01972  0.53244  1.0000
  C   C224      1.0  0.26756  0.00750  0.54197  1.0000
  C   C225      1.0  0.28310  0.00926  0.56095  1.0000
  S   S102      1.0  0.30015  0.03120  0.56995  1.0000
  H   H373      1.0  0.30758  0.14913  0.45111  1.0000
  S   S103      1.0  0.29424  0.08257  0.58475  1.0000
  Fe  Fe51      1.0  0.30892  0.06318  0.57146  1.0000
  C   C226      1.0  0.37614  0.24832  0.51937  1.0000
  S   S104      1.0  0.31052  0.12387  0.50569  1.0000
  Fe  Fe52      1.0  0.31484  0.10427  0.54861  1.0000
  H   H374      1.0  0.36633  0.21256  0.53759  1.0000
  C   C227      1.0  0.31530  0.14815  0.50551  1.0000
  C   C228      1.0  0.31286  0.15714  0.47412  1.0000
  S   S105      1.0  0.31041  0.24039  0.42371  1.0000
  Fe  Fe53      1.0  0.31474  0.09328  0.62741  1.0000
  H   H375      1.0  0.31501  0.18293  0.44780  1.0000
  C   C229      1.0  0.31710  0.17638  0.47212  1.0000
  S   S106      1.0  0.47684  0.16555  0.40024  1.0000
  C   C230      1.0  0.46578  0.26640  0.35939  1.0000
  C   C231      1.0  0.29286  0.29826  0.43738  1.0000
  C   C232      1.0  0.29365  0.31646  0.43151  1.0000
  C   C233      1.0  0.46467  0.24008  0.39562  1.0000
  C   C234      1.0  0.26068  0.30696  0.43621  1.0000
  C   C235      1.0  0.25988  0.28873  0.44160  1.0000
  C   C236      1.0  0.27580  0.28437  0.44200  1.0000
  H   H376      1.0  0.24683  0.27787  0.44594  1.0000
  H   H377      1.0  0.27485  0.27032  0.44674  1.0000
  H   H378      1.0  0.44056  0.30474  0.61193  1.0000
  H   H379      1.0  0.45038  0.31083  0.49023  1.0000
  C   C237      1.0  0.47281  0.24493  0.49002  1.0000
  S   S107      1.0  0.31361  0.29389  0.43861  1.0000
  C   C238      1.0  0.44206  0.30217  0.64078  1.0000
  H   H380      1.0  0.45516  0.23022  0.37786  1.0000
  Fe  Fe54      1.0  0.33163  0.24613  0.37921  1.0000
  S   S108      1.0  0.33420  0.11584  0.59202  1.0000
  S   S109      1.0  0.32844  0.07334  0.61596  1.0000
  Fe  Fe55      1.0  0.34605  0.09475  0.57635  1.0000
  S   S110      1.0  0.37646  0.10144  0.57225  1.0000
  Fe  Fe56      1.0  0.45206  0.16344  0.43377  1.0000
  S   S111      1.0  0.45093  0.18958  0.40947  1.0000
  S   S112      1.0  0.42557  0.13881  0.43462  1.0000
  H   H381      1.0  0.29017  0.29543  0.36225  1.0000
  Fe  Fe57      1.0  0.46812  0.20301  0.45472  1.0000
  S   S113      1.0  0.45748  0.22274  0.48238  1.0000
  C   C239      1.0  0.41921  0.31455  0.65779  1.0000
  H   H382      1.0  0.40313  0.31846  0.53465  1.0000
  C   C240      1.0  0.36747  0.16944  0.48024  1.0000
  H   H383      1.0  0.37511  0.06674  0.52103  1.0000
  C   C241      1.0  0.38970  0.11247  0.53394  1.0000
  C   C242      1.0  0.38388  0.10707  0.49981  1.0000
  C   C243      1.0  0.39524  0.11496  0.46984  1.0000
  C   C244      1.0  0.41228  0.12877  0.47351  1.0000
  C   C245      1.0  0.41802  0.13438  0.50762  1.0000
  C   C246      1.0  0.40688  0.12602  0.53772  1.0000
  H   H384      1.0  0.37074  0.09665  0.49649  1.0000
  H   H385      1.0  0.39075  0.11045  0.44356  1.0000
  H   H386      1.0  0.43115  0.14492  0.51086  1.0000
  H   H387      1.0  0.41162  0.13012  0.56406  1.0000
  H   H388      1.0  0.34086  0.02215  0.49416  1.0000
  C   C247      1.0  0.36636  0.03135  0.54357  1.0000
  H   H389      1.0  0.34922  0.13685  0.51019  1.0000
  H   H390      1.0  0.37103  0.18034  0.45881  1.0000
  H   H391      1.0  0.35414  0.16847  0.49227  1.0000
  H   H392      1.0  0.35544  0.15638  0.41694  1.0000
  N   N24       1.0  0.38594  0.23598  0.51015  1.0000
  H   H393      1.0  0.38842  0.21110  0.53098  1.0000
  H   H394      1.0  0.35964  0.12377  0.48564  1.0000
  H   H395      1.0  0.38398  0.23978  0.45387  1.0000
  H   H396      1.0  0.32780  0.03497  0.51162  1.0000
  H   H397      1.0  0.35984  0.01963  0.56281  1.0000
  H   H398      1.0  0.36752  0.05174  0.48441  1.0000
  C   C248      1.0  0.33746  0.02805  0.51875  1.0000
  H   H399      1.0  0.36584  0.22072  0.47401  1.0000
  C   C249      1.0  0.38452  0.15362  0.44994  1.0000
  C   C250      1.0  0.34855  0.04809  0.56748  1.0000
  H   H400      1.0  0.33889  0.05506  0.56148  1.0000
  S   S114      1.0  0.35047  0.23709  0.41238  1.0000
  H   H401      1.0  0.37768  0.17397  0.50120  1.0000
  H   H402      1.0  0.38886  0.16454  0.42854  1.0000
  H   H403      1.0  0.27422  0.25373  0.36295  1.0000
  C   C251      1.0  0.36298  0.05645  0.50933  1.0000
  H   H404      1.0  0.32389  0.15220  0.55948  1.0000
  H   H405      1.0  0.35210  0.13272  0.42724  1.0000
  C   C252      1.0  0.40569  0.24636  0.50960  1.0000
  H   H406      1.0  0.38423  0.14070  0.43765  1.0000
  N   N25       1.0  0.35385  0.04095  0.53474  1.0000
  C   C253      1.0  0.35274  0.14589  0.43899  1.0000
  H   H407      1.0  0.33902  0.14358  0.45065  1.0000
  H   H408      1.0  0.40962  0.25784  0.48923  1.0000
  C   C254      1.0  0.36193  0.13767  0.49564  1.0000
  C   C255      1.0  0.32200  0.15879  0.53504  1.0000
  H   H409      1.0  0.33078  0.18592  0.55652  1.0000
  S   S115      1.0  0.32878  0.21132  0.50136  1.0000
  H   H410      1.0  0.37278  0.14071  0.51545  1.0000
  H   H411      1.0  0.41358  0.23745  0.50310  1.0000
  H   H412      1.0  0.45585  0.25749  0.34094  1.0000
  H   H413      1.0  0.37879  0.04079  0.55583  1.0000
  H   H414      1.0  0.41017  0.25250  0.53570  1.0000
  C   C256      1.0  0.32598  0.17800  0.53320  1.0000
  N   N26       1.0  0.36668  0.15166  0.46620  1.0000
  H   H415      1.0  0.39530  0.15710  0.46995  1.0000
  H   H416      1.0  0.36042  0.05829  0.58002  1.0000
  H   H417      1.0  0.37070  0.02582  0.51942  1.0000
  H   H418      1.0  0.34157  0.03689  0.58751  1.0000
  C   C257      1.0  0.38068  0.22856  0.47465  1.0000
  H   H419      1.0  0.35375  0.06379  0.50188  1.0000
  Fe  Fe58      1.0  0.47692  0.19281  0.37986  1.0000
  H   H420      1.0  0.29735  0.99396  0.58756  1.0000
  C   C258      1.0  0.28920  0.26067  0.36158  1.0000
  Fe  Fe59      1.0  0.33052  0.23345  0.45789  1.0000
  H   H421      1.0  0.32990  0.01648  0.53768  1.0000
  S   S116      1.0  0.32773  0.08391  0.53125  1.0000
  H   H422      1.0  0.38788  0.21927  0.46671  1.0000
  C   C259      1.0  0.32354  0.18697  0.50179  1.0000
  H   H423      1.0  0.37906  0.25982  0.49937  1.0000
  S   S117      1.0  0.34553  0.27579  0.39098  1.0000
  C   C260      1.0  0.38118  0.22066  0.53688  1.0000
  Fe  Fe60      1.0  0.36248  0.26651  0.42874  1.0000
  S   S118      1.0  0.39335  0.27769  0.43236  1.0000
  S   S119      1.0  0.34298  0.26296  0.47491  1.0000
  S   S120      1.0  0.47735  0.31261  0.57473  1.0000
  H   H424      1.0  0.45170  0.25488  0.50594  1.0000
  Fe  Fe61      1.0  0.32472  0.27016  0.43616  1.0000
  H   H425      1.0  0.38000  0.25448  0.54567  1.0000
  C   C261      1.0  0.27773  0.32078  0.43062  1.0000
  C   C262      1.0  0.42812  0.31610  0.51558  1.0000
  C   C263      1.0  0.40632  0.29255  0.46481  1.0000
  C   C264      1.0  0.39843  0.30040  0.49036  1.0000
  C   C265      1.0  0.40930  0.31217  0.51548  1.0000
  S   S121      1.0  0.46812  0.17666  0.48065  1.0000
  C   C266      1.0  0.43593  0.30794  0.49050  1.0000
  C   C267      1.0  0.42509  0.29633  0.46518  1.0000
  H   H426      1.0  0.38402  0.29768  0.49035  1.0000
  H   H427      1.0  0.41697  0.31727  0.62934  1.0000
  H   H428      1.0  0.36120  0.24089  0.52041  1.0000
  H   H429      1.0  0.43135  0.29034  0.44559  1.0000
  H   H430      1.0  0.47270  0.28670  0.51480  1.0000
  H   H431      1.0  0.45799  0.27080  0.38006  1.0000
  H   H432      1.0  0.38479  0.22577  0.56407  1.0000
  H   H433      1.0  0.29338  0.26691  0.38774  1.0000
  C   C268      1.0  0.28642  0.28829  0.33673  1.0000
  C   C269      1.0  0.46611  0.25836  0.50131  1.0000
  H   H434      1.0  0.43284  0.28795  0.64806  1.0000
  H   H435      1.0  0.45620  0.30267  0.64423  1.0000
  S   S122      1.0  0.24007  0.31165  0.43725  1.0000
  H   H436      1.0  0.29516  0.24982  0.35833  1.0000
  H   H437      1.0  0.45646  0.24362  0.41671  1.0000
  N   N27       1.0  0.47676  0.25662  0.37566  1.0000
  H   H438      1.0  0.31936  0.29091  0.35798  1.0000
  C   C270      1.0  0.47798  0.27636  0.50650  1.0000
  H   H439      1.0  0.47445  0.27893  0.34393  1.0000
  H   H440      1.0  0.47255  0.23268  0.40910  1.0000
  H   H441      1.0  0.27139  0.28175  0.33726  1.0000
  H   H442      1.0  0.48234  0.27272  0.42263  1.0000
  C   C271      1.0  0.31508  0.28390  0.33247  1.0000
  N   N28       1.0  0.29521  0.27460  0.33213  1.0000
  C   C272      1.0  0.28548  0.99297  0.57283  1.0000
  N   N29       1.0  0.43810  0.31582  0.66278  1.0000
  C   C273      1.0  0.27469  0.04947  0.84425  1.0000
  H   H443      1.0  0.30870  0.10551  0.81139  1.0000
  S   S123      1.0  0.30071  0.08904  0.90287  1.0000
  H   H444      1.0  0.26096  0.04078  0.83591  1.0000
  H   H445      1.0  0.29813  0.02481  0.80788  1.0000
  H   H446      1.0  0.30832  0.07310  0.83421  1.0000
  H   H447      1.0  0.40686  0.28081  0.96392  1.0000
  S   S124      1.0  0.29496  0.03576  0.92816  1.0000
  C   C274      1.0  0.27684  0.01369  0.93201  1.0000
  C   C275      1.0  0.25972  0.01131  0.94704  1.0000
  Fe  Fe62      1.0  0.31022  0.10796  0.94955  1.0000
  H   H448      1.0  0.29372  0.10275  0.75336  1.0000
  C   C276      1.0  0.44073  0.31221  0.70065  1.0000
  H   H449      1.0  0.29818  0.05070  0.76663  1.0000
  H   H450      1.0  0.28793  0.06640  0.78162  1.0000
  H   H451      1.0  0.27400  0.04313  0.77378  1.0000
  C   C277      1.0  0.30701  0.05845  0.83403  1.0000
  C   C278      1.0  0.28720  0.05192  0.78433  1.0000
  H   H452      1.0  0.43145  0.29836  0.71015  1.0000
  H   H453      1.0  0.27403  0.01804  0.81563  1.0000
  Fe  Fe63      1.0  0.30708  0.06741  0.93549  1.0000
  H   H454      1.0  0.32657  0.16235  0.97276  1.0000
  H   H455      1.0  0.25713  0.02303  0.95714  1.0000
  N   N30       1.0  0.28908  0.04678  0.82173  1.0000
  C   C279      1.0  0.40838  0.29364  0.97622  1.0000
  H   H456      1.0  0.28883  0.02310  0.85242  1.0000
  H   H457      1.0  0.27554  0.06403  0.84293  1.0000
  C   C280      1.0  0.30699  0.10172  0.75463  1.0000
  H   H458      1.0  0.43831  0.32252  0.71804  1.0000
  C   C281      1.0  0.31543  0.10323  0.78757  1.0000
  H   H459      1.0  0.31824  0.05762  0.81658  1.0000
  H   H460      1.0  0.27577  0.04581  0.87270  1.0000
  C   C282      1.0  0.28744  0.02731  0.82443  1.0000
  H   H461      1.0  0.42392  0.21598  0.93519  1.0000
  C   C283      1.0  0.31559  0.09899  0.72323  1.0000
  C   C284      1.0  0.42485  0.21445  0.96448  1.0000
  S   S125      1.0  0.31418  0.08541  0.98346  1.0000
  H   H462      1.0  0.38346  0.12939  0.85218  1.0000
  H   H463      1.0  0.41933  0.10919  0.86340  1.0000
  Fe  Fe64      1.0  0.34281  0.09743  0.96125  1.0000
  S   S126      1.0  0.33908  0.12024  0.92906  1.0000
  S   S127      1.0  0.33639  0.07797  0.91650  1.0000
  C   C285      1.0  0.38330  0.09508  0.85524  1.0000
  H   H464      1.0  0.38980  0.08460  0.85346  1.0000
  Fe  Fe65      1.0  0.33021  0.09979  0.88546  1.0000
  H   H465      1.0  0.35475  0.09886  0.75904  1.0000
  C   C286      1.0  0.38845  0.13688  0.97750  1.0000
  H   H466      1.0  0.45727  0.22383  0.92969  1.0000
  S   S128      1.0  0.34388  0.10395  0.83029  1.0000
  H   H467      1.0  0.29281  0.99957  0.90741  1.0000
  H   H468      1.0  0.39989  0.09208  0.91533  1.0000
  H   H469      1.0  0.30926  0.05442  0.86156  1.0000
  H   H470      1.0  0.39149  0.13546  0.89624  1.0000
  H   H471      1.0  0.41998  0.13052  0.88142  1.0000
  H   H472      1.0  0.33963  0.09591  0.70109  1.0000
  H   H473      1.0  0.36908  0.08795  0.86531  1.0000
  N   N31       1.0  0.44258  0.22660  0.97682  1.0000
  H   H474      1.0  0.37858  0.13647  0.95786  1.0000
  C   C287      1.0  0.41210  0.11908  0.86443  1.0000
  N   N32       1.0  0.39327  0.11012  0.87849  1.0000
  H   H475      1.0  0.38250  0.10033  0.82775  1.0000
  C   C288      1.0  0.33284  0.09792  0.72508  1.0000
  H   H476      1.0  0.37942  0.09600  0.92659  1.0000
  H   H477      1.0  0.37009  0.11745  0.89010  1.0000
  H   H478      1.0  0.41246  0.12493  0.83700  1.0000
  C   C289      1.0  0.40425  0.15258  0.97959  1.0000
  C   C290      1.0  0.27971  0.99806  0.91913  1.0000
  H   H479      1.0  0.40097  0.11356  0.93315  1.0000
  C   C291      1.0  0.38425  0.12376  0.87935  1.0000
  C   C292      1.0  0.39341  0.10261  0.91491  1.0000
  S   S129      1.0  0.46906  0.32508  0.90358  1.0000
  C   C293      1.0  0.33268  0.10216  0.78941  1.0000
  C   C294      1.0  0.34136  0.09959  0.75800  1.0000
  C   C295      1.0  0.26937  0.23998  0.99201  1.0000
  H   H480      1.0  0.45571  0.20741  0.96515  1.0000
  H   H481      1.0  0.45829  0.25540  0.97742  1.0000
  C   C296      1.0  0.44512  0.24595  0.96801  1.0000
  H   H482      1.0  0.47076  0.23072  0.96807  1.0000
  H   H483      1.0  0.27400  0.21134  0.95998  1.0000
  C   C297      1.0  0.31584  0.16306  0.99033  1.0000
  H   H484      1.0  0.26636  0.23966  0.96326  1.0000
  S   S130      1.0  0.30402  0.09665  0.68276  1.0000
  S   S131      1.0  0.29602  0.12549  0.97691  1.0000
  H   H485      1.0  0.40644  0.16414  0.96130  1.0000
  C   C298      1.0  0.42507  0.30840  0.97253  1.0000
  H   H486      1.0  0.43625  0.30686  0.95752  1.0000
  C   C299      1.0  0.45719  0.22193  0.95910  1.0000
  H   H487      1.0  0.29153  0.22053  0.99122  1.0000
  H   H488      1.0  0.24244  0.20896  0.97565  1.0000
  H   H489      1.0  0.43430  0.24999  0.98070  1.0000
  H   H490      1.0  0.45484  0.31285  0.70497  1.0000
  H   H491      1.0  0.44509  0.24854  0.93879  1.0000
  C   C300      1.0  0.42724  0.32512  0.98812  1.0000
  C   C301      1.0  0.24587  0.99369  0.94925  1.0000
  C   C302      1.0  0.27681  0.21255  0.98881  1.0000
  H   H492      1.0  0.40941  0.30068  0.66581  1.0000
  H   H493      1.0  0.42262  0.19976  0.97088  1.0000
  C   C303      1.0  0.39367  0.29535  0.99563  1.0000
  H   H494      1.0  0.41352  0.21756  0.97744  1.0000
  H   H495      1.0  0.41583  0.32477  0.67385  1.0000
  H   H496      1.0  0.28383  0.24884  0.99461  1.0000
  C   C304      1.0  0.29991  0.14745  0.99584  1.0000
  C   C305      1.0  0.27881  0.46801  0.00995  1.0000
  S   S132      1.0  0.24254  0.37506  0.10132  1.0000
  S   S133      1.0  0.26132  0.34530  0.04643  1.0000
  H   H497      1.0  0.29589  0.34077  0.04441  1.0000
  H   H498      1.0  0.23976  0.39499  0.25338  1.0000
  H   H499      1.0  0.45026  0.62335  0.13955  1.0000
  C   C306      1.0  0.27284  0.43052  0.02077  1.0000
  C   C307      1.0  0.40822  0.59312  0.16242  1.0000
  H   H500      1.0  0.43663  0.59760  0.20438  1.0000
  H   H501      1.0  0.41179  0.58058  0.16451  1.0000
  S   S134      1.0  0.24091  0.42371  0.06051  1.0000
  H   H502      1.0  0.30582  0.59928  0.00940  1.0000
  C   C308      1.0  0.43784  0.61093  0.13750  1.0000
  H   H503      1.0  0.40204  0.59314  0.13603  1.0000
  S   S135      1.0  0.40768  0.61820  0.06096  1.0000
  C   C309      1.0  0.26360  0.45650  0.03014  1.0000
  H   H504      1.0  0.25435  0.46230  0.04194  1.0000
  H   H505      1.0  0.40869  0.62591  0.18402  1.0000
  H   H506      1.0  0.43068  0.63911  0.16545  1.0000
  C   C310      1.0  0.38038  0.58871  0.03453  1.0000
  C   C311      1.0  0.26044  0.43768  0.03540  1.0000
  H   H507      1.0  0.41285  0.62689  0.13671  1.0000
  C   C312      1.0  0.43231  0.60962  0.20104  1.0000
  H   H508      1.0  0.39764  0.59194  0.18334  1.0000
  C   C313      1.0  0.26023  0.51843  0.00072  1.0000
  H   H509      1.0  0.23936  0.34012  0.20416  1.0000
  H   H510      1.0  0.27064  0.41610  0.02487  1.0000
  C   C314      1.0  0.46816  0.65772  0.24180  1.0000
  H   H511      1.0  0.23658  0.33761  0.12247  1.0000
  H   H512      1.0  0.24763  0.35872  0.17206  1.0000
  C   C315      1.0  0.24758  0.51082  0.02902  1.0000
  C   C316      1.0  0.41252  0.32686  0.00749  1.0000
  H   H513      1.0  0.25016  0.50175  0.04860  1.0000
  H   H514      1.0  0.26860  0.35715  0.12187  1.0000
  H   H515      1.0  0.44453  0.62221  0.20420  1.0000
  N   N33       1.0  0.42431  0.60994  0.16602  1.0000
  H   H516      1.0  0.43239  0.61154  0.11067  1.0000
  H   H517      1.0  0.44211  0.59881  0.13870  1.0000
  Fe  Fe66      1.0  0.43233  0.64520  0.05840  1.0000
  C   C317      1.0  0.41887  0.62616  0.16292  1.0000
  C   C318      1.0  0.28837  0.44216  0.00152  1.0000
  H   H518      1.0  0.28340  0.35334  0.15404  1.0000
  S   S136      1.0  0.45993  0.64478  0.07088  1.0000
  H   H519      1.0  0.42257  0.60908  0.22326  1.0000
  N   N34       1.0  0.25543  0.33561  0.16099  1.0000
  H   H520      1.0  0.37706  0.58438  0.06214  1.0000
  H   H521      1.0  0.28109  0.48246  0.00613  1.0000
  C   C319      1.0  0.39507  0.60508  0.02593  1.0000
  H   H522      1.0  0.35893  0.56519  0.01477  1.0000
  Fe  Fe67      1.0  0.23743  0.35540  0.05624  1.0000
  C   C320      1.0  0.27134  0.34637  0.13813  1.0000
  H   H523      1.0  0.47631  0.64918  0.23983  1.0000
  H   H524      1.0  0.46811  0.65764  0.29939  1.0000
  H   H525      1.0  0.23749  0.65531  0.04950  1.0000
  H   H526      1.0  0.26280  0.35481  0.20326  1.0000
  C   C321      1.0  0.25119  0.34785  0.18626  1.0000
  C   C322      1.0  0.37004  0.57779  0.00770  1.0000
  S   S137      1.0  0.46888  0.65775  0.16866  1.0000
  H   H527      1.0  0.32066  0.57642  0.01910  1.0000
  H   H528      1.0  0.41401  0.33981  0.01929  1.0000
  H   H529      1.0  0.27508  0.33750  0.11910  1.0000
  H   H530      1.0  0.27127  0.32700  0.19812  1.0000
  H   H531      1.0  0.27240  0.51514  0.99858  1.0000
  C   C323      1.0  0.28571  0.32718  0.04820  1.0000
  H   H532      1.0  0.33975  0.60867  0.00543  1.0000
  C   C324      1.0  0.23967  0.32709  0.13867  1.0000
  H   H533      1.0  0.24326  0.49799  0.45342  1.0000
  H   H534      1.0  0.37574  0.62172  0.52872  1.0000
  H   H535      1.0  0.28197  0.50845  0.42485  1.0000
  S   S138      1.0  0.25180  0.36608  0.41017  1.0000
  H   H536      1.0  0.30674  0.32732  0.42746  1.0000
  S   S139      1.0  0.25359  0.39633  0.50035  1.0000
  C   C325      1.0  0.26823  0.41970  0.49981  1.0000
  C   C326      1.0  0.28067  0.42764  0.47168  1.0000
  C   C327      1.0  0.29330  0.44566  0.47408  1.0000
  C   C328      1.0  0.29325  0.45617  0.50396  1.0000
  C   C329      1.0  0.28061  0.44831  0.53183  1.0000
  C   C330      1.0  0.26836  0.43009  0.52994  1.0000
  H   H537      1.0  0.28088  0.41978  0.44850  1.0000
  H   H538      1.0  0.28048  0.45614  0.55512  1.0000
  H   H539      1.0  0.25895  0.42398  0.55205  1.0000
  S   S140      1.0  0.30903  0.47907  0.50476  1.0000
  H   H540      1.0  0.36147  0.52916  0.65663  1.0000
  H   H541      1.0  0.28044  0.46992  0.44245  1.0000
  C   C331      1.0  0.37499  0.62757  0.50177  1.0000
  H   H542      1.0  0.27050  0.47589  0.40411  1.0000
  C   C332      1.0  0.26983  0.35482  0.50481  1.0000
  H   H543      1.0  0.28846  0.36941  0.44380  1.0000
  H   H544      1.0  0.41069  0.63891  0.48230  1.0000
  C   C333      1.0  0.27851  0.50261  0.45246  1.0000
  H   H545      1.0  0.27084  0.47693  0.50376  1.0000
  H   H546      1.0  0.30311  0.45157  0.45247  1.0000
  H   H547      1.0  0.27864  0.33478  0.42565  1.0000
  S   S141      1.0  0.44137  0.33132  0.54723  1.0000
  C   C334      1.0  0.40656  0.64696  0.50248  1.0000
  N   N35       1.0  0.26304  0.48497  0.45363  1.0000
  H   H548      1.0  0.36784  0.57809  0.63955  1.0000
  H   H549      1.0  0.37327  0.65356  0.45493  1.0000
  H   H550      1.0  0.26624  0.34533  0.48223  1.0000
  H   H551      1.0  0.25428  0.48753  0.50714  1.0000
  H   H552      1.0  0.37001  0.54822  0.62543  1.0000
  N   N36       1.0  0.28867  0.36799  0.50097  1.0000
  H   H553      1.0  0.29987  0.34977  0.52691  1.0000
  H   H554      1.0  0.39007  0.64452  0.44008  1.0000
  H   H555      1.0  0.30650  0.39094  0.52867  1.0000
  S   S142      1.0  0.46291  0.64919  0.39643  1.0000
  H   H556      1.0  0.29053  0.37328  0.55690  1.0000
  C   C335      1.0  0.29110  0.37856  0.46688  1.0000
  H   H557      1.0  0.26003  0.36210  0.50570  1.0000
  C   C336      1.0  0.24705  0.48768  0.43852  1.0000
  C   C337      1.0  0.30131  0.35787  0.50150  1.0000
  Fe  Fe68      1.0  0.30261  0.52047  0.60811  1.0000
  Fe  Fe69      1.0  0.29448  0.53368  0.53521  1.0000
  S   S143      1.0  0.27768  0.54579  0.50196  1.0000
  S   S144      1.0  0.28443  0.50617  0.56389  1.0000
  S   S145      1.0  0.31055  0.54828  0.58067  1.0000
  C   C338      1.0  0.25451  0.53282  0.49801  1.0000
  C   C339      1.0  0.24502  0.53684  0.46987  1.0000
  C   C340      1.0  0.24549  0.51837  0.52213  1.0000
  H   H558      1.0  0.25198  0.54801  0.45109  1.0000
  H   H559      1.0  0.25260  0.51540  0.54425  1.0000
  H   H560      1.0  0.28164  0.38624  0.46556  1.0000
  H   H561      1.0  0.27553  0.51298  0.46864  1.0000
  Fe  Fe70      1.0  0.30934  0.50284  0.53969  1.0000
  H   H562      1.0  0.30509  0.38882  0.46325  1.0000
  C   C341      1.0  0.26789  0.47150  0.43269  1.0000
  H   H563      1.0  0.31566  0.36736  0.49841  1.0000
  N   N37       1.0  0.38802  0.64661  0.49675  1.0000
  H   H564      1.0  0.23504  0.47469  0.43963  1.0000
  H   H565      1.0  0.46486  0.33562  0.65423  1.0000
  H   H566      1.0  0.26758  0.34625  0.52977  1.0000
  H   H567      1.0  0.38447  0.65390  0.55039  1.0000
  C   C342      1.0  0.29242  0.38076  0.53069  1.0000
  H   H568      1.0  0.29875  0.34802  0.47958  1.0000
  C   C343      1.0  0.38700  0.65339  0.46014  1.0000
  Fe  Fe71      1.0  0.43892  0.64097  0.43565  1.0000
  S   S146      1.0  0.41727  0.61208  0.43933  1.0000
  H   H569      1.0  0.28315  0.38869  0.53089  1.0000
  Fe  Fe72      1.0  0.33408  0.54242  0.55648  1.0000
  S   S147      1.0  0.36171  0.56525  0.56272  1.0000
  C   C344      1.0  0.40206  0.59934  0.47424  1.0000
  C   C345      1.0  0.40548  0.60289  0.51017  1.0000
  C   C346      1.0  0.39296  0.59238  0.53685  1.0000
  C   C347      1.0  0.37690  0.57819  0.52799  1.0000
  C   C348      1.0  0.37346  0.57468  0.49209  1.0000
  C   C349      1.0  0.38603  0.58511  0.46544  1.0000
  H   H570      1.0  0.41797  0.61343  0.51742  1.0000
  H   H571      1.0  0.39587  0.59508  0.56453  1.0000
  H   H572      1.0  0.36123  0.56376  0.48482  1.0000
  H   H573      1.0  0.38332  0.58212  0.43777  1.0000
  H   H574      1.0  0.29087  0.50095  0.46326  1.0000
  C   C350      1.0  0.25877  0.47810  0.49095  1.0000
  S   S148      1.0  0.32698  0.51506  0.58615  1.0000
  S   S149      1.0  0.31857  0.52992  0.50858  1.0000
  H   H575      1.0  0.24969  0.49273  0.41028  1.0000
  Fe  Fe73      1.0  0.24028  0.37747  0.45544  1.0000
  Fe  Fe74      1.0  0.47150  0.33668  0.55228  1.0000
  H   H576      1.0  0.24784  0.46431  0.49291  1.0000
  H   H577      1.0  0.36080  0.62679  0.49830  1.0000
  H   H578      1.0  0.25287  0.64819  0.49999  1.0000
  H   H579      1.0  0.37777  0.61835  0.48215  1.0000
  H   H580      1.0  0.34023  0.55250  0.62787  1.0000
  H   H581      1.0  0.25697  0.45769  0.43447  1.0000
  Fe  Fe75      1.0  0.23351  0.33801  0.43003  1.0000
  C   C351      1.0  0.36804  0.54438  0.65438  1.0000
  H   H582      1.0  0.40770  0.64111  0.52919  1.0000
  C   C352      1.0  0.45052  0.33442  0.65168  1.0000
  H   H583      1.0  0.33211  0.53279  0.65749  1.0000
  H   H584      1.0  0.44870  0.33774  0.62336  1.0000
  C   C353      1.0  0.33899  0.54795  0.65633  1.0000
  H   H585      1.0  0.36979  0.65872  0.51901  1.0000
  C   C354      1.0  0.38367  0.65857  0.52250  1.0000
  H   H586      1.0  0.32506  0.46448  0.90121  1.0000
  H   H587      1.0  0.29466  0.44373  0.92253  1.0000
  H   H588      1.0  0.31160  0.43348  0.87666  1.0000
  H   H589      1.0  0.34838  0.53284  0.71464  1.0000
  H   H590      1.0  0.31490  0.44356  0.83238  1.0000
  C   C355      1.0  0.30532  0.43948  0.85591  1.0000
  H   H591      1.0  0.29276  0.42843  0.84782  1.0000
  H   H592      1.0  0.32978  0.55384  0.67006  1.0000
  H   H593      1.0  0.35776  0.58089  0.68131  1.0000
  H   H594      1.0  0.27569  0.43863  0.89397  1.0000
  C   C356      1.0  0.28874  0.44939  0.90063  1.0000
  S   S150      1.0  0.31466  0.52909  0.97403  1.0000
  S   S151      1.0  0.29283  0.50317  0.90821  1.0000
  Fe  Fe76      1.0  0.29590  0.53043  0.93101  1.0000
  S   S152      1.0  0.27339  0.54131  0.94125  1.0000
  H   H595      1.0  0.35013  0.60208  0.96795  1.0000
  C   C357      1.0  0.35457  0.54802  0.71072  1.0000
  C   C358      1.0  0.30096  0.51752  0.70729  1.0000
  C   C359      1.0  0.29598  0.52512  0.73755  1.0000
  C   C360      1.0  0.30219  0.52263  0.77144  1.0000
  H   H596      1.0  0.28720  0.53297  0.73479  1.0000
  H   H597      1.0  0.36774  0.55257  0.72418  1.0000
  Fe  Fe77      1.0  0.31335  0.50288  0.94813  1.0000
  S   S153      1.0  0.31793  0.54617  0.89105  1.0000
  C   C361      1.0  0.39921  0.61047  0.99009  1.0000
  H   H598      1.0  0.30603  0.60911  0.96555  1.0000
  H   H599      1.0  0.29824  0.52858  0.79443  1.0000
  C   C362      1.0  0.31330  0.51228  0.77550  1.0000
  H   H600      1.0  0.33164  0.58323  0.92204  1.0000
  C   C363      1.0  0.25730  0.53059  0.97579  1.0000
  C   C364      1.0  0.24147  0.53475  0.97891  1.0000
  S   S154      1.0  0.44813  0.34397  0.98458  1.0000
  C   C365      1.0  0.31819  0.50455  0.74529  1.0000
  C   C366      1.0  0.31213  0.50720  0.71134  1.0000
  C   C367      1.0  0.38886  0.59957  0.96329  1.0000
  Fe  Fe78      1.0  0.31680  0.51874  0.87210  1.0000
  Fe  Fe79      1.0  0.47200  0.34386  0.94931  1.0000
  C   C368      1.0  0.29311  0.46297  0.84114  1.0000
  H   H601      1.0  0.29021  0.47515  0.85033  1.0000
  H   H602      1.0  0.30236  0.46773  0.81720  1.0000
  H   H603      1.0  0.28563  0.46109  0.91172  1.0000
  H   H604      1.0  0.31584  0.48163  0.89025  1.0000
  C   C369      1.0  0.31842  0.46960  0.87976  1.0000
  S   S155      1.0  0.36145  0.57042  0.93663  1.0000
  H   H605      1.0  0.28016  0.45269  0.83265  1.0000
  H   H606      1.0  0.23911  0.54413  0.95969  1.0000
  H   H607      1.0  0.32824  0.47476  0.85678  1.0000
  N   N38       1.0  0.30138  0.45535  0.86934  1.0000
  Fe  Fe80      1.0  0.33682  0.54378  0.93322  1.0000
  S   S156      1.0  0.33739  0.51740  0.91131  1.0000
  S   S157      1.0  0.32137  0.50843  0.81751  1.0000
  C   C370      1.0  0.31983  0.57417  0.99001  1.0000
  H   H608      1.0  0.39226  0.60389  0.93566  1.0000
  H   H609      1.0  0.32667  0.49640  0.74819  1.0000
  H   H610      1.0  0.31578  0.50096  0.68846  1.0000
  H   H611      1.0  0.37954  0.57838  0.68006  1.0000
  H   H612      1.0  0.30733  0.57595  0.92507  1.0000
  S   S158      1.0  0.31112  0.47508  0.97174  1.0000
  H   H613      1.0  0.29813  0.43659  0.99112  1.0000
  H   H614      1.0  0.34547  0.55390  0.72490  1.0000
  C   C371      1.0  0.37428  0.58314  0.97183  1.0000
  H   H615      1.0  0.30683  0.56273  0.98548  1.0000
  N   N39       1.0  0.35690  0.55350  0.67249  1.0000
  H   H616      1.0  0.32083  0.59962  0.91489  1.0000
  H   H617      1.0  0.33966  0.61882  0.96196  1.0000
  H   H618      1.0  0.33110  0.56950  0.98214  1.0000
  H   H619      1.0  0.29243  0.58544  0.97542  1.0000
  C   C372      1.0  0.33835  0.60583  0.97659  1.0000
  N   N40       1.0  0.32101  0.59099  0.96960  1.0000
  C   C373      1.0  0.32015  0.58730  0.93121  1.0000
  H   H620      1.0  0.44831  0.34512  0.66820  1.0000
  S   S159      1.0  0.29241  0.52089  0.66543  1.0000
  C   C374      1.0  0.30566  0.59650  0.98051  1.0000
  C   C375      1.0  0.36593  0.57363  0.66825  1.0000
  H   H621      1.0  0.41044  0.62299  0.98300  1.0000
  C   C376      1.0  0.29137  0.46091  0.99589  1.0000
  H   H622      1.0  0.23610  0.64510  0.97109  1.0000
  H   H623      1.0  0.38169  0.54821  0.66582  1.0000
  H   H624      1.0  0.38136  0.82472  0.09295  1.0000
  C   C377      1.0  0.25074  0.73969  0.02942  1.0000
  C   C378      1.0  0.31936  0.80361  0.27627  1.0000
  C   C379      1.0  0.27732  0.93755  0.03954  1.0000
  H   H625      1.0  0.48103  0.74637  0.01541  1.0000
  H   H626      1.0  0.29198  0.94442  0.03237  1.0000
  H   H627      1.0  0.24760  0.74916  0.27648  1.0000
  C   C380      1.0  0.27647  0.85231  0.02500  1.0000
  C   C381      1.0  0.38666  0.79853  0.02153  1.0000
  Fe  Fe81      1.0  0.29878  0.81539  0.03412  1.0000
  S   S160      1.0  0.27936  0.80199  0.07960  1.0000
  Fe  Fe82      1.0  0.28502  0.77660  0.06626  1.0000
  H   H628      1.0  0.25340  0.81006  0.02751  1.0000
  H   H629      1.0  0.37792  0.82413  0.19210  1.0000
  H   H630      1.0  0.25600  0.66359  0.01720  1.0000
  H   H631      1.0  0.25457  0.73422  0.30498  1.0000
  H   H632      1.0  0.27518  0.94026  0.06788  1.0000
  H   H633      1.0  0.39153  0.82225  0.15445  1.0000
  S   S161      1.0  0.30810  0.78258  0.10354  1.0000
  C   C382      1.0  0.24668  0.93442  0.02633  1.0000
  C   C383      1.0  0.46354  0.66250  0.27563  1.0000
  C   C384      1.0  0.27349  0.78059  0.29361  1.0000
  H   H634      1.0  0.26469  0.86956  0.05247  1.0000
  H   H635      1.0  0.24275  0.91926  0.02459  1.0000
  S   S162      1.0  0.30317  0.78945  0.01870  1.0000
  H   H636      1.0  0.28126  0.84786  0.04895  1.0000
  S   S163      1.0  0.30436  0.82169  0.16755  1.0000
  H   H637      1.0  0.38026  0.84677  0.10298  1.0000
  N   N41       1.0  0.26598  0.94400  0.01594  1.0000
  C   C385      1.0  0.38215  0.82906  0.16410  1.0000
  H   H638      1.0  0.28500  0.97177  0.01052  1.0000
  Fe  Fe83      1.0  0.30399  0.80902  0.11332  1.0000
  H   H639      1.0  0.36494  0.79756  0.13069  1.0000
  H   H640      1.0  0.34430  0.80152  0.12507  1.0000
  C   C386      1.0  0.31646  0.79971  0.21192  1.0000
  H   H641      1.0  0.36108  0.84940  0.15472  1.0000
  C   C387      1.0  0.26706  0.86460  0.02691  1.0000
  S   S164      1.0  0.35323  0.79370  0.05205  1.0000
  S   S165      1.0  0.24957  0.88646  0.99955  1.0000
  H   H642      1.0  0.45382  0.72146  0.31919  1.0000
  H   H643      1.0  0.24366  0.93727  0.05411  1.0000
  C   C388      1.0  0.30989  0.81411  0.20908  1.0000
  H   H644      1.0  0.24914  0.67959  0.04187  1.0000
  C   C389      1.0  0.35639  0.80498  0.14175  1.0000
  H   H645      1.0  0.28324  0.78077  0.27164  1.0000
  S   S166      1.0  0.26105  0.74962  0.06873  1.0000
  H   H646      1.0  0.38693  0.78821  0.04100  1.0000
  H   H647      1.0  0.31110  0.82498  0.29701  1.0000
  H   H648      1.0  0.30301  0.83435  0.23807  1.0000
  C   C390      1.0  0.25936  0.74771  0.29018  1.0000
  C   C391      1.0  0.30800  0.82314  0.24002  1.0000
  C   C392      1.0  0.31260  0.81787  0.27348  1.0000
  Fe  Fe84      1.0  0.47147  0.66992  0.03468  1.0000
  H   H649      1.0  0.34195  0.83123  0.13871  1.0000
  H   H650      1.0  0.31786  0.79256  0.18840  1.0000
  S   S167      1.0  0.32509  0.79617  0.31772  1.0000
  H   H651      1.0  0.26855  0.96766  0.04666  1.0000
  S   S168      1.0  0.47407  0.68946  0.07876  1.0000
  H   H652      1.0  0.26195  0.78324  0.28136  1.0000
  Fe  Fe85      1.0  0.44598  0.68722  0.06421  1.0000
  S   S169      1.0  0.43928  0.71306  0.06348  1.0000
  H   H653      1.0  0.48159  0.72948  0.04805  1.0000
  H   H654      1.0  0.35163  0.79933  0.16913  1.0000
  C   C393      1.0  0.45207  0.67518  0.21350  1.0000
  C   C394      1.0  0.44757  0.68008  0.24733  1.0000
  C   C395      1.0  0.45333  0.67384  0.27857  1.0000
  N   N42       1.0  0.26744  0.76297  0.31428  1.0000
  H   H655      1.0  0.44766  0.68020  0.18972  1.0000
  H   H656      1.0  0.43966  0.68885  0.24925  1.0000
  S   S170      1.0  0.44376  0.66881  0.01829  1.0000
  H   H657      1.0  0.32648  0.78353  0.24720  1.0000
  N   N43       1.0  0.36632  0.82502  0.14132  1.0000
  C   C396      1.0  0.44374  0.72678  0.02401  1.0000
  H   H658      1.0  0.26940  0.74731  0.26920  1.0000
  C   C397      1.0  0.32132  0.79462  0.24530  1.0000
  Fe  Fe86      1.0  0.32607  0.79785  0.05666  1.0000
  C   C398      1.0  0.44450  0.74500  0.02542  1.0000
  C   C399      1.0  0.37253  0.83173  0.10446  1.0000
  S   S171      1.0  0.32317  0.82482  0.06853  1.0000
  H   H659      1.0  0.38998  0.84407  0.16441  1.0000
  H   H660      1.0  0.34926  0.82953  0.18281  1.0000
  H   H661      1.0  0.44154  0.75016  0.05035  1.0000
  H   H662      1.0  0.36091  0.82898  0.08657  1.0000
  C   C400      1.0  0.35418  0.83423  0.15500  1.0000
  Fe  Fe87      1.0  0.46015  0.66441  0.11416  1.0000
  H   H663      1.0  0.28045  0.79235  0.31067  1.0000
  H   H664      1.0  0.26203  0.96911  0.00166  1.0000
  C   C401      1.0  0.27064  0.96402  0.01891  1.0000
  H   H665      1.0  0.27402  0.92244  0.03759  1.0000
  H   H666      1.0  0.29387  0.76082  0.31149  1.0000
  C   C402      1.0  0.24217  0.80688  0.00854  1.0000
  C   C403      1.0  0.37143  0.80384  0.02048  1.0000
  C   C404      1.0  0.46255  0.66410  0.21056  1.0000
  S   S172      1.0  0.43225  0.66386  0.10330  1.0000
  C   C405      1.0  0.24403  0.66616  0.02858  1.0000
  H   H667      1.0  0.24371  0.77566  0.03901  1.0000
  H   H668      1.0  0.23770  0.93877  0.00869  1.0000
  S   S173      1.0  0.44773  0.68092  0.32042  1.0000
  H   H669      1.0  0.41309  0.80202  0.99841  1.0000
  C   C406      1.0  0.23339  0.72598  0.03159  1.0000
  H   H670      1.0  0.24165  0.76445  0.33006  1.0000
  C   C407      1.0  0.23307  0.77414  0.01915  1.0000
  C   C408      1.0  0.40153  0.80633  0.99735  1.0000
  H   H671      1.0  0.26397  0.73358  0.55218  1.0000
  C   C409      1.0  0.23699  0.94744  0.64069  1.0000
  S   S174      1.0  0.24042  0.95169  0.53657  1.0000
  H   H672      1.0  0.24244  0.94826  0.61290  1.0000
  C   C410      1.0  0.43784  0.74131  0.35559  1.0000
  H   H673      1.0  0.24979  0.69464  0.50359  1.0000
  H   H674      1.0  0.23547  0.97682  0.60375  1.0000
  C   C411      1.0  0.25544  0.73383  0.53026  1.0000
  H   H675      1.0  0.24005  0.67109  0.55221  1.0000
  C   C412      1.0  0.43230  0.71047  0.37787  1.0000
  H   H676      1.0  0.33086  0.83515  0.56087  1.0000
  Fe  Fe88      1.0  0.28828  0.78276  0.43140  1.0000
  S   S175      1.0  0.30173  0.80263  0.47329  1.0000
  S   S176      1.0  0.26072  0.75994  0.43317  1.0000
  S   S177      1.0  0.30157  0.85116  0.43671  1.0000
  S   S178      1.0  0.29109  0.80474  0.38954  1.0000
  C   C413      1.0  0.47609  0.73914  0.50553  1.0000
  H   H677      1.0  0.46666  0.71772  0.35490  1.0000
  H   H678      1.0  0.24885  0.83949  0.47838  1.0000
  S   S179      1.0  0.25852  0.86893  0.56759  1.0000
  Fe  Fe89      1.0  0.31755  0.80207  0.37403  1.0000
  C   C414      1.0  0.25727  0.97361  0.54644  1.0000
  C   C415      1.0  0.28929  0.85565  0.47309  1.0000
  C   C416      1.0  0.28407  0.87108  0.47108  1.0000
  C   C417      1.0  0.27451  0.87526  0.49965  1.0000
  C   C418      1.0  0.27028  0.86415  0.53072  1.0000
  C   C419      1.0  0.27566  0.84882  0.53286  1.0000
  C   C420      1.0  0.28494  0.84445  0.50407  1.0000
  H   H679      1.0  0.28752  0.87991  0.44734  1.0000
  H   H680      1.0  0.27074  0.88729  0.49791  1.0000
  H   H681      1.0  0.27252  0.84020  0.55688  1.0000
  H   H682      1.0  0.28889  0.83256  0.50604  1.0000
  C   C421      1.0  0.34023  0.83297  0.54046  1.0000
  N   N44       1.0  0.23713  0.66559  0.49639  1.0000
  C   C422      1.0  0.27266  0.97535  0.56596  1.0000
  H   H683      1.0  0.26490  0.67181  0.50977  1.0000
  H   H684      1.0  0.27487  0.96312  0.57530  1.0000
  H   H685      1.0  0.23910  0.83208  0.43649  1.0000
  H   H686      1.0  0.46969  0.71252  0.48292  1.0000
  N   N45       1.0  0.34943  0.84976  0.51817  1.0000
  H   H687      1.0  0.34212  0.86712  0.48075  1.0000
  H   H688      1.0  0.42744  0.74280  0.37452  1.0000
  Fe  Fe90      1.0  0.30647  0.82438  0.43027  1.0000
  C   C423      1.0  0.36243  0.84643  0.49288  1.0000
  H   H689      1.0  0.28955  0.77188  0.34980  1.0000
  H   H690      1.0  0.27687  0.75479  0.49989  1.0000
  C   C424      1.0  0.23371  0.73426  0.47313  1.0000
  H   H691      1.0  0.41665  0.66118  0.50043  1.0000
  C   C425      1.0  0.25195  0.74597  0.47184  1.0000
  S   S180      1.0  0.31382  0.77873  0.41370  1.0000
  C   C426      1.0  0.26278  0.74584  0.50065  1.0000
  H   H692      1.0  0.24312  0.98890  0.51950  1.0000
  S   S181      1.0  0.33363  0.82369  0.41148  1.0000
  C   C427      1.0  0.25383  0.76297  0.34190  1.0000
  Fe  Fe91      1.0  0.23942  0.88497  0.56572  1.0000
  H   H693      1.0  0.36643  0.87784  0.52506  1.0000
  S   S182      1.0  0.42836  0.66150  0.41141  1.0000
  S   S183      1.0  0.46903  0.69213  0.41322  1.0000
  Fe  Fe92      1.0  0.44493  0.68094  0.45061  1.0000
  S   S184      1.0  0.43085  0.69839  0.47584  1.0000
  Fe  Fe93      1.0  0.45308  0.67105  0.37520  1.0000
  H   H694      1.0  0.46167  0.72698  0.41599  1.0000
  C   C428      1.0  0.44569  0.71890  0.49291  1.0000
  C   C429      1.0  0.43889  0.73197  0.50581  1.0000
  C   C430      1.0  0.46432  0.72252  0.49279  1.0000
  H   H695      1.0  0.39692  0.66762  0.45525  1.0000
  H   H696      1.0  0.24175  0.98283  0.64848  1.0000
  H   H697      1.0  0.42180  0.71104  0.39757  1.0000
  C   C431      1.0  0.45514  0.73611  0.40396  1.0000
  C   C432      1.0  0.46005  0.72719  0.34462  1.0000
  H   H698      1.0  0.35549  0.83490  0.47540  1.0000
  S   S185      1.0  0.47882  0.81924  0.51646  1.0000
  H   H699      1.0  0.24505  0.68836  0.45824  1.0000
  Fe  Fe94      1.0  0.47442  0.79487  0.55320  1.0000
  C   C433      1.0  0.45070  0.74862  0.51868  1.0000
  H   H700      1.0  0.36955  0.85871  0.47534  1.0000
  S   S186      1.0  0.24218  0.90969  0.59842  1.0000
  H   H701      1.0  0.42448  0.72928  0.50585  1.0000
  H   H702      1.0  0.25947  0.77449  0.36024  1.0000
  N   N46       1.0  0.44635  0.72878  0.37051  1.0000
  Fe  Fe95      1.0  0.47733  0.66985  0.43735  1.0000
  C   C434      1.0  0.25489  0.98989  0.53461  1.0000
  C   C435      1.0  0.35926  0.86499  0.54111  1.0000
  H   H703      1.0  0.33205  0.82143  0.52411  1.0000
  Fe  Fe96      1.0  0.46204  0.81247  0.61605  1.0000
  S   S187      1.0  0.46569  0.83834  0.58354  1.0000
  H   H704      1.0  0.47089  0.74070  0.33831  1.0000
  H   H705      1.0  0.46581  0.74994  0.39960  1.0000
  H   H706      1.0  0.32811  0.84337  0.48077  1.0000
  Fe  Fe97      1.0  0.45218  0.81931  0.53981  1.0000
  S   S188      1.0  0.43318  0.82514  0.49994  1.0000
  S   S189      1.0  0.44692  0.79349  0.57334  1.0000
  S   S190      1.0  0.34665  0.79643  0.49454  1.0000
  C   C436      1.0  0.37074  0.80398  0.49479  1.0000
  C   C437      1.0  0.37900  0.79967  0.52473  1.0000
  C   C438      1.0  0.39805  0.80581  0.52665  1.0000
  C   C439      1.0  0.40909  0.81650  0.49870  1.0000
  C   C440      1.0  0.40081  0.82086  0.46881  1.0000
  C   C441      1.0  0.38177  0.81456  0.46672  1.0000
  H   H707      1.0  0.37063  0.79150  0.54662  1.0000
  H   H708      1.0  0.40420  0.80237  0.54983  1.0000
  H   H709      1.0  0.40922  0.82909  0.44702  1.0000
  H   H710      1.0  0.37567  0.81793  0.44341  1.0000
  H   H711      1.0  0.35016  0.82822  0.55430  1.0000
  H   H712      1.0  0.44538  0.75863  0.52876  1.0000
  H   H713      1.0  0.34985  0.86795  0.56043  1.0000
  C   C442      1.0  0.33578  0.85462  0.49824  1.0000
  H   H714      1.0  0.36960  0.86166  0.55659  1.0000
  C   C443      1.0  0.46934  0.75220  0.51868  1.0000
  H   H715      1.0  0.37290  0.84264  0.50697  1.0000
  H   H716      1.0  0.32568  0.85722  0.51636  1.0000
  Fe  Fe98      1.0  0.32797  0.80049  0.45220  1.0000
  H   H717      1.0  0.42551  0.70437  0.35317  1.0000
  H   H718      1.0  0.43828  0.70071  0.38906  1.0000
  H   H719      1.0  0.44806  0.75527  0.34972  1.0000
  C   C444      1.0  0.23991  0.68485  0.48625  1.0000
  C   C445      1.0  0.23721  0.72205  0.53136  1.0000
  H   H720      1.0  0.44516  0.73734  0.42422  1.0000
  H   H721      1.0  0.39336  0.67304  0.51916  1.0000
  H   H722      1.0  0.25999  0.66539  0.46455  1.0000
  H   H723      1.0  0.24931  0.75008  0.35871  1.0000
  H   H724      1.0  0.24002  0.86713  0.47379  1.0000
  H   H725      1.0  0.27914  0.74754  0.34751  1.0000
  C   C446      1.0  0.25451  0.66260  0.49248  1.0000
  H   H726      1.0  0.24857  0.95471  0.65755  1.0000
  C   C447      1.0  0.23601  0.83155  0.46560  1.0000
  C   C448      1.0  0.28314  0.76061  0.33143  1.0000
  S   S191      1.0  0.45405  0.65995  0.47806  1.0000
  H   H727      1.0  0.43105  0.73614  0.33035  1.0000
  C   C449      1.0  0.25602  0.78946  0.97389  1.0000
  H   H728      1.0  0.40834  0.85781  0.82178  1.0000
  H   H729      1.0  0.25733  0.74220  0.93938  1.0000
  S   S192      1.0  0.29161  0.83064  0.98804  1.0000
  H   H730      1.0  0.47338  0.78759  0.76151  1.0000
  C   C450      1.0  0.25054  0.73773  0.96511  1.0000
  S   S193      1.0  0.24477  0.91357  0.91088  1.0000
  H   H731      1.0  0.44677  0.70612  0.99023  1.0000
  H   H732      1.0  0.43988  0.87908  0.86696  1.0000
  H   H733      1.0  0.45914  0.85279  0.84390  1.0000
  C   C451      1.0  0.25928  0.74554  0.99606  1.0000
  C   C452      1.0  0.27995  0.84613  0.99202  1.0000
  C   C453      1.0  0.44749  0.72018  0.99166  1.0000
  C   C454      1.0  0.24870  0.97805  0.93633  1.0000
  C   C455      1.0  0.26920  0.93992  0.97880  1.0000
  H   H734      1.0  0.27624  0.84728  0.93553  1.0000
  C   C456      1.0  0.26390  0.86401  0.96314  1.0000
  C   C457      1.0  0.26581  0.98044  0.92115  1.0000
  H   H735      1.0  0.26835  0.96874  0.91080  1.0000
  H   H736      1.0  0.25920  0.86852  0.93916  1.0000
  Fe  Fe99      1.0  0.47441  0.82731  0.87652  1.0000
  C   C458      1.0  0.27361  0.85201  0.96115  1.0000
  C   C459      1.0  0.45367  0.75024  0.96281  1.0000
  H   H737      1.0  0.24563  0.69465  0.98569  1.0000
  H   H738      1.0  0.26051  0.94418  0.96037  1.0000
  N   N47       1.0  0.47470  0.77262  0.80960  1.0000
  H   H739      1.0  0.40924  0.83089  0.85720  1.0000
  H   H740      1.0  0.43048  0.82900  0.86646  1.0000
  C   C460      1.0  0.45116  0.85745  0.82445  1.0000
  H   H741      1.0  0.26137  0.80112  0.95404  1.0000
  H   H742      1.0  0.45248  0.77839  0.78716  1.0000
  C   C461      1.0  0.45231  0.73186  0.96110  1.0000
  C   C462      1.0  0.48109  0.78949  0.83023  1.0000
  H   H743      1.0  0.45525  0.72667  0.93620  1.0000
  S   S194      1.0  0.45000  0.80582  0.67311  1.0000
  H   H744      1.0  0.45097  0.76071  0.84399  1.0000
  Fe  Fe100     1.0  0.44541  0.82289  0.93518  1.0000
  S   S195      1.0  0.44781  0.80510  0.89039  1.0000
  S   S196      1.0  0.41978  0.82996  0.94082  1.0000
  H   H745      1.0  0.27268  0.75598  0.99407  1.0000
  H   H746      1.0  0.26611  0.92495  0.97576  1.0000
  C   C463      1.0  0.26075  0.87050  0.99603  1.0000
  Fe  Fe101     1.0  0.46350  0.79443  0.92842  1.0000
  S   S197      1.0  0.46136  0.76486  0.92473  1.0000
  S   S198      1.0  0.47133  0.84619  0.91864  1.0000
  C   C464      1.0  0.47512  0.82839  0.77950  1.0000
  C   C465      1.0  0.46249  0.75733  0.83250  1.0000
  H   H747      1.0  0.26684  0.79115  0.99337  1.0000
  H   H748      1.0  0.42254  0.82596  0.82193  1.0000
  H   H749      1.0  0.23740  0.71830  0.67567  1.0000
  S   S199      1.0  0.45907  0.81037  0.97450  1.0000
  H   H750      1.0  0.46971  0.75425  0.85545  1.0000
  C   C466      1.0  0.46000  0.81508  0.71349  1.0000
  C   C467      1.0  0.44968  0.80965  0.74559  1.0000
  C   C468      1.0  0.45719  0.81623  0.77845  1.0000
  H   H751      1.0  0.43580  0.80024  0.74494  1.0000
  H   H752      1.0  0.44910  0.81189  0.80285  1.0000
  C   C469      1.0  0.40138  0.81964  0.97190  1.0000
  C   C470      1.0  0.42328  0.83407  0.84616  1.0000
  N   N48       1.0  0.43256  0.85396  0.83854  1.0000
  H   H753      1.0  0.42909  0.87520  0.80540  1.0000
  H   H754      1.0  0.45867  0.87231  0.81848  1.0000
  C   C471      1.0  0.43339  0.86399  0.87170  1.0000
  H   H755      1.0  0.45115  0.85003  0.79951  1.0000
  H   H756      1.0  0.42155  0.85287  0.78661  1.0000
  H   H757      1.0  0.44133  0.85983  0.89204  1.0000
  H   H758      1.0  0.38591  0.83534  0.95150  1.0000
  C   C472      1.0  0.38619  0.82504  0.97101  1.0000
  H   H759      1.0  0.41963  0.86104  0.88399  1.0000
  H   H760      1.0  0.46966  0.79373  0.83881  1.0000
  C   C473      1.0  0.42243  0.86025  0.81190  1.0000
  C   C474      1.0  0.24036  0.68091  0.97368  1.0000
  H   H761      1.0  0.25406  0.77655  0.95983  1.0000
  C   C475      1.0  0.37128  0.81719  0.99512  1.0000
  C   C476      1.0  0.46480  0.77561  0.77861  1.0000
  H   H762      1.0  0.45672  0.74451  0.81757  1.0000
  H   H763      1.0  0.24602  0.81840  0.98836  1.0000
  H   H764      1.0  0.28353  0.94719  0.96968  1.0000
  H   H765      1.0  0.35968  0.82144  0.99400  1.0000
  H   H766      1.0  0.23660  0.87671  0.75274  1.0000
  C   C477      1.0  0.47789  0.82731  0.71460  1.0000
  N   N49       1.0  0.23903  0.78914  0.99169  1.0000
  H   H767      1.0  0.46031  0.76343  0.76163  1.0000
  H   H768      1.0  0.25201  0.67861  0.96019  1.0000
  C   C478      1.0  0.44957  0.75674  0.99498  1.0000
  H   H769      1.0  0.45044  0.77084  0.99656  1.0000
  C   C479      1.0  0.23317  0.72412  0.96721  1.0000
  Fe  Fe102     1.0  0.23322  0.89223  0.95497  1.0000
  H   H770      1.0  0.61445  0.25730  0.06059  1.0000
  Fe  Fe103     1.0  0.50238  0.19605  0.04802  1.0000
  S   S200      1.0  0.50261  0.21041  0.09948  1.0000
  H   H771      1.0  0.58217  0.23708  0.05138  1.0000
  H   H772      1.0  0.59443  0.11921  0.03952  1.0000
  H   H773      1.0  0.54771  0.19680  0.30863  1.0000
  H   H774      1.0  0.53337  0.32384  0.02123  1.0000
  H   H775      1.0  0.59006  0.13350  0.00543  1.0000
  H   H776      1.0  0.64324  0.13152  0.01314  1.0000
  H   H777      1.0  0.49333  0.22223  0.25356  1.0000
  H   H778      1.0  0.50080  0.24563  0.01286  1.0000
  C   C480      1.0  0.54465  0.18401  0.32536  1.0000
  C   C481      1.0  0.73044  0.10910  0.22437  1.0000
  H   H779      1.0  0.53467  0.17161  0.04184  1.0000
  S   S201      1.0  0.52793  0.20377  0.01196  1.0000
  C   C482      1.0  0.68966  0.06097  0.29869  1.0000
  N   N50       1.0  0.60585  0.23099  0.03644  1.0000
  H   H780      1.0  0.70179  0.99314  0.04421  1.0000
  H   H781      1.0  0.51157  0.16494  0.30115  1.0000
  H   H782      1.0  0.55899  0.15923  0.02777  1.0000
  C   C483      1.0  0.68598  0.27216  0.02474  1.0000
  H   H783      1.0  0.70779  0.29411  0.04781  1.0000
  C   C484      1.0  0.69601  0.01779  0.05340  1.0000
  H   H784      1.0  0.67689  0.99747  0.17667  1.0000
  C   C485      1.0  0.58708  0.22537  0.05121  1.0000
  H   H785      1.0  0.61046  0.20820  0.06225  1.0000
  C   C486      1.0  0.54411  0.19347  0.00201  1.0000
  N   N51       1.0  0.61789  0.13566  0.00790  1.0000
  H   H786      1.0  0.54807  0.30211  0.00445  1.0000
  H   H787      1.0  0.61807  0.23935  0.08667  1.0000
  H   H788      1.0  0.62583  0.11860  0.04484  1.0000
  C   C487      1.0  0.54475  0.17807  0.02094  1.0000
  H   H789      1.0  0.67530  0.05275  0.29343  1.0000
  H   H790      1.0  0.70075  0.03280  0.31347  1.0000
  C   C488      1.0  0.70351  0.28564  0.02498  1.0000
  C   C489      1.0  0.55857  0.17110  0.01293  1.0000
  H   H791      1.0  0.69834  0.05912  0.27648  1.0000
  H   H792      1.0  0.66721  0.17761  0.00019  1.0000
  H   H793      1.0  0.63248  0.24946  0.04841  1.0000
  H   H794      1.0  0.54475  0.17289  0.30745  1.0000
  C   C490      1.0  0.70611  0.11184  0.26199  1.0000
  C   C491      1.0  0.71328  0.11038  0.22798  1.0000
  H   H795      1.0  0.62556  0.21856  0.02501  1.0000
  H   H796      1.0  0.66737  0.99478  0.13344  1.0000
  C   C492      1.0  0.62839  0.12386  0.01670  1.0000
  C   C493      1.0  0.59828  0.12486  0.01184  1.0000
  C   C494      1.0  0.62255  0.15116  0.03220  1.0000
  H   H797      1.0  0.58591  0.21968  0.07894  1.0000
  Fe  Fe104     1.0  0.72720  0.10617  0.12827  1.0000
  C   C495      1.0  0.51248  0.17630  0.31919  1.0000
  C   C496      1.0  0.69123  0.99862  0.04955  1.0000
  C   C497      1.0  0.48751  0.26221  0.03765  1.0000
  C   C498      1.0  0.48560  0.28744  0.00049  1.0000
  C   C499      1.0  0.49632  0.25710  0.00944  1.0000
  H   H798      1.0  0.65387  0.01885  0.06721  1.0000
  C   C500      1.0  0.68378  0.14488  0.02834  1.0000
  H   H799      1.0  0.72322  0.06494  0.31698  1.0000
  Fe  Fe105     1.0  0.70533  0.11775  0.07231  1.0000
  S   S202      1.0  0.68675  0.13422  0.06845  1.0000
  Fe  Fe106     1.0  0.70831  0.07953  0.06895  1.0000
  S   S203      1.0  0.68773  0.04962  0.06347  1.0000
  H   H800      1.0  0.69284  0.11287  0.26446  1.0000
  S   S204      1.0  0.69839  0.09385  0.11181  1.0000
  H   H801      1.0  0.70558  0.11035  0.20457  1.0000
  C   C501      1.0  0.68262  0.02536  0.05953  1.0000
  C   C502      1.0  0.67636  0.15875  0.02992  1.0000
  C   C503      1.0  0.66439  0.01325  0.06242  1.0000
  S   S205      1.0  0.71413  0.10332  0.02842  1.0000
  H   H802      1.0  0.71007  0.02676  0.05101  1.0000
  H   H803      1.0  0.67351  0.16332  0.05555  1.0000
  C   C504      1.0  0.71593  0.11198  0.29275  1.0000
  C   C505      1.0  0.61822  0.24489  0.05909  1.0000
  H   H804      1.0  0.61934  0.14627  0.06045  1.0000
  H   H805      1.0  0.67685  0.27033  0.04756  1.0000
  H   H806      1.0  0.51461  0.18888  0.30230  1.0000
  H   H807      1.0  0.61494  0.16039  0.02606  1.0000
  H   H808      1.0  0.63725  0.15960  0.03004  1.0000
  C   C506      1.0  0.61136  0.21478  0.03538  1.0000
  H   H809      1.0  0.69101  0.07569  0.29764  1.0000
  H   H810      1.0  0.60272  0.25114  0.99973  1.0000
  H   H811      1.0  0.60265  0.20424  0.01775  1.0000
  C   C507      1.0  0.65962  0.99404  0.05908  1.0000
  H   H812      1.0  0.62501  0.11184  0.99931  1.0000
  C   C508      1.0  0.48714  0.20752  0.25130  1.0000
  H   H813      1.0  0.48944  0.20883  0.19366  1.0000
  C   C509      1.0  0.67265  0.16676  0.99859  1.0000
  H   H814      1.0  0.57752  0.21451  0.03527  1.0000
  C   C510      1.0  0.60679  0.23889  0.00001  1.0000
  C   C511      1.0  0.48496  0.19996  0.21723  1.0000
  S   S206      1.0  0.48524  0.20650  0.32458  1.0000
  H   H815      1.0  0.71654  0.08155  0.33962  1.0000
  S   S207      1.0  0.61418  0.17969  0.57507  1.0000
  Fe  Fe107     1.0  0.61288  0.20699  0.55798  1.0000
  S   S208      1.0  0.58933  0.21589  0.54246  1.0000
  S   S209      1.0  0.62874  0.22109  0.60486  1.0000
  Fe  Fe108     1.0  0.49311  0.18123  0.44542  1.0000
  H   H816      1.0  0.52319  0.15049  0.35031  1.0000
  S   S210      1.0  0.51834  0.17411  0.45568  1.0000
  H   H817      1.0  0.61459  0.10359  0.61533  1.0000
  H   H818      1.0  0.61030  0.12164  0.56309  1.0000
  H   H819      1.0  0.49673  0.23921  0.47560  1.0000
  C   C512      1.0  0.56960  0.20388  0.51858  1.0000
  C   C513      1.0  0.55627  0.21179  0.51428  1.0000
  C   C514      1.0  0.54047  0.20287  0.49538  1.0000
  C   C515      1.0  0.53783  0.18591  0.48035  1.0000
  C   C516      1.0  0.55124  0.17808  0.48437  1.0000
  C   C517      1.0  0.56700  0.18696  0.50342  1.0000
  H   H820      1.0  0.55808  0.22484  0.52595  1.0000
  H   H821      1.0  0.53031  0.20908  0.49262  1.0000
  H   H822      1.0  0.54936  0.16497  0.47293  1.0000
  H   H823      1.0  0.57710  0.18069  0.50640  1.0000
  S   S211      1.0  0.63749  0.21423  0.52134  1.0000
  H   H824      1.0  0.63863  0.26887  0.56295  1.0000
  H   H825      1.0  0.52974  0.20733  0.35259  1.0000
  N   N52       1.0  0.69502  0.05577  0.33353  1.0000
  Fe  Fe109     1.0  0.64016  0.18801  0.54196  1.0000
  H   H826      1.0  0.63869  0.11388  0.60786  1.0000
  H   H827      1.0  0.68773  0.05613  0.38885  1.0000
  H   H828      1.0  0.64044  0.16190  0.60904  1.0000
  N   N53       1.0  0.52704  0.17921  0.34486  1.0000
  C   C518      1.0  0.62677  0.11564  0.62151  1.0000
  N   N54       1.0  0.62480  0.13304  0.60988  1.0000
  C   C519      1.0  0.64116  0.14862  0.61884  1.0000
  H   H829      1.0  0.68515  0.07418  0.36152  1.0000
  Fe  Fe110     1.0  0.63212  0.19446  0.61909  1.0000
  H   H830      1.0  0.69656  0.03190  0.36071  1.0000
  C   C520      1.0  0.68374  0.05944  0.36210  1.0000
  C   C521      1.0  0.52752  0.19435  0.36815  1.0000
  H   H831      1.0  0.65364  0.14736  0.60684  1.0000
  H   H832      1.0  0.53408  0.16410  0.38705  1.0000
  C   C522      1.0  0.62256  0.13313  0.57096  1.0000
  H   H833      1.0  0.62119  0.14610  0.56103  1.0000
  H   H834      1.0  0.51454  0.19097  0.38359  1.0000
  H   H835      1.0  0.59607  0.12342  0.62185  1.0000
  C   C523      1.0  0.62842  0.25925  0.54592  1.0000
  S   S212      1.0  0.64476  0.16855  0.50220  1.0000
  H   H836      1.0  0.61840  0.23873  0.48858  1.0000
  H   H837      1.0  0.61818  0.25689  0.45852  1.0000
  H   H838      1.0  0.63026  0.24585  0.54838  1.0000
  C   C524      1.0  0.61696  0.25243  0.48704  1.0000
  H   H839      1.0  0.63445  0.13191  0.55623  1.0000
  S   S213      1.0  0.51178  0.30357  0.50550  1.0000
  H   H840      1.0  0.63815  0.29416  0.52201  1.0000
  C   C525      1.0  0.49663  0.28100  0.50040  1.0000
  C   C526      1.0  0.50331  0.26757  0.48899  1.0000
  C   C527      1.0  0.64900  0.26813  0.49474  1.0000
  H   H841      1.0  0.51774  0.27109  0.48437  1.0000
  H   H842      1.0  0.61431  0.28247  0.51626  1.0000
  H   H843      1.0  0.65138  0.25490  0.49639  1.0000
  C   C528      1.0  0.71205  0.29137  0.49983  1.0000
  N   N55       1.0  0.63061  0.26590  0.50839  1.0000
  H   H844      1.0  0.62965  0.28920  0.47807  1.0000
  H   H845      1.0  0.65965  0.27805  0.51054  1.0000
  C   C529      1.0  0.62807  0.28375  0.50604  1.0000
  S   S214      1.0  0.67378  0.25595  0.56692  1.0000
  C   C530      1.0  0.70043  0.28348  0.52948  1.0000
  H   H846      1.0  0.60291  0.25024  0.49692  1.0000
  H   H847      1.0  0.65127  0.27313  0.46647  1.0000
  H   H848      1.0  0.72096  0.30559  0.49983  1.0000
  Fe  Fe111     1.0  0.65337  0.22680  0.56861  1.0000
  H   H849      1.0  0.64277  0.14961  0.64814  1.0000
  C   C531      1.0  0.66326  0.14732  0.47692  1.0000
  S   S215      1.0  0.65817  0.20120  0.58649  1.0000
  Fe  Fe112     1.0  0.71709  0.11054  0.38956  1.0000
  Fe  Fe113     1.0  0.71011  0.11342  0.46962  1.0000
  H   H850      1.0  0.53832  0.19696  0.38800  1.0000
  S   S216      1.0  0.69804  0.12415  0.51603  1.0000
  Fe  Fe114     1.0  0.71922  0.08074  0.44113  1.0000
  S   S217      1.0  0.71365  0.04939  0.43700  1.0000
  S   S218      1.0  0.70578  0.11285  0.33505  1.0000
  S   S219      1.0  0.69713  0.09174  0.43014  1.0000
  Fe  Fe115     1.0  0.50146  0.32228  0.53707  1.0000
  H   H851      1.0  0.67498  0.03807  0.46087  1.0000
  C   C532      1.0  0.66095  0.15775  0.50530  1.0000
  H   H852      1.0  0.65575  0.14671  0.45300  1.0000
  S   S220      1.0  0.49424  0.20870  0.42338  1.0000
  C   C533      1.0  0.69473  0.02787  0.43868  1.0000
  C   C534      1.0  0.69734  0.01192  0.42683  1.0000
  H   H853      1.0  0.71063  0.01297  0.41678  1.0000
  C   C535      1.0  0.67737  0.02610  0.45150  1.0000
  C   C536      1.0  0.68431  0.13759  0.51057  1.0000
  C   C537      1.0  0.67509  0.13748  0.47931  1.0000
  C   C538      1.0  0.66313  0.00870  0.45321  1.0000
  S   S221      1.0  0.72667  0.28990  0.43272  1.0000
  C   C539      1.0  0.67076  0.15849  0.53600  1.0000
  C   C540      1.0  0.68212  0.14816  0.53889  1.0000
  H   H854      1.0  0.67663  0.12938  0.45735  1.0000
  H   H855      1.0  0.66937  0.16681  0.55762  1.0000
  H   H856      1.0  0.68919  0.14830  0.56319  1.0000
  C   C541      1.0  0.68858  0.25456  0.50013  1.0000
  H   H857      1.0  0.60709  0.14792  0.62067  1.0000
  C   C542      1.0  0.71429  0.06669  0.33879  1.0000
  H   H858      1.0  0.64994  0.00762  0.46388  1.0000
  H   H859      1.0  0.70004  0.25423  0.44763  1.0000
  C   C543      1.0  0.71197  0.28085  0.47020  1.0000
  C   C544      1.0  0.68866  0.26506  0.52974  1.0000
  C   C545      1.0  0.70018  0.26245  0.47047  1.0000
  H   H860      1.0  0.62868  0.11518  0.65069  1.0000
  H   H861      1.0  0.70048  0.29171  0.55225  1.0000
  H   H862      1.0  0.67957  0.24036  0.50000  1.0000
  S   S222      1.0  0.73119  0.10129  0.48422  1.0000
  C   C546      1.0  0.49144  0.24953  0.48395  1.0000
  H   H863      1.0  0.61463  0.25710  0.55718  1.0000
  H   H864      1.0  0.55592  0.18628  0.34403  1.0000
  C   C547      1.0  0.69245  0.03605  0.33470  1.0000
  H   H865      1.0  0.51034  0.15821  0.38194  1.0000
  C   C548      1.0  0.60877  0.13477  0.62828  1.0000
  C   C549      1.0  0.68299  0.99460  0.42774  1.0000
  C   C550      1.0  0.52354  0.16224  0.36683  1.0000
  H   H866      1.0  0.61005  0.13478  0.65770  1.0000
  H   H867      1.0  0.72441  0.15892  0.48846  1.0000
  H   H868      1.0  0.66913  0.05117  0.35950  1.0000
  H   H869      1.0  0.72316  0.15900  0.55451  1.0000
  H   H870      1.0  0.71899  0.06277  0.36433  1.0000
  S   S223      1.0  0.72775  0.13325  0.42809  1.0000
  H   H871      1.0  0.49902  0.17281  0.33303  1.0000
  C   C551      1.0  0.48958  0.26883  0.40022  1.0000
  H   H872      1.0  0.49634  0.26316  0.33193  1.0000
  H   H873      1.0  0.49516  0.24342  0.35896  1.0000
  H   H874      1.0  0.49841  0.26204  0.41219  1.0000
  H   H875      1.0  0.49860  0.28175  0.38643  1.0000
  C   C552      1.0  0.48695  0.25108  0.34752  1.0000
  H   H876      1.0  0.67801  0.02732  0.33141  1.0000
  H   H877      1.0  0.62179  0.16557  0.74612  1.0000
  C   C553      1.0  0.54750  0.30606  0.97600  1.0000
  S   S224      1.0  0.62726  0.17912  0.89882  1.0000
  Fe  Fe116     1.0  0.61526  0.18837  0.94645  1.0000
  C   C554      1.0  0.55731  0.20171  0.97495  1.0000
  C   C555      1.0  0.63707  0.21006  0.71629  1.0000
  C   C556      1.0  0.70952  0.27729  0.96579  1.0000
  S   S225      1.0  0.62313  0.21748  0.92553  1.0000
  H   H878      1.0  0.53380  0.32019  0.92304  1.0000
  H   H879      1.0  0.64035  0.21837  0.69189  1.0000
  C   C557      1.0  0.62855  0.18886  0.78011  1.0000
  C   C558      1.0  0.63091  0.19091  0.71479  1.0000
  H   H880      1.0  0.67237  0.21653  0.78771  1.0000
  S   S226      1.0  0.63866  0.21963  0.82252  1.0000
  H   H881      1.0  0.65647  0.19465  0.83768  1.0000
  C   C559      1.0  0.62672  0.18038  0.74692  1.0000
  H   H882      1.0  0.58102  0.20118  0.94586  1.0000
  C   C560      1.0  0.63906  0.21852  0.74944  1.0000
  C   C561      1.0  0.63487  0.20803  0.78156  1.0000
  C   C562      1.0  0.68023  0.26113  0.99514  1.0000
  C   C563      1.0  0.57187  0.17952  0.98610  1.0000
  H   H883      1.0  0.62494  0.18058  0.80450  1.0000
  H   H884      1.0  0.64390  0.23335  0.75017  1.0000
  H   H885      1.0  0.69190  0.21438  0.76598  1.0000
  Fe  Fe117     1.0  0.63719  0.20873  0.87999  1.0000
  H   H886      1.0  0.71851  0.27940  0.94265  1.0000
  C   C564      1.0  0.69214  0.26362  0.96579  1.0000
  S   S227      1.0  0.62871  0.17963  0.67358  1.0000
  Fe  Fe118     1.0  0.49326  0.32060  0.92642  1.0000
  H   H887      1.0  0.70427  0.19127  0.78827  1.0000
  Fe  Fe119     1.0  0.64895  0.22263  0.95466  1.0000
  H   H888      1.0  0.68781  0.25533  0.94277  1.0000
  H   H889      1.0  0.68649  0.21969  0.84455  1.0000
  S   S228      1.0  0.64024  0.19396  0.97815  1.0000
  S   S229      1.0  0.49770  0.29356  0.93022  1.0000
  H   H890      1.0  0.50604  0.26265  0.95482  1.0000
  C   C565      1.0  0.69269  0.20941  0.83738  1.0000
  H   H891      1.0  0.55685  0.21355  0.96000  1.0000
  C   C566      1.0  0.57110  0.19479  0.96702  1.0000
  H   H892      1.0  0.61937  0.13154  0.95169  1.0000
  H   H893      1.0  0.66981  0.19713  0.76104  1.0000
  H   H894      1.0  0.69411  0.20226  0.86256  1.0000
  S   S230      1.0  0.67012  0.16952  0.92570  1.0000
  H   H895      1.0  0.62078  0.24324  0.98806  1.0000
  C   C567      1.0  0.49943  0.26688  0.97666  1.0000
  H   H896      1.0  0.65491  0.17556  0.81066  1.0000
  H   H897      1.0  0.68265  0.17357  0.78208  1.0000
  H   H898      1.0  0.68648  0.14241  0.93816  1.0000
  S   S231      1.0  0.66371  0.21643  0.90789  1.0000
  H   H899      1.0  0.70652  0.21718  0.82600  1.0000
  N   N56       1.0  0.68153  0.19629  0.81194  1.0000
  Fe  Fe120     1.0  0.65294  0.18729  0.92925  1.0000
  C   C568      1.0  0.66376  0.18555  0.82908  1.0000
  C   C569      1.0  0.67603  0.16075  0.96539  1.0000
  C   C570      1.0  0.69077  0.18367  0.80123  1.0000
  H   H900      1.0  0.66523  0.17767  0.85310  1.0000
  C   C571      1.0  0.68373  0.14709  0.96374  1.0000
  C   C572      1.0  0.67884  0.20649  0.78023  1.0000
  H   H901      1.0  0.69290  0.17577  0.82472  1.0000
  C   C573      1.0  0.49399  0.28199  0.97201  1.0000
  H   H902      1.0  0.49592  0.31183  0.74386  1.0000
  H   H903      1.0  0.53467  0.29622  0.96573  1.0000
  H   H904      1.0  0.59770  0.22878  0.98212  1.0000
  H   H905      1.0  0.63688  0.15143  0.96701  1.0000
  C   C574      1.0  0.62230  0.14282  0.97078  1.0000
  H   H906      1.0  0.49327  0.32581  0.80145  1.0000
  S   S232      1.0  0.58959  0.17102  0.97778  1.0000
  H   H907      1.0  0.55890  0.30400  0.96109  1.0000
  S   S233      1.0  0.49437  0.32278  0.67120  1.0000
  H   H908      1.0  0.61434  0.15147  0.96303  1.0000
  H   H909      1.0  0.51971  0.31794  0.98297  1.0000
  H   H910      1.0  0.69334  0.12852  0.99362  1.0000
  H   H911      1.0  0.59421  0.11314  0.99365  1.0000
  C   C575      1.0  0.49383  0.32481  0.74393  1.0000
  C   C576      1.0  0.68766  0.13922  0.99511  1.0000
  S   S234      1.0  0.65788  0.24489  0.99529  1.0000
  N   N57       1.0  0.54817  0.32519  0.97178  1.0000
  C   C577      1.0  0.71526  0.28838  0.99529  1.0000
  H   H912      1.0  0.60269  0.43553  0.16920  1.0000
  Fe  Fe121     1.0  0.63353  0.48855  0.11598  1.0000
  Fe  Fe122     1.0  0.61165  0.46217  0.05966  1.0000
  S   S235      1.0  0.62939  0.45934  0.10377  1.0000
  C   C578      1.0  0.55255  0.41839  0.02416  1.0000
  H   H913      1.0  0.58640  0.45821  0.24052  1.0000
  H   H914      1.0  0.59549  0.47050  0.14460  1.0000
  C   C579      1.0  0.60224  0.44604  0.18834  1.0000
  C   C580      1.0  0.56963  0.43242  0.19306  1.0000
  N   N58       1.0  0.66098  0.62939  0.01289  1.0000
  C   C581      1.0  0.58488  0.46313  0.21317  1.0000
  S   S236      1.0  0.63448  0.47233  0.01858  1.0000
  H   H915      1.0  0.57127  0.46003  0.14745  1.0000
  H   H916      1.0  0.57204  0.46594  0.21289  1.0000
  N   N59       1.0  0.58519  0.44972  0.18626  1.0000
  H   H917      1.0  0.57016  0.42628  0.21985  1.0000
  H   H918      1.0  0.55653  0.43470  0.19178  1.0000
  C   C582      1.0  0.57156  0.42535  0.02597  1.0000
  H   H919      1.0  0.54458  0.42435  0.03994  1.0000
  H   H920      1.0  0.72431  0.55304  0.02258  1.0000
  C   C583      1.0  0.58406  0.45729  0.15037  1.0000
  C   C584      1.0  0.64342  0.48131  0.28046  1.0000
  S   S237      1.0  0.58193  0.44410  0.05375  1.0000
  H   H921      1.0  0.65634  0.62224  0.06870  1.0000
  H   H922      1.0  0.58460  0.44768  0.12936  1.0000
  H   H923      1.0  0.56940  0.42207  0.17298  1.0000
  C   C585      1.0  0.71132  0.54112  0.02514  1.0000
  H   H924      1.0  0.60409  0.44116  0.21552  1.0000
  H   H925      1.0  0.61418  0.45864  0.18174  1.0000
  S   S238      1.0  0.61429  0.49076  0.07450  1.0000
  H   H926      1.0  0.70066  0.54638  0.03439  1.0000
  H   H927      1.0  0.59614  0.47651  0.20814  1.0000
  H   H928      1.0  0.66262  0.60277  0.02291  1.0000
  S   S239      1.0  0.65791  0.50116  0.07887  1.0000
  C   C586      1.0  0.63515  0.49203  0.21242  1.0000
  C   C587      1.0  0.58165  0.41748  0.00540  1.0000
  H   H929      1.0  0.70388  0.41694  0.01088  1.0000
  C   C588      1.0  0.63330  0.49274  0.27748  1.0000
  H   H930      1.0  0.68598  0.57391  0.04976  1.0000
  C   C589      1.0  0.64523  0.48056  0.21538  1.0000
  Fe  Fe123     1.0  0.63829  0.50077  0.03648  1.0000
  S   S240      1.0  0.62881  0.49846  0.17056  1.0000
  H   H931      1.0  0.62871  0.49756  0.30124  1.0000
  H   H932      1.0  0.62149  0.50702  0.24166  1.0000
  C   C590      1.0  0.62925  0.49810  0.24363  1.0000
  H   H933      1.0  0.71267  0.53161  0.04651  1.0000
  H   H934      1.0  0.59627  0.42261  0.00658  1.0000
  C   C591      1.0  0.67900  0.56903  0.02552  1.0000
  S   S241      1.0  0.67685  0.46323  0.06047  1.0000
  H   H935      1.0  0.63660  0.62195  0.04559  1.0000
  C   C592      1.0  0.69063  0.46939  0.02141  1.0000
  H   H936      1.0  0.71506  0.47197  0.04861  1.0000
  C   C593      1.0  0.68064  0.63915  0.01644  1.0000
  Fe  Fe124     1.0  0.65255  0.47202  0.06367  1.0000
  C   C594      1.0  0.54368  0.40372  0.00206  1.0000
  C   C595      1.0  0.70929  0.47296  0.02317  1.0000
  C   C596      1.0  0.64934  0.47525  0.24924  1.0000
  H   H937      1.0  0.65723  0.46646  0.25123  1.0000
  H   H938      1.0  0.64994  0.47584  0.19162  1.0000
  C   C597      1.0  0.66609  0.55111  0.02505  1.0000
  H   H939      1.0  0.66318  0.54231  0.04881  1.0000
  H   H940      1.0  0.57205  0.46998  0.00258  1.0000
  H   H941      1.0  0.65376  0.64346  0.05570  1.0000
  S   S242      1.0  0.64899  0.47424  0.32243  1.0000
  H   H942      1.0  0.52906  0.39849  0.00101  1.0000
  C   C598      1.0  0.65766  0.61031  0.00260  1.0000
  H   H943      1.0  0.68377  0.65366  0.02394  1.0000
  H   H944      1.0  0.68636  0.63225  0.03658  1.0000
  C   C599      1.0  0.65148  0.62924  0.04726  1.0000
  H   H945      1.0  0.56692  0.33520  0.01353  1.0000
  H   H946      1.0  0.72787  0.40288  0.00998  1.0000
  H   H947      1.0  0.59587  0.47802  0.00932  1.0000
  H   H948      1.0  0.67804  0.52101  0.00385  1.0000
  H   H949      1.0  0.68985  0.50621  0.01681  1.0000
  H   H950      1.0  0.73201  0.43052  0.04424  1.0000
  H   H951      1.0  0.64300  0.60249  0.99935  1.0000
  H   H952      1.0  0.72247  0.51475  0.00015  1.0000
  S   S243      1.0  0.69964  0.60285  0.99705  1.0000
  C   C600      1.0  0.69822  0.50040  0.47453  1.0000
  H   H953      1.0  0.53375  0.39233  0.63973  1.0000
  S   S244      1.0  0.66024  0.50093  0.41140  1.0000
  S   S245      1.0  0.49499  0.34559  0.51191  1.0000
  Fe  Fe125     1.0  0.51160  0.36270  0.55536  1.0000
  S   S246      1.0  0.53569  0.38985  0.55878  1.0000
  Fe  Fe126     1.0  0.49447  0.33241  0.61343  1.0000
  Fe  Fe127     1.0  0.61030  0.46933  0.43665  1.0000
  S   S247      1.0  0.57999  0.45286  0.44429  1.0000
  S   S248      1.0  0.63121  0.45817  0.41713  1.0000
  C   C601      1.0  0.54841  0.40604  0.52495  1.0000
  C   C602      1.0  0.54113  0.40805  0.49227  1.0000
  C   C603      1.0  0.55111  0.42222  0.46766  1.0000
  C   C604      1.0  0.56867  0.43426  0.47493  1.0000
  C   C605      1.0  0.57615  0.43194  0.50722  1.0000
  C   C606      1.0  0.56598  0.41807  0.53222  1.0000
  H   H954      1.0  0.52759  0.39904  0.48636  1.0000
  H   H955      1.0  0.54513  0.42393  0.44290  1.0000
  H   H956      1.0  0.58957  0.44113  0.51335  1.0000
  H   H957      1.0  0.57174  0.41674  0.55744  1.0000
  S   S249      1.0  0.62853  0.48747  0.47649  1.0000
  C   C607      1.0  0.70571  0.55734  0.48626  1.0000
  S   S250      1.0  0.61769  0.49138  0.39288  1.0000
  H   H958      1.0  0.68764  0.47785  0.36777  1.0000
  H   H959      1.0  0.56704  0.51503  0.52239  1.0000
  S   S251      1.0  0.51931  0.33962  0.57779  1.0000
  H   H960      1.0  0.57591  0.48761  0.52893  1.0000
  H   H961      1.0  0.72853  0.59263  0.48268  1.0000
  Fe  Fe128     1.0  0.63997  0.48149  0.37629  1.0000
  C   C608      1.0  0.57177  0.51638  0.49400  1.0000
  H   H962      1.0  0.55993  0.50871  0.47802  1.0000
  C   C609      1.0  0.72762  0.50564  0.50021  1.0000
  H   H963      1.0  0.59118  0.48387  0.49664  1.0000
  H   H964      1.0  0.59845  0.51913  0.53901  1.0000
  C   C610      1.0  0.58035  0.48972  0.50038  1.0000
  H   H965      1.0  0.56877  0.48124  0.48455  1.0000
  C   C611      1.0  0.57266  0.65874  0.53698  1.0000
  N   N60       1.0  0.58668  0.50935  0.48894  1.0000
  H   H966      1.0  0.57614  0.53116  0.48565  1.0000
  C   C612      1.0  0.72272  0.58693  0.50952  1.0000
  H   H967      1.0  0.61363  0.51488  0.50714  1.0000
  H   H968      1.0  0.60770  0.53475  0.50141  1.0000
  C   C613      1.0  0.59242  0.51132  0.45095  1.0000
  C   C614      1.0  0.60222  0.51998  0.51018  1.0000
  S   S252      1.0  0.64010  0.53860  0.43886  1.0000
  H   H969      1.0  0.60411  0.50685  0.44674  1.0000
  Fe  Fe129     1.0  0.63725  0.50884  0.43201  1.0000
  H   H970      1.0  0.59694  0.52588  0.44100  1.0000
  H   H971      1.0  0.58139  0.50285  0.43398  1.0000
  S   S253      1.0  0.66871  0.46823  0.48553  1.0000
  H   H972      1.0  0.66171  0.43982  0.43092  1.0000
  H   H973      1.0  0.70913  0.45399  0.39509  1.0000
  H   H974      1.0  0.72171  0.52500  0.46550  1.0000
  C   C615      1.0  0.70263  0.47678  0.51185  1.0000
  H   H975      1.0  0.69735  0.46327  0.52471  1.0000
  N   N61       1.0  0.68116  0.44996  0.38731  1.0000
  C   C616      1.0  0.71636  0.51165  0.47889  1.0000
  H   H976      1.0  0.65420  0.44372  0.36849  1.0000
  H   H977      1.0  0.67308  0.42455  0.41822  1.0000
  C   C617      1.0  0.72073  0.48812  0.51654  1.0000
  C   C618      1.0  0.55820  0.37662  0.62837  1.0000
  H   H978      1.0  0.71122  0.56162  0.45865  1.0000
  C   C619      1.0  0.69852  0.44863  0.37504  1.0000
  S   S254      1.0  0.48737  0.35616  0.59346  1.0000
  C   C620      1.0  0.69129  0.48292  0.49104  1.0000
  S   S255      1.0  0.72740  0.62345  0.58525  1.0000
  H   H979      1.0  0.68471  0.44476  0.44258  1.0000
  C   C621      1.0  0.52995  0.37808  0.65106  1.0000
  H   H980      1.0  0.69706  0.43415  0.37031  1.0000
  Fe  Fe130     1.0  0.65018  0.47823  0.45305  1.0000
  C   C622      1.0  0.68376  0.46939  0.39298  1.0000
  C   C623      1.0  0.67492  0.43924  0.42115  1.0000
  H   H981      1.0  0.67106  0.47066  0.40352  1.0000
  S   S256      1.0  0.69501  0.64060  0.59185  1.0000
  H   H982      1.0  0.70847  0.54511  0.55278  1.0000
  Fe  Fe131     1.0  0.69997  0.61792  0.56212  1.0000
  S   S257      1.0  0.68115  0.58789  0.56541  1.0000
  H   H983      1.0  0.52205  0.36877  0.63063  1.0000
  S   S258      1.0  0.71094  0.63524  0.51236  1.0000
  H   H984      1.0  0.65849  0.57756  0.44351  1.0000
  H   H985      1.0  0.69836  0.56229  0.55431  1.0000
  C   C624      1.0  0.65381  0.54412  0.50654  1.0000
  H   H986      1.0  0.69304  0.56037  0.48896  1.0000
  H   H987      1.0  0.64814  0.52937  0.51069  1.0000
  C   C625      1.0  0.66231  0.55534  0.53454  1.0000
  C   C626      1.0  0.66997  0.57455  0.52959  1.0000
  C   C627      1.0  0.66882  0.58246  0.49642  1.0000
  H   H988      1.0  0.66309  0.54908  0.56013  1.0000
  H   H989      1.0  0.68965  0.50525  0.45838  1.0000
  H   H990      1.0  0.69433  0.47555  0.41271  1.0000
  C   C628      1.0  0.65973  0.57128  0.46880  1.0000
  H   H991      1.0  0.56252  0.39100  0.61747  1.0000
  C   C629      1.0  0.65226  0.55207  0.47363  1.0000
  Fe  Fe132     1.0  0.72343  0.64769  0.61045  1.0000
  H   H992      1.0  0.71018  0.59012  0.51372  1.0000
  H   H993      1.0  0.67459  0.59722  0.49225  1.0000
  N   N62       1.0  0.71889  0.56695  0.51299  1.0000
  H   H994      1.0  0.53295  0.34481  0.65274  1.0000
  H   H995      1.0  0.72927  0.48338  0.53309  1.0000
  H   H996      1.0  0.70183  0.54217  0.48915  1.0000
  H   H997      1.0  0.55126  0.36766  0.60653  1.0000
  C   C630      1.0  0.71131  0.56011  0.54908  1.0000
  H   H998      1.0  0.55858  0.65483  0.54825  1.0000
  N   N63       1.0  0.54609  0.37376  0.66028  1.0000
  H   H999      1.0  0.66496  0.42802  0.35520  1.0000
  H   H1000     1.0  0.70364  0.45674  0.34972  1.0000
  H   H1001     1.0  0.57279  0.64818  0.51770  1.0000
  C   C631      1.0  0.66742  0.44269  0.36016  1.0000
  H   H1002     1.0  0.57056  0.37354  0.63418  1.0000
  H   H1003     1.0  0.72068  0.56734  0.57000  1.0000
  H   H1004     1.0  0.67159  0.45059  0.33435  1.0000
  H   H1005     1.0  0.58152  0.65807  0.55917  1.0000
  Fe  Fe133     1.0  0.70790  0.65860  0.54379  1.0000
  H   H1006     1.0  0.73250  0.59468  0.52941  1.0000
  C   C632      1.0  0.55376  0.39581  0.98156  1.0000
  H   H1007     1.0  0.56014  0.40067  0.67954  1.0000
  N   N64       1.0  0.73069  0.42943  0.98723  1.0000
  H   H1008     1.0  0.53303  0.34151  0.99006  1.0000
  Fe  Fe134     1.0  0.51387  0.36122  0.93984  1.0000
  S   S259      1.0  0.54347  0.37713  0.95356  1.0000
  S   S260      1.0  0.51334  0.34342  0.89325  1.0000
  C   C633      1.0  0.68326  0.47081  0.98857  1.0000
  C   C634      1.0  0.66070  0.55638  0.96346  1.0000
  H   H1009     1.0  0.54697  0.38408  0.71293  1.0000
  C   C635      1.0  0.49234  0.33269  0.77665  1.0000
  C   C636      1.0  0.71379  0.63474  0.77588  1.0000
  C   C637      1.0  0.71098  0.42565  0.98729  1.0000
  H   H1010     1.0  0.71149  0.62318  0.68832  1.0000
  C   C638      1.0  0.49261  0.33354  0.71146  1.0000
  H   H1011     1.0  0.48614  0.37105  0.74494  1.0000
  H   H1012     1.0  0.58071  0.39678  0.96760  1.0000
  H   H1013     1.0  0.71797  0.55674  0.95917  1.0000
  C   C639      1.0  0.70508  0.54482  0.96343  1.0000
  S   S261      1.0  0.73018  0.62499  0.90896  1.0000
  C   C640      1.0  0.57470  0.47823  0.93203  1.0000
  H   H1014     1.0  0.70481  0.41844  0.96302  1.0000
  S   S262      1.0  0.49500  0.33777  0.97398  1.0000
  C   C641      1.0  0.72297  0.65367  0.77117  1.0000
  H   H1015     1.0  0.65676  0.65339  0.99194  1.0000
  H   H1016     1.0  0.52076  0.37663  0.67467  1.0000
  C   C642      1.0  0.65425  0.63888  0.98522  1.0000
  H   H1017     1.0  0.68527  0.50873  0.97077  1.0000
  C   C643      1.0  0.72101  0.52478  0.98004  1.0000
  H   H1018     1.0  0.59835  0.45426  0.97023  1.0000
  C   C644      1.0  0.55577  0.38597  0.68845  1.0000
  H   H1019     1.0  0.71795  0.51768  0.95433  1.0000
  H   H1020     1.0  0.48885  0.35716  0.68731  1.0000
  H   H1021     1.0  0.70244  0.60922  0.74911  1.0000
  C   C645      1.0  0.67374  0.57428  0.96385  1.0000
  N   N65       1.0  0.70666  0.53175  0.99110  1.0000
  H   H1022     1.0  0.57478  0.49252  0.93280  1.0000
  H   H1023     1.0  0.69440  0.55035  0.97092  1.0000
  S   S263      1.0  0.72540  0.65272  0.96884  1.0000
  H   H1024     1.0  0.57726  0.33695  0.96977  1.0000
  H   H1025     1.0  0.55797  0.32806  0.91727  1.0000
  H   H1026     1.0  0.66128  0.63937  0.95898  1.0000
  H   H1027     1.0  0.56092  0.46879  0.94109  1.0000
  S   S264      1.0  0.64122  0.52194  0.99193  1.0000
  C   C646      1.0  0.68302  0.58062  0.99490  1.0000
  H   H1028     1.0  0.60794  0.50322  0.94398  1.0000
  C   C647      1.0  0.70961  0.62387  0.74575  1.0000
  H   H1029     1.0  0.56808  0.38315  0.69603  1.0000
  Fe  Fe135     1.0  0.70962  0.62417  0.95158  1.0000
  S   S265      1.0  0.72675  0.48693  0.92037  1.0000
  C   C648      1.0  0.54673  0.32950  0.93376  1.0000
  C   C649      1.0  0.71316  0.47965  0.95949  1.0000
  C   C650      1.0  0.71471  0.63175  0.71123  1.0000
  H   H1030     1.0  0.57676  0.47530  0.90377  1.0000
  H   H1031     1.0  0.54711  0.34381  0.92956  1.0000
  C   C651      1.0  0.69448  0.47583  0.95771  1.0000
  H   H1032     1.0  0.65367  0.55150  0.93928  1.0000
  H   H1033     1.0  0.68868  0.47688  0.93234  1.0000
  H   H1034     1.0  0.68809  0.63960  0.99089  1.0000
  H   H1035     1.0  0.67669  0.58310  0.94011  1.0000
  H   H1036     1.0  0.57468  0.44666  0.96142  1.0000
  H   H1037     1.0  0.55216  0.35062  0.68054  1.0000
  Fe  Fe136     1.0  0.48947  0.34965  0.87433  1.0000
  N   N66       1.0  0.58879  0.47581  0.95457  1.0000
  C   C652      1.0  0.58824  0.45671  0.95266  1.0000
  S   S266      1.0  0.69247  0.63320  0.91441  1.0000
  C   C653      1.0  0.48986  0.35027  0.71198  1.0000
  Fe  Fe137     1.0  0.71451  0.63677  0.87274  1.0000
  S   S267      1.0  0.70776  0.62392  0.81871  1.0000
  C   C654      1.0  0.57278  0.40280  0.98335  1.0000
  H   H1038     1.0  0.61779  0.48699  0.95819  1.0000
  C   C655      1.0  0.60684  0.48864  0.94197  1.0000
  S   S268      1.0  0.49102  0.36908  0.91887  1.0000
  H   H1039     1.0  0.59113  0.45336  0.92513  1.0000
  H   H1040     1.0  0.56611  0.35252  0.98192  1.0000
  H   H1041     1.0  0.53108  0.35174  0.69718  1.0000
  H   H1042     1.0  0.66490  0.60998  0.97700  1.0000
  H   H1043     1.0  0.60984  0.48639  0.91379  1.0000
  C   C656      1.0  0.53292  0.32722  0.99247  1.0000
  H   H1044     1.0  0.58566  0.49391  0.99446  1.0000
  C   C657      1.0  0.48955  0.34940  0.77722  1.0000
  C   C658      1.0  0.54037  0.35443  0.67328  1.0000
  C   C659      1.0  0.58539  0.47964  0.99180  1.0000
  H   H1045     1.0  0.70802  0.43858  0.98801  1.0000
  H   H1046     1.0  0.66887  0.46788  0.98692  1.0000
  H   H1047     1.0  0.63946  0.63196  0.98169  1.0000
  C   C660      1.0  0.72419  0.65062  0.70653  1.0000
  C   C661      1.0  0.68921  0.51625  0.99581  1.0000
  H   H1048     1.0  0.70144  0.53812  0.93746  1.0000
  C   C662      1.0  0.72059  0.47828  0.99232  1.0000
  C   C663      1.0  0.56542  0.33800  0.98486  1.0000
  C   C664      1.0  0.48833  0.35813  0.74470  1.0000
  C   C665      1.0  0.65694  0.54467  0.99395  1.0000
  S   S269      1.0  0.48742  0.35989  0.81760  1.0000
  H   H1049     1.0  0.72830  0.40418  0.96210  1.0000
  H   H1050     1.0  0.55198  0.86258  0.30120  1.0000
  C   C666      1.0  0.54286  0.70274  0.02907  1.0000
  H   H1051     1.0  0.54899  0.70521  0.05475  1.0000
  C   C667      1.0  0.52430  0.69203  0.02709  1.0000
  S   S270      1.0  0.64161  0.90773  0.31554  1.0000
  H   H1052     1.0  0.51626  0.68630  0.05111  1.0000
  H   H1053     1.0  0.66789  0.79703  0.00334  1.0000
  H   H1054     1.0  0.64354  0.94421  0.14486  1.0000
  H   H1055     1.0  0.55708  0.88662  0.29151  1.0000
  H   H1056     1.0  0.57854  0.84087  0.05873  1.0000
  C   C668      1.0  0.66595  0.96156  0.19509  1.0000
  C   C669      1.0  0.67256  0.98785  0.15449  1.0000
  H   H1057     1.0  0.52077  0.76462  0.99875  1.0000
  H   H1058     1.0  0.68484  0.98595  0.14283  1.0000
  H   H1059     1.0  0.56155  0.88488  0.05104  1.0000
  C   C670      1.0  0.62755  0.81826  0.00443  1.0000
  S   S271      1.0  0.61589  0.93584  0.07230  1.0000
  Fe  Fe138     1.0  0.62916  0.89259  0.06051  1.0000
  S   S272      1.0  0.60135  0.89080  0.08005  1.0000
  C   C671      1.0  0.53700  0.86768  0.02686  1.0000
  Fe  Fe139     1.0  0.60401  0.91191  0.03670  1.0000
  N   N67       1.0  0.50298  0.73661  0.00763  1.0000
  Fe  Fe140     1.0  0.61595  0.91469  0.11420  1.0000
  S   S273      1.0  0.60811  0.92104  0.16972  1.0000
  H   H1060     1.0  0.63260  0.90163  0.18712  1.0000
  C   C672      1.0  0.61862  0.91825  0.20937  1.0000
  C   C673      1.0  0.62988  0.90794  0.21084  1.0000
  C   C674      1.0  0.63344  0.91294  0.27471  1.0000
  C   C675      1.0  0.61528  0.92637  0.24043  1.0000
  C   C676      1.0  0.58807  0.89882  0.32628  1.0000
  C   C677      1.0  0.65381  0.95775  0.13648  1.0000
  H   H1061     1.0  0.67818  0.95890  0.18547  1.0000
  C   C678      1.0  0.62936  0.83109  0.03132  1.0000
  H   H1062     1.0  0.60672  0.93452  0.23946  1.0000
  H   H1063     1.0  0.63766  0.95474  0.00009  1.0000
  H   H1064     1.0  0.64556  0.98512  0.06132  1.0000
  H   H1065     1.0  0.62033  0.93042  0.29646  1.0000
  H   H1066     1.0  0.62883  0.82669  0.05896  1.0000
  H   H1067     1.0  0.60163  0.88068  0.28041  1.0000
  C   C679      1.0  0.63158  0.84949  0.02285  1.0000
  C   C680      1.0  0.62285  0.92394  0.27284  1.0000
  C   C681      1.0  0.67303  0.98656  0.05226  1.0000
  H   H1068     1.0  0.59399  0.82800  0.01562  1.0000
  H   H1069     1.0  0.63154  0.95994  0.18927  1.0000
  S   S274      1.0  0.63330  0.86492  0.05801  1.0000
  N   N68       1.0  0.57892  0.88008  0.31373  1.0000
  H   H1070     1.0  0.66582  0.95526  0.12496  1.0000
  C   C682      1.0  0.55414  0.88182  0.02677  1.0000
  H   H1071     1.0  0.64550  0.89684  0.24450  1.0000
  H   H1072     1.0  0.63651  0.97955  0.15956  1.0000
  H   H1073     1.0  0.49747  0.75263  0.04916  1.0000
  C   C683      1.0  0.63719  0.90525  0.24341  1.0000
  C   C684      1.0  0.58691  0.87832  0.27867  1.0000
  H   H1074     1.0  0.58023  0.86441  0.26807  1.0000
  H   H1075     1.0  0.52354  0.74303  0.04687  1.0000
  S   S275      1.0  0.64358  0.91495  0.09835  1.0000
  H   H1076     1.0  0.64541  0.98229  0.20348  1.0000
  C   C685      1.0  0.64235  0.97315  0.18040  1.0000
  H   H1077     1.0  0.53139  0.85987  0.05127  1.0000
  S   S276      1.0  0.63146  0.91315  0.01600  1.0000
  C   C686      1.0  0.55351  0.71029  0.99809  1.0000
  Fe  Fe141     1.0  0.64314  0.93561  0.05549  1.0000
  S   S277      1.0  0.66792  0.96245  0.04604  1.0000
  C   C687      1.0  0.51598  0.73171  0.02946  1.0000
  H   H1078     1.0  0.48455  0.70876  0.00349  1.0000
  N   N69       1.0  0.65869  0.97012  0.16666  1.0000
  C   C688      1.0  0.55938  0.87661  0.31061  1.0000
  H   H1079     1.0  0.58713  0.90940  0.30685  1.0000
  C   C689      1.0  0.49025  0.74148  0.03112  1.0000
  C   C690      1.0  0.59082  0.86051  0.99785  1.0000
  H   H1080     1.0  0.65576  0.94812  0.20473  1.0000
  H   H1081     1.0  0.64802  0.96357  0.11469  1.0000
  H   H1082     1.0  0.55702  0.82643  0.04261  1.0000
  H   H1083     1.0  0.58569  0.88854  0.25865  1.0000
  H   H1084     1.0  0.66977  0.97045  0.21846  1.0000
  H   H1085     1.0  0.58554  0.87181  0.00165  1.0000
  H   H1086     1.0  0.62567  0.80416  0.01153  1.0000
  S   S278      1.0  0.57667  0.72407  0.00202  1.0000
  H   H1087     1.0  0.60140  0.86217  0.01779  1.0000
  H   H1088     1.0  0.50897  0.71932  0.04687  1.0000
  N   N70       1.0  0.57622  0.84231  0.00198  1.0000
  H   H1089     1.0  0.60472  0.94803  0.00458  1.0000
  C   C691      1.0  0.56820  0.83995  0.03850  1.0000
  H   H1090     1.0  0.52616  0.72861  0.01243  1.0000
  H   H1091     1.0  0.56250  0.85075  0.04426  1.0000
  H   H1092     1.0  0.60873  0.97207  0.99891  1.0000
  S   S279      1.0  0.50612  0.84466  0.99735  1.0000
  H   H1093     1.0  0.57303  0.81386  0.99760  1.0000
  H   H1094     1.0  0.51775  0.75832  0.53520  1.0000
  H   H1095     1.0  0.58881  0.69161  0.56758  1.0000
  S   S280      1.0  0.60329  0.72988  0.60535  1.0000
  S   S281      1.0  0.50761  0.67736  0.44561  1.0000
  H   H1096     1.0  0.63848  0.67598  0.57443  1.0000
  C   C692      1.0  0.69671  0.68199  0.62984  1.0000
  C   C693      1.0  0.54223  0.71179  0.53323  1.0000
  C   C694      1.0  0.54961  0.71217  0.49897  1.0000
  C   C695      1.0  0.53868  0.70201  0.47208  1.0000
  C   C696      1.0  0.52019  0.69175  0.47889  1.0000
  C   C697      1.0  0.51266  0.69195  0.51284  1.0000
  C   C698      1.0  0.52368  0.70177  0.53993  1.0000
  H   H1097     1.0  0.56377  0.72011  0.49325  1.0000
  H   H1098     1.0  0.54458  0.70200  0.44583  1.0000
  H   H1099     1.0  0.49851  0.68394  0.51855  1.0000
  H   H1100     1.0  0.51782  0.70129  0.56637  1.0000
  N   N71       1.0  0.57891  0.67727  0.51976  1.0000
  C   C699      1.0  0.68170  0.95696  0.48704  1.0000
  S   S282      1.0  0.55559  0.72331  0.56867  1.0000
  H   H1101     1.0  0.56575  0.66724  0.47098  1.0000
  H   H1102     1.0  0.55259  0.67506  0.50177  1.0000
  H   H1103     1.0  0.60264  0.90155  0.33065  1.0000
  H   H1104     1.0  0.71238  0.72852  0.62002  1.0000
  S   S283      1.0  0.63258  0.70957  0.55806  1.0000
  H   H1105     1.0  0.60324  0.69625  0.49397  1.0000
  S   S284      1.0  0.48460  0.77252  0.53577  1.0000
  H   H1106     1.0  0.68998  0.71315  0.63353  1.0000
  H   H1107     1.0  0.53970  0.75972  0.54985  1.0000
  H   H1108     1.0  0.72326  0.69938  0.58164  1.0000
  H   H1109     1.0  0.57598  0.86800  0.36655  1.0000
  H   H1110     1.0  0.54383  0.75120  0.61038  1.0000
  C   C700      1.0  0.49907  0.73944  0.59394  1.0000
  S   S285      1.0  0.60574  0.74219  0.52103  1.0000
  H   H1111     1.0  0.68617  0.97216  0.48880  1.0000
  Fe  Fe142     1.0  0.58622  0.73869  0.56722  1.0000
  Fe  Fe143     1.0  0.62388  0.73496  0.55993  1.0000
  Fe  Fe144     1.0  0.61836  0.77172  0.53824  1.0000
  S   S286      1.0  0.59775  0.76823  0.58265  1.0000
  S   S287      1.0  0.62237  0.79464  0.49530  1.0000
  Fe  Fe145     1.0  0.61663  0.75962  0.61662  1.0000
  N   N72       1.0  0.57720  0.84104  0.50675  1.0000
  S   S288      1.0  0.63824  0.76474  0.57308  1.0000
  H   H1112     1.0  0.57921  0.82253  0.54841  1.0000
  Fe  Fe146     1.0  0.63708  0.94020  0.43057  1.0000
  S   S289      1.0  0.61741  0.93041  0.38610  1.0000
  Fe  Fe147     1.0  0.63458  0.90008  0.44954  1.0000
  S   S290      1.0  0.61588  0.88842  0.40553  1.0000
  Fe  Fe148     1.0  0.63343  0.91278  0.37176  1.0000
  Fe  Fe149     1.0  0.60121  0.90673  0.42334  1.0000
  S   S291      1.0  0.57061  0.89209  0.42271  1.0000
  S   S292      1.0  0.61919  0.91767  0.46905  1.0000
  H   H1113     1.0  0.65946  0.91975  0.54132  1.0000
  S   S293      1.0  0.51986  0.85883  0.56072  1.0000
  C   C701      1.0  0.56660  0.67772  0.49108  1.0000
  H   H1114     1.0  0.62131  0.82039  0.44044  1.0000
  H   H1115     1.0  0.60149  0.86183  0.48488  1.0000
  H   H1116     1.0  0.67853  0.94627  0.57563  1.0000
  H   H1117     1.0  0.66012  0.96768  0.52931  1.0000
  C   C702      1.0  0.55649  0.88337  0.46131  1.0000
  C   C703      1.0  0.56255  0.88860  0.49540  1.0000
  C   C704      1.0  0.55101  0.88121  0.52545  1.0000
  C   C705      1.0  0.53340  0.86838  0.52183  1.0000
  C   C706      1.0  0.52736  0.86315  0.48772  1.0000
  C   C707      1.0  0.53883  0.87070  0.45762  1.0000
  H   H1118     1.0  0.57602  0.89850  0.49862  1.0000
  H   H1119     1.0  0.55575  0.88543  0.55172  1.0000
  H   H1120     1.0  0.51381  0.85337  0.48455  1.0000
  H   H1121     1.0  0.53395  0.86666  0.43137  1.0000
  C   C708      1.0  0.62763  0.81896  0.49558  1.0000
  S   S294      1.0  0.65387  0.92330  0.41461  1.0000
  C   C709      1.0  0.62978  0.84736  0.46260  1.0000
  C   C710      1.0  0.62578  0.82818  0.46405  1.0000
  H   H1122     1.0  0.64931  0.94609  0.55348  1.0000
  H   H1123     1.0  0.58765  0.84640  0.55923  1.0000
  H   H1124     1.0  0.55868  0.84878  0.53987  1.0000
  C   C711      1.0  0.58651  0.83670  0.53740  1.0000
  C   C712      1.0  0.63605  0.85777  0.49258  1.0000
  C   C713      1.0  0.63370  0.82933  0.52571  1.0000
  H   H1125     1.0  0.58085  0.86369  0.46985  1.0000
  H   H1126     1.0  0.56897  0.81361  0.48751  1.0000
  H   H1127     1.0  0.58813  0.87019  0.51399  1.0000
  H   H1128     1.0  0.69907  0.71198  0.59000  1.0000
  H   H1129     1.0  0.56938  0.83094  0.45472  1.0000
  H   H1130     1.0  0.49670  0.72530  0.58498  1.0000
  S   S295      1.0  0.64128  0.88210  0.49216  1.0000
  N   N73       1.0  0.67246  0.94752  0.52046  1.0000
  H   H1131     1.0  0.55130  0.84283  0.49569  1.0000
  C   C714      1.0  0.59748  0.68178  0.50455  1.0000
  H   H1132     1.0  0.60047  0.83762  0.52962  1.0000
  H   H1133     1.0  0.59019  0.82906  0.46904  1.0000
  C   C715      1.0  0.58735  0.86000  0.49329  1.0000
  C   C716      1.0  0.66669  0.92742  0.51681  1.0000
  C   C717      1.0  0.55861  0.83936  0.51804  1.0000
  H   H1134     1.0  0.64294  0.85643  0.54746  1.0000
  C   C718      1.0  0.57637  0.82808  0.47823  1.0000
  H   H1135     1.0  0.69382  0.95344  0.48026  1.0000
  H   H1136     1.0  0.55042  0.82519  0.52790  1.0000
  H   H1137     1.0  0.63536  0.82256  0.55010  1.0000
  C   C719      1.0  0.63804  0.84860  0.52407  1.0000
  N   N74       1.0  0.71031  0.70070  0.63191  1.0000
  H   H1138     1.0  0.62834  0.85412  0.43803  1.0000
  C   C720      1.0  0.68505  0.95319  0.55000  1.0000
  S   S296      1.0  0.64724  0.97093  0.44588  1.0000
  H   H1139     1.0  0.67838  0.92303  0.51106  1.0000
  C   C721      1.0  0.65640  0.95253  0.52797  1.0000
  H   H1140     1.0  0.64640  0.94799  0.50668  1.0000
  H   H1141     1.0  0.67253  0.95312  0.46425  1.0000
  S   S297      1.0  0.69960  0.68288  0.52523  1.0000
  H   H1142     1.0  0.53539  0.77906  0.59936  1.0000
  C   C722      1.0  0.52088  0.76993  0.60143  1.0000
  N   N75       1.0  0.51847  0.75114  0.59054  1.0000
  C   C723      1.0  0.68080  0.69001  0.53490  1.0000
  C   C724      1.0  0.68188  0.70779  0.52389  1.0000
  C   C725      1.0  0.66507  0.67871  0.55358  1.0000
  C   C726      1.0  0.65172  0.70281  0.54954  1.0000
  C   C727      1.0  0.70261  0.71421  0.61840  1.0000
  C   C728      1.0  0.52490  0.75179  0.55312  1.0000
  H   H1143     1.0  0.66867  0.72788  0.52249  1.0000
  H   H1144     1.0  0.69736  0.94968  0.54507  1.0000
  H   H1145     1.0  0.52681  0.72891  0.60712  1.0000
  H   H1146     1.0  0.66388  0.66497  0.56211  1.0000
  H   H1147     1.0  0.49380  0.73840  0.62189  1.0000
  C   C729      1.0  0.65064  0.68501  0.56051  1.0000
  H   H1148     1.0  0.69389  0.71670  0.50933  1.0000
  C   C730      1.0  0.66757  0.71422  0.53141  1.0000
  H   H1149     1.0  0.52261  0.73779  0.54349  1.0000
  H   H1150     1.0  0.49048  0.74184  0.50510  1.0000
  H   H1151     1.0  0.59786  0.67266  0.48250  1.0000
  H   H1152     1.0  0.73276  0.69221  0.61947  1.0000
  H   H1153     1.0  0.68960  0.96829  0.55348  1.0000
  C   C731      1.0  0.57891  0.69084  0.54652  1.0000
  H   H1154     1.0  0.68539  0.98267  0.41828  1.0000
  Fe  Fe150     1.0  0.49186  0.83611  0.56243  1.0000
  H   H1155     1.0  0.65725  0.92270  0.49466  1.0000
  C   C732      1.0  0.52899  0.74337  0.61365  1.0000
  S   S298      1.0  0.48903  0.81164  0.59826  1.0000
  H   H1156     1.0  0.52510  0.74341  0.64224  1.0000
  H   H1157     1.0  0.51317  0.77623  0.58437  1.0000
  H   H1158     1.0  0.49066  0.74509  0.57746  1.0000
  H   H1159     1.0  0.51595  0.76999  0.62935  1.0000
  H   H1160     1.0  0.59602  0.86874  0.34200  1.0000
  H   H1161     1.0  0.60686  0.68028  0.52498  1.0000
  H   H1162     1.0  0.56529  0.68756  0.55964  1.0000
  C   C733      1.0  0.58140  0.86665  0.33955  1.0000
  H   H1163     1.0  0.58268  0.70482  0.53415  1.0000
  H   H1164     1.0  0.57133  0.69135  0.47675  1.0000
  H   H1165     1.0  0.58194  0.90095  0.35192  1.0000
  H   H1166     1.0  0.69312  0.67852  0.60184  1.0000
  H   H1167     1.0  0.68396  0.68047  0.64494  1.0000
  H   H1168     1.0  0.70188  0.67150  0.64084  1.0000
  C   C734      1.0  0.66574  0.99275  0.44144  1.0000
  H   H1169     1.0  0.55307  0.87789  0.33679  1.0000
  C   C735      1.0  0.72659  0.70221  0.61002  1.0000
  H   H1170     1.0  0.57437  0.85231  0.33138  1.0000
  H   H1171     1.0  0.62703  0.70650  0.87076  1.0000
  N   N76       1.0  0.62793  0.71170  0.81421  1.0000
  S   S299      1.0  0.60470  0.72487  0.91045  1.0000
  H   H1172     1.0  0.55351  0.71255  0.94098  1.0000
  C   C736      1.0  0.52697  0.69600  0.96302  1.0000
  H   H1173     1.0  0.57933  0.72717  0.75135  1.0000
  H   H1174     1.0  0.59348  0.73935  0.69178  1.0000
  H   H1175     1.0  0.63192  0.73887  0.79364  1.0000
  H   H1176     1.0  0.63568  0.97821  0.91402  1.0000
  H   H1177     1.0  0.64897  0.71085  0.96371  1.0000
  H   H1178     1.0  0.64920  0.73758  0.82279  1.0000
  C   C737      1.0  0.59955  0.74610  0.71556  1.0000
  Fe  Fe151     1.0  0.70892  0.66204  0.92938  1.0000
  C   C738      1.0  0.63283  0.70308  0.84582  1.0000
  C   C739      1.0  0.54546  0.70690  0.96503  1.0000
  H   H1179     1.0  0.65149  0.71286  0.78317  1.0000
  H   H1180     1.0  0.52090  0.69332  0.93730  1.0000
  Fe  Fe152     1.0  0.59558  0.73849  0.95527  1.0000
  S   S300      1.0  0.58898  0.73849  0.82237  1.0000
  H   H1181     1.0  0.62981  0.94496  0.92149  1.0000
  H   H1182     1.0  0.62732  0.73553  0.84054  1.0000
  H   H1183     1.0  0.62783  0.68787  0.84445  1.0000
  C   C740      1.0  0.63443  0.73181  0.81789  1.0000
  C   C741      1.0  0.59157  0.73924  0.74935  1.0000
  H   H1184     1.0  0.68585  0.72675  0.87300  1.0000
  H   H1185     1.0  0.65026  0.79414  0.97244  1.0000
  H   H1186     1.0  0.50204  0.71624  0.96934  1.0000
  C   C742      1.0  0.69574  0.81335  0.95674  1.0000
  H   H1187     1.0  0.64778  0.70801  0.84868  1.0000
  H   H1188     1.0  0.66221  0.68759  0.98151  1.0000
  N   N77       1.0  0.62206  0.96127  0.95948  1.0000
  Fe  Fe153     1.0  0.61897  0.77723  0.92991  1.0000
  S   S301      1.0  0.59013  0.75939  0.91982  1.0000
  S   S302      1.0  0.62723  0.80860  0.93322  1.0000
  H   H1189     1.0  0.56767  0.84235  0.94812  1.0000
  S   S303      1.0  0.62417  0.75686  0.96752  1.0000
  S   S304      1.0  0.63002  0.76669  0.88268  1.0000
  S   S305      1.0  0.73019  0.66618  0.88498  1.0000
  C   C743      1.0  0.51627  0.68862  0.99400  1.0000
  C   C744      1.0  0.61528  0.76178  0.71264  1.0000
  C   C745      1.0  0.62298  0.77042  0.74380  1.0000
  C   C746      1.0  0.61503  0.76355  0.77756  1.0000
  H   H1190     1.0  0.63510  0.78260  0.74173  1.0000
  H   H1191     1.0  0.62102  0.77044  0.80125  1.0000
  H   H1192     1.0  0.63174  0.84674  0.93244  1.0000
  C   C747      1.0  0.63089  0.84224  0.96008  1.0000
  C   C748      1.0  0.62842  0.82379  0.96856  1.0000
  H   H1193     1.0  0.67190  0.82354  0.91860  1.0000
  S   S306      1.0  0.49045  0.81548  0.91153  1.0000
  H   H1194     1.0  0.65798  0.80084  0.90765  1.0000
  H   H1195     1.0  0.63286  0.71367  0.75758  1.0000
  C   C749      1.0  0.53437  0.87380  0.96439  1.0000
  C   C750      1.0  0.67189  0.80939  0.91531  1.0000
  Fe  Fe154     1.0  0.63280  0.74461  0.91949  1.0000
  H   H1196     1.0  0.55702  0.89596  0.94003  1.0000
  C   C751      1.0  0.67570  0.78286  0.94320  1.0000
  C   C752      1.0  0.55148  0.88808  0.96437  1.0000
  H   H1197     1.0  0.52687  0.87073  0.94021  1.0000
  H   H1198     1.0  0.60258  0.68949  0.80776  1.0000
  H   H1199     1.0  0.48596  0.83167  0.69014  1.0000
  H   H1200     1.0  0.68123  0.80972  0.89250  1.0000
  H   H1201     1.0  0.66495  0.81672  0.98227  1.0000
  C   C753      1.0  0.72824  0.66154  0.73665  1.0000
  H   H1202     1.0  0.65078  0.96692  0.96194  1.0000
  H   H1203     1.0  0.69713  0.82790  0.96065  1.0000
  C   C754      1.0  0.56152  0.89206  0.99549  1.0000
  H   H1204     1.0  0.62666  0.98957  0.94621  1.0000
  H   H1205     1.0  0.49834  0.76606  0.81994  1.0000
  H   H1206     1.0  0.69997  0.80818  0.98157  1.0000
  Fe  Fe155     1.0  0.48532  0.83246  0.95488  1.0000
  H   H1207     1.0  0.59056  0.82946  0.96889  1.0000
  C   C755      1.0  0.62410  0.97627  0.93307  1.0000
  C   C756      1.0  0.52705  0.86347  0.99569  1.0000
  C   C757      1.0  0.66454  0.80250  0.97795  1.0000
  C   C758      1.0  0.61865  0.94389  0.94100  1.0000
  S   S307      1.0  0.62580  0.77114  0.67089  1.0000
  N   N78       1.0  0.67697  0.80202  0.94830  1.0000
  C   C759      1.0  0.63884  0.96564  0.97956  1.0000
  H   H1208     1.0  0.60382  0.71119  0.78813  1.0000
  Fe  Fe156     1.0  0.60170  0.74741  0.87563  1.0000
  H   H1209     1.0  0.64205  0.97878  0.99352  1.0000
  H   H1210     1.0  0.59757  0.86265  0.97097  1.0000
  H   H1211     1.0  0.60573  0.93978  0.92660  1.0000
  H   H1212     1.0  0.48612  0.75531  0.78189  1.0000
  C   C760      1.0  0.59927  0.74791  0.78047  1.0000
  H   H1213     1.0  0.60113  0.70742  0.83530  1.0000
  C   C761      1.0  0.60802  0.70457  0.81117  1.0000
  S   S308      1.0  0.69083  0.67703  0.95217  1.0000
  H   H1214     1.0  0.72118  0.69423  0.68006  1.0000
  C   C762      1.0  0.65965  0.70910  0.94736  1.0000
  C   C763      1.0  0.68129  0.69341  0.93687  1.0000
  C   C764      1.0  0.68768  0.70444  0.90597  1.0000
  C   C765      1.0  0.66720  0.69585  0.95738  1.0000
  S   S309      1.0  0.65839  0.73844  0.90440  1.0000
  C   C766      1.0  0.63645  0.70743  0.78189  1.0000
  H   H1215     1.0  0.63425  0.86908  0.97992  1.0000
  C   C767      1.0  0.66638  0.72048  0.91704  1.0000
  C   C768      1.0  0.68040  0.71799  0.89640  1.0000
  H   H1216     1.0  0.49922  0.84347  0.74791  1.0000
  H   H1217     1.0  0.69858  0.70290  0.89002  1.0000
  H   H1218     1.0  0.63197  0.69235  0.77837  1.0000
  H   H1219     1.0  0.61167  0.97337  0.91738  1.0000
  H   H1220     1.0  0.72609  0.66221  0.79411  1.0000
  H   H1221     1.0  0.68485  0.78189  0.92101  1.0000
  H   H1222     1.0  0.49981  0.77935  0.77954  1.0000
  C   C769      1.0  0.51291  0.75245  0.98353  1.0000
  H   H1223     1.0  0.70550  0.81326  0.93497  1.0000
  H   H1224     1.0  0.55055  0.82773  0.97901  1.0000
  H   H1225     1.0  0.49083  0.80126  0.81430  1.0000
  H   H1226     1.0  0.67923  0.77669  0.96759  1.0000
  C   C770      1.0  0.56214  0.84102  0.97595  1.0000
  H   H1227     1.0  0.55653  0.85208  0.97933  1.0000
  C   C771      1.0  0.49044  0.76812  0.79716  1.0000
  H   H1228     1.0  0.61745  0.93240  0.96016  1.0000
  C   C772      1.0  0.48537  0.83396  0.74743  1.0000
  H   H1229     1.0  0.50342  0.75648  0.96671  1.0000
  H   H1230     1.0  0.59368  0.95569  0.97025  1.0000
  S   S310      1.0  0.48526  0.83713  0.82007  1.0000
  S   S311      1.0  0.49293  0.67557  0.98999  1.0000
  H   H1231     1.0  0.52259  0.74916  0.96536  1.0000
  C   C773      1.0  0.63229  0.85496  0.98697  1.0000
  S   S312      1.0  0.58330  0.90968  0.99419  1.0000
  C   C774      1.0  0.60665  0.95926  0.98436  1.0000
  C   C775      1.0  0.49281  0.72080  0.98628  1.0000
  H   H1232     1.0  0.66175  0.77398  0.93653  1.0000
  H   H1233     1.0  0.48791  0.78748  0.85471  1.0000
  H   H1234     1.0  0.48342  0.72418  0.96836  1.0000
  C   C776      1.0  0.58375  0.82777  0.99570  1.0000
  H   H1235     1.0  0.72565  0.71827  0.67196  1.0000
  H   H1236     1.0  0.70335  0.70316  0.68663  1.0000
  S   S313      1.0  0.73183  0.66108  0.66387  1.0000
  C   C777      1.0  0.71534  0.70430  0.66933  1.0000
  Fe  Fe157     1.0  0.75224  0.32303  0.03813  1.0000
  H   H1237     1.0  0.79260  0.29286  0.22229  1.0000
  H   H1238     1.0  0.74088  0.11092  0.31248  1.0000
  H   H1239     1.0  0.84320  0.28467  0.00588  1.0000
  H   H1240     1.0  0.79017  0.11629  0.08422  1.0000
  N   N79       1.0  0.80118  0.31051  0.17535  1.0000
  C   C778      1.0  0.80005  0.12840  0.09695  1.0000
  H   H1241     1.0  0.79914  0.15432  0.16784  1.0000
  C   C779      1.0  0.78623  0.11822  0.15540  1.0000
  H   H1242     1.0  0.83562  0.30014  0.05771  1.0000
  C   C780      1.0  0.79460  0.30710  0.21293  1.0000
  H   H1243     1.0  0.80423  0.31675  0.23084  1.0000
  H   H1244     1.0  0.75358  0.10833  0.25264  1.0000
  H   H1245     1.0  0.81738  0.14745  0.15230  1.0000
  H   H1246     1.0  0.77927  0.14913  0.09787  1.0000
  C   C781      1.0  0.77575  0.13766  0.11818  1.0000
  H   H1247     1.0  0.80440  0.13975  0.07635  1.0000
  C   C782      1.0  0.80506  0.15004  0.14401  1.0000
  H   H1248     1.0  0.79788  0.11443  0.16361  1.0000
  H   H1249     1.0  0.81210  0.12495  0.10369  1.0000
  H   H1250     1.0  0.78004  0.12176  0.17976  1.0000
  N   N80       1.0  0.79181  0.13358  0.12867  1.0000
  H   H1251     1.0  0.77577  0.10576  0.14492  1.0000
  H   H1252     1.0  0.76881  0.14124  0.14143  1.0000
  H   H1253     1.0  0.80945  0.16186  0.12440  1.0000
  H   H1254     1.0  0.76570  0.12551  0.10621  1.0000
  H   H1255     1.0  0.80717  0.13531  0.00314  1.0000
  H   H1256     1.0  0.77499  0.16915  0.01407  1.0000
  H   H1257     1.0  0.77433  0.29983  0.15513  1.0000
  H   H1258     1.0  0.79209  0.30020  0.12407  1.0000
  S   S314      1.0  0.81449  0.32328  0.06523  1.0000
  C   C783      1.0  0.74027  0.10924  0.25513  1.0000
  S   S315      1.0  0.76462  0.31109  0.08043  1.0000
  H   H1259     1.0  0.82374  0.31003  0.14292  1.0000
  C   C784      1.0  0.82064  0.31341  0.02748  1.0000
  C   C785      1.0  0.78760  0.29785  0.15264  1.0000
  H   H1260     1.0  0.82913  0.31700  0.18770  1.0000
  C   C786      1.0  0.78906  0.15008  0.01024  1.0000
  C   C787      1.0  0.83106  0.30223  0.03165  1.0000
  S   S316      1.0  0.77083  0.12926  0.02455  1.0000
  H   H1261     1.0  0.78321  0.28586  0.03613  1.0000
  C   C788      1.0  0.81855  0.30753  0.17116  1.0000
  S   S317      1.0  0.74019  0.10729  0.18224  1.0000
  H   H1262     1.0  0.78518  0.28326  0.16000  1.0000
  C   C789      1.0  0.78777  0.16765  0.00749  1.0000
  C   C790      1.0  0.75335  0.32239  0.24719  1.0000
  H   H1263     1.0  0.74169  0.30977  0.24737  1.0000
  C   C791      1.0  0.80582  0.14862  0.00137  1.0000
  H   H1264     1.0  0.77879  0.26157  0.03688  1.0000
  H   H1265     1.0  0.78135  0.30898  0.21657  1.0000
  H   H1266     1.0  0.81706  0.29321  0.17906  1.0000
  S   S318      1.0  0.73707  0.09079  0.08772  1.0000
  Fe  Fe158     1.0  0.74213  0.11597  0.05139  1.0000
  C   C792      1.0  0.83542  0.29349  0.00230  1.0000
  C   C793      1.0  0.78141  0.27389  0.01908  1.0000
  H   H1267     1.0  0.74599  0.25452  0.03157  1.0000
  H   H1268     1.0  0.74968  0.27864  0.03173  1.0000
  H   H1269     1.0  0.75563  0.32184  0.30445  1.0000
  S   S319      1.0  0.75086  0.32163  0.17432  1.0000
  C   C794      1.0  0.74929  0.26716  0.01437  1.0000
  S   S320      1.0  0.73327  0.13145  0.09288  1.0000
  H   H1270     1.0  0.79457  0.27645  0.00458  1.0000
  C   C795      1.0  0.73309  0.11068  0.28913  1.0000
  H   H1271     1.0  0.73504  0.13793  0.52611  1.0000
  C   C796      1.0  0.77733  0.27471  0.52711  1.0000
  C   C797      1.0  0.73710  0.16955  0.55336  1.0000
  H   H1272     1.0  0.90557  0.26641  0.47232  1.0000
  Fe  Fe159     1.0  0.74879  0.12108  0.44177  1.0000
  S   S321      1.0  0.77767  0.14343  0.44349  1.0000
  H   H1273     1.0  0.73715  0.26217  0.48553  1.0000
  Fe  Fe160     1.0  0.85299  0.22726  0.55688  1.0000
  S   S322      1.0  0.83281  0.19720  0.55228  1.0000
  C   C798      1.0  0.76596  0.18143  0.52103  1.0000
  H   H1274     1.0  0.78970  0.28735  0.52750  1.0000
  H   H1275     1.0  0.91570  0.31332  0.50529  1.0000
  H   H1276     1.0  0.88770  0.27314  0.45523  1.0000
  C   C799      1.0  0.79256  0.15835  0.47451  1.0000
  C   C800      1.0  0.79290  0.15330  0.51043  1.0000
  C   C801      1.0  0.80517  0.16537  0.53356  1.0000
  C   C802      1.0  0.81726  0.18283  0.52154  1.0000
  C   C803      1.0  0.81677  0.18798  0.48572  1.0000
  C   C804      1.0  0.80471  0.17577  0.46242  1.0000
  H   H1277     1.0  0.78413  0.13984  0.52021  1.0000
  H   H1278     1.0  0.80549  0.16103  0.56099  1.0000
  H   H1279     1.0  0.82599  0.20121  0.47572  1.0000
  H   H1280     1.0  0.80483  0.17989  0.43472  1.0000
  N   N81       1.0  0.74750  0.16737  0.52176  1.0000
  H   H1281     1.0  0.82280  0.31792  0.54746  1.0000
  C   C805      1.0  0.73826  0.16954  0.48918  1.0000
  H   H1282     1.0  0.77375  0.17976  0.54433  1.0000
  H   H1283     1.0  0.76565  0.19556  0.52101  1.0000
  C   C806      1.0  0.90258  0.27609  0.45335  1.0000
  H   H1284     1.0  0.75213  0.28986  0.54262  1.0000
  S   S323      1.0  0.87452  0.23599  0.59894  1.0000
  H   H1285     1.0  0.75662  0.14712  0.54625  1.0000
  S   S324      1.0  0.73913  0.09949  0.39978  1.0000
  S   S325      1.0  0.85510  0.28306  0.48562  1.0000
  C   C807      1.0  0.74748  0.26049  0.50360  1.0000
  S   S326      1.0  0.88220  0.27909  0.57328  1.0000
  H   H1286     1.0  0.81754  0.31512  0.43419  1.0000
  H   H1287     1.0  0.78178  0.26341  0.51833  1.0000
  C   C808      1.0  0.96418  0.31440  0.55285  1.0000
  C   C809      1.0  0.90791  0.29902  0.49776  1.0000
  H   H1288     1.0  0.90592  0.27280  0.42608  1.0000
  C   C810      1.0  0.94535  0.28183  0.54960  1.0000
  C   C811      1.0  0.94693  0.30011  0.55436  1.0000
  C   C812      1.0  0.96148  0.27822  0.54420  1.0000
  H   H1289     1.0  0.93486  0.30331  0.55911  1.0000
  H   H1290     1.0  0.96060  0.26422  0.54034  1.0000
  C   C813      1.0  0.81879  0.31782  0.49095  1.0000
  C   C814      1.0  0.82563  0.31295  0.52223  1.0000
  C   C815      1.0  0.83623  0.30178  0.52117  1.0000
  C   C816      1.0  0.84048  0.29574  0.48862  1.0000
  C   C817      1.0  0.83360  0.30057  0.45732  1.0000
  C   C818      1.0  0.82263  0.31139  0.45848  1.0000
  H   H1291     1.0  0.77387  0.18050  0.49676  1.0000
  H   H1292     1.0  0.84154  0.29827  0.54542  1.0000
  H   H1293     1.0  0.83687  0.29602  0.43201  1.0000
  C   C819      1.0  0.74865  0.14888  0.52339  1.0000
  C   C820      1.0  0.77166  0.28161  0.46667  1.0000
  H   H1294     1.0  0.93696  0.29617  0.43214  1.0000
  Fe  Fe161     1.0  0.89288  0.25702  0.55854  1.0000
  Fe  Fe162     1.0  0.86101  0.26734  0.53269  1.0000
  S   S327      1.0  0.92380  0.26313  0.54858  1.0000
  S   S328      1.0  0.77568  0.31862  0.40681  1.0000
  N   N82       1.0  0.76381  0.27737  0.50328  1.0000
  C   C821      1.0  0.98042  0.29997  0.64679  1.0000
  H   H1295     1.0  0.78355  0.29469  0.46519  1.0000
  C   C822      1.0  0.75874  0.29278  0.51560  1.0000
  H   H1296     1.0  0.77081  0.30565  0.51669  1.0000
  S   S329      1.0  0.87243  0.24603  0.51565  1.0000
  Fe  Fe163     1.0  0.86316  0.25785  0.61167  1.0000
  H   H1297     1.0  0.76157  0.28309  0.44779  1.0000
  S   S330      1.0  0.84086  0.24828  0.57213  1.0000
  H   H1298     1.0  0.75516  0.14619  0.49878  1.0000
  H   H1299     1.0  0.77632  0.27064  0.45685  1.0000
  H   H1300     1.0  0.91055  0.28961  0.51769  1.0000
  H   H1301     1.0  0.89325  0.29698  0.50030  1.0000
  H   H1302     1.0  0.74591  0.16815  0.46483  1.0000
  N   N83       1.0  0.91296  0.29538  0.46147  1.0000
  Fe  Fe164     1.0  0.74883  0.31814  0.42934  1.0000
  H   H1303     1.0  0.91218  0.30531  0.40796  1.0000
  H   H1304     1.0  0.74913  0.29560  0.49734  1.0000
  C   C823      1.0  0.93257  0.29858  0.45928  1.0000
  H   H1305     1.0  0.93602  0.28917  0.47815  1.0000
  H   H1306     1.0  0.74376  0.16800  0.57835  1.0000
  H   H1307     1.0  0.73685  0.18320  0.48727  1.0000
  H   H1308     1.0  0.75079  0.24856  0.49453  1.0000
  H   H1309     1.0  0.89391  0.30553  0.43716  1.0000
  H   H1310     1.0  0.94085  0.31286  0.46620  1.0000
  H   H1311     1.0  0.97441  0.28470  0.64721  1.0000
  C   C824      1.0  0.90868  0.30773  0.43574  1.0000
  H   H1312     1.0  0.77187  0.27145  0.55498  1.0000
  H   H1313     1.0  0.91621  0.32240  0.44123  1.0000
  H   H1314     1.0  0.97757  0.30498  0.62048  1.0000
  C   C825      1.0  0.97877  0.29246  0.54344  1.0000
  C   C826      1.0  0.98031  0.31078  0.54741  1.0000
  H   H1315     1.0  0.74095  0.25703  0.53067  1.0000
  H   H1316     1.0  0.73575  0.18327  0.55296  1.0000
  C   C827      1.0  0.85841  0.19237  0.87979  1.0000
  C   C828      1.0  0.84189  0.18114  0.82694  1.0000
  H   H1317     1.0  0.86637  0.18324  0.87691  1.0000
  H   H1318     1.0  0.94895  0.28150  0.82188  1.0000
  Fe  Fe165     1.0  0.85390  0.23013  0.94957  1.0000
  H   H1319     1.0  0.85764  0.19508  0.90860  1.0000
  N   N84       1.0  0.84016  0.18412  0.86531  1.0000
  S   S331      1.0  0.86980  0.23679  0.81951  1.0000
  H   H1320     1.0  0.82855  0.19924  0.89884  1.0000
  S   S332      1.0  0.83974  0.23929  0.90621  1.0000
  H   H1321     1.0  0.83750  0.15663  0.88159  1.0000
  H   H1322     1.0  0.81639  0.15987  0.87445  1.0000
  H   H1323     1.0  0.81622  0.19088  0.85961  1.0000
  H   H1324     1.0  0.84927  0.19437  0.81201  1.0000
  H   H1325     1.0  0.83714  0.21013  0.85606  1.0000
  C   C829      1.0  0.86783  0.24414  0.71232  1.0000
  C   C830      1.0  0.83007  0.19664  0.87016  1.0000
  H   H1326     1.0  0.82839  0.17500  0.81503  1.0000
  C   C831      1.0  0.83029  0.16645  0.88445  1.0000
  S   S333      1.0  0.87997  0.23685  0.91624  1.0000
  H   H1327     1.0  0.87051  0.23770  0.68876  1.0000
  H   H1328     1.0  0.86626  0.20569  0.86586  1.0000
  H   H1329     1.0  0.84953  0.17184  0.82215  1.0000
  H   H1330     1.0  0.91979  0.25773  0.84019  1.0000
  H   H1331     1.0  0.82883  0.16846  0.91347  1.0000
  H   H1332     1.0  0.87489  0.22618  0.74873  1.0000
  C   C832      1.0  0.87029  0.23764  0.74640  1.0000
  C   C833      1.0  0.81498  0.31616  0.99360  1.0000
  H   H1333     1.0  0.75903  0.28727  0.95430  1.0000
  C   C834      1.0  0.86670  0.24574  0.77731  1.0000
  H   H1334     1.0  0.81525  0.30994  0.93803  1.0000
  S   S334      1.0  0.83324  0.28427  0.93122  1.0000
  S   S335      1.0  0.91870  0.28579  0.94677  1.0000
  S   S336      1.0  0.87620  0.27601  0.89350  1.0000
  C   C835      1.0  0.76542  0.25597  0.97081  1.0000
  H   H1335     1.0  0.94223  0.26597  0.92065  1.0000
  H   H1336     1.0  0.75449  0.25377  0.95142  1.0000
  H   H1337     1.0  0.92484  0.31413  0.83114  1.0000
  H   H1338     1.0  0.95076  0.30504  0.81531  1.0000
  Fe  Fe166     1.0  0.85132  0.26721  0.92979  1.0000
  H   H1339     1.0  0.97565  0.27589  0.91074  1.0000
  C   C836      1.0  0.82956  0.29607  0.96848  1.0000
  C   C837      1.0  0.94286  0.29203  0.93936  1.0000
  C   C838      1.0  0.95076  0.27987  0.92610  1.0000
  C   C839      1.0  0.91785  0.30051  0.84472  1.0000
  C   C840      1.0  0.95451  0.30995  0.94682  1.0000
  H   H1340     1.0  0.92430  0.29630  0.77586  1.0000
  N   N85       1.0  0.92393  0.28624  0.82976  1.0000
  C   C841      1.0  0.81990  0.18163  0.98731  1.0000
  Fe  Fe167     1.0  0.86592  0.24726  0.87419  1.0000
  H   H1341     1.0  0.92298  0.27280  0.78016  1.0000
  C   C842      1.0  0.85831  0.26705  0.73974  1.0000
  S   S337      1.0  0.84023  0.20030  0.97268  1.0000
  Fe  Fe168     1.0  0.88945  0.26548  0.93701  1.0000
  C   C843      1.0  0.97358  0.31564  0.94120  1.0000
  C   C844      1.0  0.96983  0.28556  0.92057  1.0000
  C   C845      1.0  0.98150  0.30348  0.92813  1.0000
  H   H1342     1.0  0.85793  0.26693  0.79733  1.0000
  H   H1343     1.0  0.85356  0.27841  0.73729  1.0000
  H   H1344     1.0  0.94830  0.29508  0.85935  1.0000
  H   H1345     1.0  0.90345  0.27853  0.79043  1.0000
  C   C846      1.0  0.94386  0.29220  0.83152  1.0000
  C   C847      1.0  0.81957  0.30765  0.96423  1.0000
  C   C848      1.0  0.86173  0.25885  0.70879  1.0000
  H   H1346     1.0  0.92060  0.30211  0.87366  1.0000
  S   S338      1.0  0.86465  0.25803  0.97493  1.0000
  H   H1347     1.0  0.90046  0.26388  0.84958  1.0000
  C   C849      1.0  0.91850  0.28339  0.79237  1.0000
  H   H1348     1.0  0.91899  0.27039  0.87902  1.0000
  H   H1349     1.0  0.97310  0.30492  0.66737  1.0000
  C   C850      1.0  0.86079  0.26057  0.77384  1.0000
  H   H1350     1.0  0.90305  0.29707  0.84181  1.0000
  C   C851      1.0  0.91546  0.26881  0.85055  1.0000
  H   H1351     1.0  0.77838  0.25870  0.95529  1.0000
  H   H1352     1.0  0.78283  0.29132  0.95485  1.0000
  S   S339      1.0  0.73717  0.30546  0.99336  1.0000
  H   H1353     1.0  0.94874  0.31955  0.95720  1.0000
  S   S340      1.0  0.85803  0.26739  0.66659  1.0000
  C   C852      1.0  0.82099  0.16411  0.99066  1.0000
  H   H1354     1.0  0.80186  0.19668  0.99337  1.0000
  H   H1355     1.0  0.77238  0.30041  0.98875  1.0000
  H   H1356     1.0  0.80720  0.32497  0.98996  1.0000
  C   C853      1.0  0.77041  0.28830  0.97201  1.0000
  H   H1357     1.0  0.83375  0.16244  0.98463  1.0000
  C   C854      1.0  0.80306  0.18332  0.99562  1.0000
  H   H1358     1.0  0.76252  0.24290  0.98653  1.0000
  N   N86       1.0  0.76663  0.27133  0.99409  1.0000
  H   H1359     1.0  0.73783  0.26513  0.99631  1.0000
  Fe  Fe169     1.0  0.77279  0.36238  0.05944  1.0000
  S   S341      1.0  0.74532  0.34166  0.07610  1.0000
  S   S342      1.0  0.77580  0.39264  0.05670  1.0000
  H   H1360     1.0  0.82418  0.55986  0.04381  1.0000
  H   H1361     1.0  0.80971  0.33302  0.13683  1.0000
  H   H1362     1.0  0.76783  0.38178  0.31967  1.0000
  S   S343      1.0  0.78740  0.35331  0.10273  1.0000
  C   C855      1.0  0.87967  0.64792  0.20123  1.0000
  H   H1363     1.0  0.88807  0.62916  0.23289  1.0000
  C   C856      1.0  0.78220  0.42630  0.02421  1.0000
  H   H1364     1.0  0.79510  0.43159  0.32406  1.0000
  H   H1365     1.0  0.78983  0.60958  0.05605  1.0000
  C   C857      1.0  0.78035  0.40791  0.01910  1.0000
  H   H1366     1.0  0.78693  0.45303  0.99950  1.0000
  C   C858      1.0  0.77655  0.34529  0.27978  1.0000
  C   C859      1.0  0.78363  0.35465  0.24720  1.0000
  C   C860      1.0  0.77558  0.34799  0.21483  1.0000
  H   H1367     1.0  0.81322  0.33967  0.18222  1.0000
  C   C861      1.0  0.76052  0.33164  0.21456  1.0000
  H   H1368     1.0  0.79541  0.36715  0.24698  1.0000
  H   H1369     1.0  0.78107  0.35548  0.19008  1.0000
  S   S344      1.0  0.77890  0.34436  0.01891  1.0000
  H   H1370     1.0  0.78131  0.43083  0.05092  1.0000
  C   C862      1.0  0.76125  0.32920  0.27963  1.0000
  Fe  Fe170     1.0  0.87929  0.64678  0.10404  1.0000
  Fe  Fe171     1.0  0.76048  0.33173  0.11715  1.0000
  C   C863      1.0  0.88217  0.64867  0.26603  1.0000
  H   H1371     1.0  0.84955  0.58997  0.04287  1.0000
  C   C864      1.0  0.83078  0.56603  0.01871  1.0000
  C   C865      1.0  0.80389  0.61580  0.04464  1.0000
  H   H1372     1.0  0.83394  0.61358  0.01251  1.0000
  Fe  Fe172     1.0  0.79078  0.33324  0.06363  1.0000
  H   H1373     1.0  0.80746  0.63096  0.04370  1.0000
  S   S345      1.0  0.88247  0.63778  0.16081  1.0000
  Fe  Fe173     1.0  0.87649  0.63401  0.02699  1.0000
  S   S346      1.0  0.89987  0.64422  0.06377  1.0000
  S   S347      1.0  0.85576  0.63365  0.06891  1.0000
  C   C866      1.0  0.84513  0.58315  0.01824  1.0000
  S   S348      1.0  0.78758  0.35403  0.31965  1.0000
  H   H1374     1.0  0.75313  0.44217  0.02063  1.0000
  C   C867      1.0  0.88375  0.64085  0.23331  1.0000
  H   H1375     1.0  0.81314  0.61278  0.06361  1.0000
  H   H1376     1.0  0.88524  0.64299  0.29049  1.0000
  H   H1377     1.0  0.78182  0.41379  0.29589  1.0000
  H   H1378     1.0  0.80103  0.39538  0.30954  1.0000
  H   H1379     1.0  0.79085  0.33197  0.16516  1.0000
  H   H1380     1.0  0.78595  0.58172  0.01964  1.0000
  C   C868      1.0  0.73827  0.43902  0.01987  1.0000
  C   C869      1.0  0.80390  0.32965  0.16447  1.0000
  H   H1381     1.0  0.73601  0.45225  0.02168  1.0000
  H   H1382     1.0  0.80852  0.58465  0.03175  1.0000
  C   C870      1.0  0.80048  0.58871  0.01157  1.0000
  N   N87       1.0  0.80558  0.60888  0.00898  1.0000
  H   H1383     1.0  0.91807  0.65811  0.13704  1.0000
  C   C871      1.0  0.78330  0.41844  0.32380  1.0000
  H   H1384     1.0  0.78940  0.40066  0.40376  1.0000
  C   C872      1.0  0.81233  0.64551  0.46471  1.0000
  Fe  Fe174     1.0  0.76333  0.35993  0.44005  1.0000
  S   S349      1.0  0.74902  0.34230  0.39522  1.0000
  S   S350      1.0  0.75435  0.38391  0.45347  1.0000
  Fe  Fe175     1.0  0.77681  0.34423  0.37634  1.0000
  H   H1385     1.0  0.79033  0.42727  0.56773  1.0000
  S   S351      1.0  0.79120  0.36289  0.41996  1.0000
  S   S352      1.0  0.76481  0.48145  0.55973  1.0000
  S   S353      1.0  0.80066  0.46204  0.51386  1.0000
  H   H1386     1.0  0.74602  0.57034  0.52692  1.0000
  H   H1387     1.0  0.77270  0.40934  0.59188  1.0000
  C   C873      1.0  0.78442  0.64590  0.49485  1.0000
  N   N88       1.0  0.79944  0.58801  0.52354  1.0000
  C   C874      1.0  0.76733  0.40526  0.47162  1.0000
  C   C875      1.0  0.78579  0.41007  0.47782  1.0000
  C   C876      1.0  0.79576  0.42756  0.49041  1.0000
  C   C877      1.0  0.78738  0.44035  0.49747  1.0000
  C   C878      1.0  0.76885  0.43544  0.49183  1.0000
  C   C879      1.0  0.75893  0.41803  0.47878  1.0000
  H   H1388     1.0  0.79244  0.40037  0.47267  1.0000
  H   H1389     1.0  0.81008  0.43119  0.49481  1.0000
  H   H1390     1.0  0.76222  0.44513  0.49705  1.0000
  H   H1391     1.0  0.74465  0.41445  0.47404  1.0000
  C   C880      1.0  0.76980  0.38727  0.34695  1.0000
  H   H1392     1.0  0.80690  0.45025  0.63113  1.0000
  H   H1393     1.0  0.80441  0.39025  0.35471  1.0000
  H   H1394     1.0  0.95169  0.61928  0.44453  1.0000
  H   H1395     1.0  0.90894  0.61838  0.40446  1.0000
  H   H1396     1.0  0.94922  0.64018  0.45848  1.0000
  H   H1397     1.0  0.80172  0.45858  0.58955  1.0000
  H   H1398     1.0  0.75714  0.38923  0.35618  1.0000
  N   N89       1.0  0.77978  0.43607  0.61416  1.0000
  H   H1399     1.0  0.93113  0.61797  0.39519  1.0000
  H   H1400     1.0  0.91891  0.64112  0.47138  1.0000
  H   H1401     1.0  0.96505  0.32842  0.55626  1.0000
  S   S354      1.0  0.76052  0.63485  0.50359  1.0000
  S   S355      1.0  0.88606  0.65127  0.45994  1.0000
  H   H1402     1.0  0.94449  0.62106  0.48959  1.0000
  H   H1403     1.0  0.89913  0.62091  0.46641  1.0000
  C   C881      1.0  0.79599  0.45291  0.61647  1.0000
  Fe  Fe176     1.0  0.73851  0.64159  0.53625  1.0000
  S   S356      1.0  0.76037  0.33539  0.47579  1.0000
  H   H1404     1.0  0.79515  0.41832  0.60901  1.0000
  H   H1405     1.0  0.77539  0.41369  0.39436  1.0000
  Fe  Fe177     1.0  0.79204  0.48511  0.53484  1.0000
  H   H1406     1.0  0.79955  0.42394  0.38699  1.0000
  C   C882      1.0  0.78765  0.41103  0.38481  1.0000
  H   H1407     1.0  0.81944  0.61088  0.49509  1.0000
  H   H1408     1.0  0.82191  0.58914  0.48906  1.0000
  C   C883      1.0  0.79033  0.56800  0.51952  1.0000
  C   C884      1.0  0.76570  0.44038  0.59474  1.0000
  Fe  Fe178     1.0  0.78734  0.33687  0.45207  1.0000
  N   N90       1.0  0.78575  0.40441  0.34809  1.0000
  Fe  Fe179     1.0  0.87693  0.63230  0.41476  1.0000
  H   H1409     1.0  0.79273  0.46386  0.63034  1.0000
  S   S357      1.0  0.86975  0.60147  0.41924  1.0000
  S   S358      1.0  0.85680  0.64431  0.39551  1.0000
  S   S359      1.0  0.89914  0.64957  0.37638  1.0000
  Fe  Fe180     1.0  0.80807  0.52562  0.55557  1.0000
  S   S360      1.0  0.78209  0.52421  0.58342  1.0000
  S   S361      1.0  0.83092  0.55337  0.55711  1.0000
  H   H1410     1.0  0.81715  0.60621  0.56012  1.0000
  H   H1411     1.0  0.79231  0.61200  0.52917  1.0000
  C   C885      1.0  0.85835  0.58851  0.45753  1.0000
  C   C886      1.0  0.86049  0.59612  0.49117  1.0000
  C   C887      1.0  0.85237  0.58505  0.52149  1.0000
  C   C888      1.0  0.84143  0.56649  0.51833  1.0000
  C   C889      1.0  0.83893  0.55901  0.48462  1.0000
  C   C890      1.0  0.84762  0.56991  0.45444  1.0000
  H   H1412     1.0  0.86868  0.61041  0.49401  1.0000
  H   H1413     1.0  0.85446  0.59092  0.54751  1.0000
  H   H1414     1.0  0.83064  0.54472  0.48185  1.0000
  H   H1415     1.0  0.84599  0.56389  0.42854  1.0000
  C   C891      1.0  0.81180  0.59593  0.49242  1.0000
  H   H1416     1.0  0.82025  0.58469  0.55562  1.0000
  H   H1417     1.0  0.76149  0.45070  0.60885  1.0000
  C   C892      1.0  0.79340  0.63764  0.47183  1.0000
  H   H1418     1.0  0.77070  0.44609  0.56750  1.0000
  H   H1419     1.0  0.78563  0.62505  0.45930  1.0000
  H   H1420     1.0  0.81891  0.63891  0.44705  1.0000
  C   C893      1.0  0.80990  0.59128  0.55634  1.0000
  Fe  Fe181     1.0  0.78055  0.49668  0.60583  1.0000
  H   H1421     1.0  0.80430  0.59419  0.46730  1.0000
  H   H1422     1.0  0.92857  0.63875  0.40947  1.0000
  H   H1423     1.0  0.80034  0.56093  0.51798  1.0000
  Fe  Fe182     1.0  0.76894  0.50932  0.53529  1.0000
  H   H1424     1.0  0.74189  0.56804  0.48007  1.0000
  H   H1425     1.0  0.77629  0.59137  0.54930  1.0000
  H   H1426     1.0  0.77769  0.59492  0.50164  1.0000
  H   H1427     1.0  0.78241  0.56487  0.49491  1.0000
  S   S362      1.0  0.80763  0.49922  0.58194  1.0000
  H   H1428     1.0  0.78088  0.56148  0.54248  1.0000
  S   S363      1.0  0.75002  0.52056  0.50655  1.0000
  H   H1429     1.0  0.80102  0.58544  0.58035  1.0000
  C   C894      1.0  0.78579  0.59690  0.52600  1.0000
  S   S364      1.0  0.79506  0.51194  0.50640  1.0000
  N   N91       1.0  0.92415  0.61796  0.45084  1.0000
  C   C895      1.0  0.91650  0.59770  0.45484  1.0000
  C   C896      1.0  0.91357  0.62583  0.47379  1.0000
  C   C897      1.0  0.92318  0.62351  0.41334  1.0000
  C   C898      1.0  0.94325  0.62488  0.46134  1.0000
  H   H1430     1.0  0.91688  0.59299  0.48287  1.0000
  H   H1431     1.0  0.92404  0.59122  0.43775  1.0000
  H   H1432     1.0  0.90204  0.59223  0.44711  1.0000
  H   H1433     1.0  0.91390  0.62190  0.50231  1.0000
  C   C899      1.0  0.73584  0.56332  0.50718  1.0000
  H   H1434     1.0  0.77148  0.37640  0.36449  1.0000
  S   S365      1.0  0.77082  0.48327  0.66098  1.0000
  C   C900      1.0  0.78469  0.42210  0.59497  1.0000
  S   S366      1.0  0.80559  0.33199  0.49396  1.0000
  H   H1435     1.0  0.75337  0.42796  0.59179  1.0000
  C   C901      1.0  0.77271  0.42901  0.65042  1.0000
  H   H1436     1.0  0.76036  0.41640  0.64967  1.0000
  C   C902      1.0  0.80219  0.40080  0.33687  1.0000
  H   H1437     1.0  0.81453  0.41341  0.33715  1.0000
  H   H1438     1.0  0.73340  0.54838  0.51009  1.0000
  H   H1439     1.0  0.77097  0.42140  0.33155  1.0000
  H   H1440     1.0  0.81952  0.47392  0.87354  1.0000
  H   H1441     1.0  0.78788  0.45415  0.80123  1.0000
  H   H1442     1.0  0.75727  0.47300  0.73290  1.0000
  H   H1443     1.0  0.81143  0.43961  0.80301  1.0000
  Fe  Fe183     1.0  0.78599  0.47585  0.92392  1.0000
  S   S367      1.0  0.76815  0.47838  0.88004  1.0000
  H   H1444     1.0  0.76863  0.48523  0.79159  1.0000
  C   C903      1.0  0.76982  0.48462  0.73410  1.0000
  C   C904      1.0  0.82186  0.47555  0.78315  1.0000
  H   H1445     1.0  0.75772  0.64801  0.75661  1.0000
  C   C905      1.0  0.78492  0.41485  0.95541  1.0000
  C   C906      1.0  0.82460  0.47973  0.84632  1.0000
  S   S368      1.0  0.79010  0.44842  0.92313  1.0000
  H   H1446     1.0  0.79253  0.47604  0.82061  1.0000
  H   H1447     1.0  0.78599  0.41032  0.92878  1.0000
  H   H1448     1.0  0.83325  0.45199  0.82057  1.0000
  H   H1449     1.0  0.78784  0.65426  0.85146  1.0000
  H   H1450     1.0  0.79702  0.62876  0.98190  1.0000
  C   C907      1.0  0.78663  0.43318  0.96057  1.0000
  H   H1451     1.0  0.82261  0.49312  0.84326  1.0000
  N   N92       1.0  0.81513  0.46700  0.81870  1.0000
  Fe  Fe184     1.0  0.78959  0.50572  0.86681  1.0000
  C   C908      1.0  0.76737  0.65771  0.77449  1.0000
  H   H1452     1.0  0.81362  0.44307  0.84999  1.0000
  H   H1453     1.0  0.83945  0.48269  0.84489  1.0000
  H   H1454     1.0  0.78981  0.45627  0.84853  1.0000
  C   C909      1.0  0.75488  0.63692  0.82489  1.0000
  C   C910      1.0  0.79546  0.46315  0.82239  1.0000
  C   C911      1.0  0.81853  0.44965  0.82315  1.0000
  S   S369      1.0  0.77298  0.48841  0.96443  1.0000
  C   C912      1.0  0.77626  0.49151  0.76747  1.0000
  C   C913      1.0  0.82480  0.55689  0.98705  1.0000
  H   H1455     1.0  0.78405  0.62769  0.81389  1.0000
  C   C914      1.0  0.77929  0.49284  0.70228  1.0000
  H   H1456     1.0  0.74546  0.62635  0.80813  1.0000
  H   H1457     1.0  0.78036  0.38814  0.98025  1.0000
  H   H1458     1.0  0.77190  0.62527  0.77346  1.0000
  C   C915      1.0  0.84818  0.58191  0.95440  1.0000
  H   H1459     1.0  0.82633  0.61278  0.96811  1.0000
  Fe  Fe185     1.0  0.79397  0.51576  0.94568  1.0000
  Fe  Fe186     1.0  0.75696  0.49308  0.91932  1.0000
  S   S370      1.0  0.77694  0.52100  0.90263  1.0000
  H   H1460     1.0  0.75769  0.62971  0.84865  1.0000
  N   N93       1.0  0.77175  0.64786  0.80489  1.0000
  H   H1461     1.0  0.74871  0.41430  0.98555  1.0000
  S   S371      1.0  0.80831  0.50266  0.90889  1.0000
  H   H1462     1.0  0.77907  0.60771  0.99418  1.0000
  H   H1463     1.0  0.85495  0.58794  0.92936  1.0000
  H   H1464     1.0  0.82907  0.63262  0.99418  1.0000
  H   H1465     1.0  0.81487  0.46647  0.76155  1.0000
  S   S372      1.0  0.80187  0.51511  0.81083  1.0000
  H   H1466     1.0  0.80291  0.51439  0.68006  1.0000
  H   H1467     1.0  0.82920  0.55801  0.93025  1.0000
  H   H1468     1.0  0.83668  0.47873  0.77938  1.0000
  H   H1469     1.0  0.90579  0.64399  0.97813  1.0000
  C   C916      1.0  0.79248  0.50653  0.76945  1.0000
  S   S373      1.0  0.87205  0.61277  0.98427  1.0000
  H   H1470     1.0  0.73447  0.43418  0.93047  1.0000
  C   C917      1.0  0.78173  0.40223  0.98452  1.0000
  H   H1471     1.0  0.73701  0.45429  0.95508  1.0000
  H   H1472     1.0  0.75446  0.44457  0.95513  1.0000
  H   H1473     1.0  0.80291  0.58306  0.98580  1.0000
  Fe  Fe187     1.0  0.74507  0.65415  0.92372  1.0000
  C   C918      1.0  0.83362  0.56489  0.95483  1.0000
  H   H1474     1.0  0.81457  0.52627  0.73881  1.0000
  C   C919      1.0  0.79346  0.61364  0.98450  1.0000
  H   H1475     1.0  0.81944  0.48872  0.77937  1.0000
  C   C920      1.0  0.80202  0.51465  0.73765  1.0000
  C   C921      1.0  0.79543  0.50794  0.70425  1.0000
  H   H1476     1.0  0.73441  0.53605  0.97637  1.0000
  C   C922      1.0  0.78075  0.63549  0.79160  1.0000
  H   H1477     1.0  0.91704  0.63069  0.95661  1.0000
  H   H1478     1.0  0.79362  0.64329  0.77657  1.0000
  H   H1479     1.0  0.94621  0.64632  0.92320  1.0000
  H   H1480     1.0  0.94495  0.64795  0.98889  1.0000
  S   S374      1.0  0.80566  0.53615  0.98931  1.0000
  C   C923      1.0  0.73953  0.44112  0.95563  1.0000
  H   H1481     1.0  0.74744  0.64573  0.83447  1.0000
  H   H1482     1.0  0.90609  0.64308  0.93066  1.0000
  H   H1483     1.0  0.79438  0.60859  0.95738  1.0000
  C   C924      1.0  0.85391  0.59120  0.98604  1.0000
  C   C925      1.0  0.91439  0.64376  0.95445  1.0000
  C   C926      1.0  0.73397  0.41193  0.98615  1.0000
  H   H1484     1.0  0.73503  0.48160  0.99404  1.0000
  C   C927      1.0  0.78533  0.43888  0.99512  1.0000
  H   H1485     1.0  0.98216  0.32944  0.94731  1.0000
  C   C928      1.0  0.82452  0.61736  0.99527  1.0000
  H   H1486     1.0  0.78295  0.42557  0.66592  1.0000
  H   H1487     1.0  0.76899  0.43942  0.66538  1.0000
  C   C929      1.0  0.94261  0.65887  0.92137  1.0000
  H   H1488     1.0  0.93538  0.65841  0.89617  1.0000
  S   S375      1.0  0.88245  0.67548  0.08673  1.0000
  H   H1489     1.0  0.91721  0.70286  0.16787  1.0000
  Fe  Fe188     1.0  0.90271  0.67273  0.04575  1.0000
  S   S376      1.0  0.93094  0.69589  0.03699  1.0000
  H   H1490     1.0  0.94993  0.70615  0.11825  1.0000
  S   S377      1.0  0.87426  0.67398  0.30763  1.0000
  C   C930      1.0  0.95477  0.70101  0.04372  1.0000
  C   C931      1.0  0.96183  0.68777  0.05538  1.0000
  H   H1491     1.0  0.91875  0.66720  0.19850  1.0000
  H   H1492     1.0  0.95287  0.67376  0.06064  1.0000
  C   C932      1.0  0.96704  0.71908  0.03693  1.0000
  H   H1493     1.0  0.87065  0.66846  0.17778  1.0000
  C   C933      1.0  0.94938  0.70078  0.14617  1.0000
  C   C934      1.0  0.81799  0.66583  0.00805  1.0000
  H   H1494     1.0  0.96125  0.69641  0.14901  1.0000
  C   C935      1.0  0.93167  0.67880  0.19171  1.0000
  C   C936      1.0  0.87248  0.67084  0.23492  1.0000
  H   H1495     1.0  0.79644  0.66464  0.04539  1.0000
  C   C937      1.0  0.91684  0.69185  0.14931  1.0000
  H   H1496     1.0  0.96194  0.72955  0.02794  1.0000
  H   H1497     1.0  0.93326  0.66132  0.00927  1.0000
  H   H1498     1.0  0.86801  0.68243  0.23541  1.0000
  H   H1499     1.0  0.94296  0.67376  0.19650  1.0000
  H   H1500     1.0  0.93269  0.68979  0.21075  1.0000
  H   H1501     1.0  0.92949  0.67449  0.10230  1.0000
  S   S378      1.0  0.83388  0.66808  0.04240  1.0000
  C   C938      1.0  0.93046  0.67029  0.13037  1.0000
  N   N94       1.0  0.93211  0.68545  0.15444  1.0000
  H   H1502     1.0  0.91704  0.69743  0.12167  1.0000
  H   H1503     1.0  0.95115  0.71245  0.16394  1.0000
  C   C939      1.0  0.87401  0.66298  0.20218  1.0000
  H   H1504     1.0  0.90361  0.68042  0.15407  1.0000
  H   H1505     1.0  0.94227  0.66575  0.13191  1.0000
  C   C940      1.0  0.80016  0.66436  0.01759  1.0000
  C   C941      1.0  0.98071  0.69255  0.05972  1.0000
  C   C942      1.0  0.87649  0.66370  0.26702  1.0000
  Fe  Fe189     1.0  0.86030  0.66227  0.04787  1.0000
  S   S379      1.0  0.88075  0.66247  0.00513  1.0000
  H   H1506     1.0  0.77352  0.66173  0.99954  1.0000
  H   H1507     1.0  0.84071  0.69202  0.31319  1.0000
  H   H1508     1.0  0.81749  0.68840  0.32504  1.0000
  C   C943      1.0  0.83172  0.69540  0.33300  1.0000
  C   C944      1.0  0.97579  0.69234  0.43884  1.0000
  S   S380      1.0  0.88959  0.68468  0.40393  1.0000
  C   C945      1.0  0.82242  0.69416  0.39513  1.0000
  S   S381      1.0  0.84652  0.67295  0.47155  1.0000
  H   H1509     1.0  0.86301  0.69584  0.35993  1.0000
  S   S382      1.0  0.93827  0.67704  0.43439  1.0000
  C   C946      1.0  0.96000  0.69544  0.42865  1.0000
  C   C947      1.0  0.96205  0.71295  0.41483  1.0000
  H   H1510     1.0  0.95019  0.71576  0.40701  1.0000
  C   C948      1.0  0.97942  0.72704  0.41188  1.0000
  C   C949      1.0  0.85354  0.69913  0.37863  1.0000
  C   C950      1.0  0.82262  0.66195  0.48028  1.0000
  H   H1511     1.0  0.82135  0.68299  0.51525  1.0000
  C   C951      1.0  0.81362  0.67028  0.50303  1.0000
  C   C952      1.0  0.79472  0.66232  0.51038  1.0000
  N   N95       1.0  0.83447  0.68958  0.36941  1.0000
  H   H1512     1.0  0.82513  0.70917  0.39473  1.0000
  S   S383      1.0  0.73649  0.66642  0.56305  1.0000
  H   H1513     1.0  0.97457  0.67898  0.44971  1.0000
  H   H1514     1.0  0.85724  0.71429  0.37768  1.0000
  H   H1515     1.0  0.85610  0.69507  0.40598  1.0000
  C   C953      1.0  0.83029  0.66955  0.37092  1.0000
  Fe  Fe190     1.0  0.90788  0.66947  0.42085  1.0000
  H   H1516     1.0  0.82437  0.68998  0.42286  1.0000
  H   H1517     1.0  0.98059  0.74054  0.40181  1.0000
  H   H1518     1.0  0.80789  0.68699  0.38934  1.0000
  Fe  Fe191     1.0  0.87988  0.66363  0.36166  1.0000
  Fe  Fe192     1.0  0.86696  0.66441  0.43847  1.0000
  H   H1519     1.0  0.83224  0.66474  0.39806  1.0000
  H   H1520     1.0  0.78814  0.66890  0.52812  1.0000
  H   H1521     1.0  0.83921  0.66560  0.35194  1.0000
  H   H1522     1.0  0.81601  0.66185  0.36413  1.0000
  H   H1523     1.0  0.73713  0.71616  0.61074  1.0000
  H   H1524     1.0  0.83483  0.71047  0.33075  1.0000
  H   H1525     1.0  0.81345  0.66463  0.91799  1.0000
  C   C954      1.0  0.78708  0.66269  0.99159  1.0000
  C   C955      1.0  0.80958  0.66433  0.94583  1.0000
  H   H1526     1.0  0.93947  0.68945  0.94899  1.0000
  C   C956      1.0  0.92701  0.67688  0.94913  1.0000
  H   H1527     1.0  0.77724  0.67033  0.84034  1.0000
  H   H1528     1.0  0.91821  0.67794  0.97184  1.0000
  H   H1529     1.0  0.77970  0.66576  0.75817  1.0000
  C   C957      1.0  0.79174  0.66288  0.95541  1.0000
  S   S384      1.0  0.77606  0.66171  0.92116  1.0000
  H   H1530     1.0  0.73553  0.67616  0.73327  1.0000
  H   H1531     1.0  0.79659  0.67020  0.81435  1.0000
  H   H1532     1.0  0.83622  0.66693  0.96395  1.0000
  H   H1533     1.0  0.76093  0.66747  0.78371  1.0000
  C   C958      1.0  0.82256  0.66561  0.97190  1.0000
  H   H1534     1.0  0.91973  0.67724  0.92435  1.0000
  C   C959      1.0  0.78392  0.66126  0.82865  1.0000
  H   H1535     1.0  0.95551  0.67096  0.91920  1.0000
  H   H1536     1.0  0.95425  0.67264  0.98499  1.0000
  C   C960      1.0  0.94142  0.66046  0.98531  1.0000
  N   N96       1.0  0.93136  0.65999  0.95253  1.0000
