data_image0
_chemical_formula_structural       FeS2FeSFeHFeS3FeS2FeC2Fe2S2FeS2FeS2FeSFeS3HFeS2FeCSFeSHS3C2HCHC3H5SHC4H3C6H5NHC7H4C6H5CH5FeCNHCNC4H12NC4H10NCH6NH6CH4CH5SH2CSHCH2CHC2HCHC2H3CHCH3CFeSCFeS2FeCFeS3HCH5NFeS2FeS2FeSFeS3H2C2HC2HC3H4C6H6C3H3C3HCH2C2H2C2HCHC3HC2HSH2C6H4CHSHCH2NHCH4NCHCHCH4CHNH2CHCHNCH2CHCH5CH3CH3C2H3NH5C2HSH4CH6CHCSHSFeS2FeCFeS2FeS4FeS2CH3S2FeSCFeSFeCFeS2H2C7H5CFeS2H4CHCFeH2CHC6H4CNH2NS2H2C3H2CHC2H7CHCH2C2H3FeHFeHSH6CNSH2CSFeCH2NC5HCH12FeC2H2CH4C2HC2H4C2H2NCSCH4FeH3S2FeSHFeS2FeSFeHS2CSCSHFeS2FeS2FeSFeS3C2HCH3C2HC3SCH2C6H4C2H6C3HC4HCH2CSCHCHC3H2C6H4CH2SHNH3SH14SH2CNHFeCH2C3HCH5NCNHNCSHC2NH4SHNH2CH5CH6CH2SCH2CHFeCSCHC2H5CHCH4NHFeHSH2CHSHSHFeHFeSH2FeS2FeSFeSFeS3C5SHFeSFeCH2FeS2FeS2FeSFeS3C4H2C3H2C6H5C3HCH2S2H4CSH2CHC6H4C3S2CH4C6H5CHC2H4CH2FeH4CH2NC4H12C2NH2CNH3NHCNH3NC4H13C2HCH3CHCHCH4C2HCH6C2HC2H2CHCH3FeS2FeS2FeSFeHS2FeHSFeHFeS2FeS2FeSCFeSFeS3FeHSFeHSCSH2S2C3HC2HCFeH2C6H4SH5C6H4C6H6CHC6H5CH6CHCH2CNH2CH3SHCH3SHCHSHCHC2NHNHCHCHCHCH5CH4SHSHFeHCSH2CHSC2HCH2CH3FeSHFeS2FeSFeS3H2CHCSH3CH6SCHFeS2FeS2FeSFeS3C6H6C3H6CHC7H3C2SC2HCH2FeH2C4H6C6H2CHC6HCH2NC4H10SHNC2H2CH2C3NCHSHSH4NCHC2H2CHCH3C2HC2H3CH4CHNH4CHNSCH3CH4NH2CHSHCH2FeH3CH5CH3CH2SH7SHFe2S2FeCFeS3FeS3HFeS2FeSCFeHFeSNSCSFeS2CH3C6H4C3H2CH3SCH2CHSC4SH3C8H9SCHCH2SNC4H14CHFe2SHC2HC2H2CH2SH2CNC4FeHC3NH2NC4H14SHCHSH3FeH2CSH2C3H3C3HC2HCH6CH2CHC2H2CH3CH2FeHS2HC2HCNCH2CH2SHNFeS2FeS2FeSFeS4HCFeS2FeSFeSFeS3CHC6H4CH3C4H2CHC3H3CHNHC2HCHCH4C6H4C4H4CH3CH2C2HCHCSHCHSCH5NCH4NH6CH5C2H2CHNHSCHSFeC2H2CH2CHCHCH3SH2SH2SFeHC3HC4H7CHCNHCH4CH2SHFeCH2NH3CH2NCH5FeS2FeS2FeHFeS3FeHSCH2CH3CFeSH2SFeSFeSC2FeS2FeS2FeSFeS3CHNCSHC2H3C6H4C6H3NC2H4SC6H4C2H5C7H3NC4H3SH12NC4H10CHCHNH3CH4CH2SH3CH3FeCH2NCH2CH3CH2C3HSH2SNH12C2HCH2C4SHNCH5CFeS2FeS2FeSFeS3FeCSCSHNCS2HFeS2FeS2FeSFeS3HFeSFeS2FeSFeS2HSHCH2CHC5HCH4C6H4CH3C4H4C6H4C6H4C6H8CNCHCH2C2HC2H4CH2CHCNH2CH4NHCH4NHCH3CH2SHCH4CH3CH2CH2CNHC2HCH4CH4CFeNC4H17CHCH7CHSHCH2CHCHCH2C3NCHCH3SHFeS2FeSCFeSFeS4FeS2FeS2FeHFeS3H2CNHC6H4C6HCH2CNHC3H2C6H4C6HFeH4NH2C4HCH2S2H8CSH6CHSH2NC4H13C2H2CHCH3CNH3CH3C2SCH3FeH3C2HCHC2HSH5SCNCH2CH4Fe2S3C2HS2FeSHSHFeS4HFeS2FeS2HS2CFeS2HSHC6H4CH3FeH2CHC2HC3HC6H4N2C4H13CSH6FeH3CH2FeHCH3CHFe2CHFeH3SFeHCNH2CHFeH2CH2CHCNC2HC2H2CHFeHC2H3CHC2SNH6SH2CSC3HCSCNH8CFeS2FeS2FeSFeHS2C2S2FeSFeS2FeSFeS3HCHNSCHC3H2CHCH2SC6H4C2H3CH4C8HCH3CH2C3H5CH4C3SCH2NC4H14CHCH6N2HCHCH2CH4C2NH2SC4HC2HCHCHCH14CH2CHCHNHSNH3C2HFeH3CSCH6SFeS2FeSFeSHFeS2FeS2FeSFeS3FeS2FeS2FeSFeS5CHSCFeSFeH6C3HC2HC2H2C5HCHSH2C6H4C6H5CH3CH2CHC6H2CHC6H6CSCHNC4H12CH3CHCFeHN2C2H6CNHC3H5CH2CH3NHSH2SH2CHSHC2FeCHCHNH7CH2NC2HCSH2CH3C2H5CH4C4H2CHSCH6FeS2FeS2FeSFeS3HFeS2HCHFeH2SHFeS2FeSFeSFeS3FeSC2SCFeSFeHSCH6C6H4C3HCHC2HC2H2C2H2C2H4C6H4C6H4C4H3C2H3S2NC5H2CSH7NHNH2C2H6C2H3C2HCHFeNH2CH3CH8C2HNHCH2NC2H7CH3SCNH4CHCH3SH6FeS2FeS2FeSFeS3HSHS2H3FeS2FeS2FeHFeS3C6H6CH2CHC6H5C6H4C4HCH3CHC4SCH2NFeH6C4H4SCHCHCSCHNC2HCSFeH2NHNC2H5CH3CH5C2SHFeH2C2H2CHCH4CH2C3NH2CSCH5CH2SHCHCNCH2NCH5CH2CH6CH2CH5CH2SH3Fe2HCHCH2FeH3NH2CHFeS2FeSHFeSCSFeS2HCS2FeSFeS2Fe2S2FeHSH2C6H5C4H2C3SHC6H5SHCH4CH4SHCH4CH2CH2CHSCHC3H2C2HNH2CFeH3CH2CH2FeC2NC4H12CHCHCH2NCHC2HNH8CSCHSCH3FeCHSH2CHSCHCHSFeS2FeS2FeSFeS4CSFeSHFeSHFeSFeS2HSC6H4C5H4FeH2C6H4CHC3H3CHC2FeC2H7CHC3H3CH2CH3CH3NHCH2CH5C3H2C2HCH4CHCH2CNH6CH3C2H2CH2CH2CHN2SH5C3SH2C3NFeS2FeS2FeSFeS3FeHSFeHSCH2S2FeS2FeS2FeSFeS3FeH2FeHSFeHSCH2CSCH3C7H7C4FeHCH2CHC6H8SC6H4C4H2C2H2NH8C2NH9C2HCNC4H12NC4H3CHNHSNCH6CHC2HNCH4CH7CHCHSCH2C
_chemical_formula_sum              "Fe256 S512 H2048 C1280 N128"
_cell_length_a       65.2673
_cell_length_b       65.4222
_cell_length_c       79.1649
_cell_angle_alpha    81.5536
_cell_angle_beta     81.4854
_cell_angle_gamma    80.7524

_space_group_name_H-M_alt    "P 1"
_space_group_IT_number       1

loop_
  _space_group_symop_operation_xyz
  'x, y, z'

loop_
  _atom_site_type_symbol
  _atom_site_label
  _atom_site_symmetry_multiplicity
  _atom_site_fract_x
  _atom_site_fract_y
  _atom_site_fract_z
  _atom_site_occupancy
  Fe  Fe1       1.0  0.41126  0.23559  0.04481  1.0000
  S   S1        1.0  0.41567  0.20103  0.04292  1.0000
  S   S2        1.0  0.38026  0.25548  0.03991  1.0000
  Fe  Fe2       1.0  0.45747  0.23478  0.04854  1.0000
  S   S3        1.0  0.46045  0.19541  0.00060  1.0000
  Fe  Fe3       1.0  0.44560  0.20643  0.02584  1.0000
  H   H1        1.0  0.42573  0.28748  0.01956  1.0000
  Fe  Fe4       1.0  0.43490  0.19800  0.06480  1.0000
  S   S4        1.0  0.43148  0.17717  0.09039  1.0000
  S   S5        1.0  0.43961  0.24095  0.02587  1.0000
  S   S6        1.0  0.42859  0.23237  0.06771  1.0000
  Fe  Fe5       1.0  0.43604  0.06014  0.12965  1.0000
  S   S7        1.0  0.45166  0.07290  0.14837  1.0000
  S   S8        1.0  0.42499  0.08000  0.10571  1.0000
  Fe  Fe6       1.0  0.44332  0.01495  0.14831  1.0000
  C   C1        1.0  0.24878  0.43798  0.08318  1.0000
  C   C2        1.0  0.42317  0.28567  0.05401  1.0000
  Fe  Fe7       1.0  0.43490  0.05178  0.16891  1.0000
  Fe  Fe8       1.0  0.47563  0.04456  0.14549  1.0000
  S   S9        1.0  0.41685  0.04149  0.15044  1.0000
  S   S10       1.0  0.46101  0.03255  0.12566  1.0000
  Fe  Fe9       1.0  0.30143  0.35452  0.06118  1.0000
  S   S11       1.0  0.26908  0.34662  0.06177  1.0000
  S   S12       1.0  0.32556  0.33164  0.07512  1.0000
  Fe  Fe10      1.0  0.28933  0.39921  0.04360  1.0000
  S   S13       1.0  0.25621  0.39433  0.04278  1.0000
  S   S14       1.0  0.29807  0.43077  0.03167  1.0000
  Fe  Fe11      1.0  0.25724  0.37840  0.06987  1.0000
  S   S15       1.0  0.23493  0.38680  0.09368  1.0000
  Fe  Fe12      1.0  0.27105  0.36323  0.03467  1.0000
  S   S16       1.0  0.26270  0.34797  0.01335  1.0000
  S   S17       1.0  0.28963  0.38539  0.07113  1.0000
  S   S18       1.0  0.30421  0.36909  0.03355  1.0000
  H   H2        1.0  0.25475  0.33462  0.14157  1.0000
  Fe  Fe13      1.0  0.11787  0.38385  0.13847  1.0000
  S   S19       1.0  0.12607  0.40478  0.15581  1.0000
  S   S20       1.0  0.13928  0.37328  0.11490  1.0000
  Fe  Fe14      1.0  0.07377  0.38094  0.15907  1.0000
  C   C3        1.0  0.24489  0.45639  0.05483  1.0000
  S   S21       1.0  0.04336  0.36708  0.16653  1.0000
  Fe  Fe15      1.0  0.09311  0.42073  0.15435  1.0000
  S   S22       1.0  0.08300  0.45520  0.15040  1.0000
  H   H3        1.0  0.43888  0.27682  0.05601  1.0000
  S   S23       1.0  0.08556  0.40150  0.13553  1.0000
  S   S24       1.0  0.10524  0.36119  0.16031  1.0000
  S   S25       1.0  0.46050  0.02452  0.16774  1.0000
  C   C4        1.0  0.14449  0.46249  0.14678  1.0000
  C   C5        1.0  0.43756  0.31799  0.04698  1.0000
  H   H4        1.0  0.25387  0.44277  0.04876  1.0000
  C   C6        1.0  0.00337  0.40062  0.13435  1.0000
  H   H5        1.0  0.03971  0.46850  0.16506  1.0000
  C   C7        1.0  0.02883  0.44585  0.14290  1.0000
  C   C8        1.0  0.02152  0.39290  0.14223  1.0000
  C   C9        1.0  0.02089  0.37725  0.15630  1.0000
  H   H6        1.0  0.39388  0.30567  0.03436  1.0000
  H   H7        1.0  0.46735  0.08418  0.10373  1.0000
  H   H8        1.0  0.41390  0.27488  0.04985  1.0000
  H   H9        1.0  0.03609  0.39879  0.13727  1.0000
  H   H10       1.0  0.04801  0.48018  0.13418  1.0000
  S   S26       1.0  0.46527  0.20040  0.04757  1.0000
  H   H11       1.0  0.21132  0.47782  0.07145  1.0000
  C   C10       1.0  0.29736  0.47111  0.03783  1.0000
  C   C11       1.0  0.29850  0.45005  0.04499  1.0000
  C   C12       1.0  0.29910  0.44485  0.06269  1.0000
  C   C13       1.0  0.29832  0.46061  0.07318  1.0000
  H   H12       1.0  0.41530  0.28998  0.06671  1.0000
  H   H13       1.0  0.30033  0.42869  0.06830  1.0000
  H   H14       1.0  0.29889  0.45648  0.08686  1.0000
  C   C14       1.0  0.20830  0.38306  0.09912  1.0000
  C   C15       1.0  0.19806  0.37346  0.08881  1.0000
  C   C16       1.0  0.17694  0.37062  0.09382  1.0000
  C   C17       1.0  0.16583  0.37735  0.10912  1.0000
  C   C18       1.0  0.17611  0.38700  0.11940  1.0000
  C   C19       1.0  0.19723  0.38980  0.11442  1.0000
  H   H15       1.0  0.20636  0.36818  0.07701  1.0000
  H   H16       1.0  0.16913  0.36314  0.08579  1.0000
  H   H17       1.0  0.16781  0.39214  0.13124  1.0000
  H   H18       1.0  0.20502  0.39715  0.12254  1.0000
  H   H19       1.0  0.26039  0.39248  0.00288  1.0000
  N   N1        1.0  0.23365  0.44980  0.07189  1.0000
  H   H20       1.0  0.02941  0.48010  0.11958  1.0000
  C   C20       1.0  0.02284  0.47092  0.16329  1.0000
  C   C21       1.0  0.36568  0.27674  0.04998  1.0000
  C   C22       1.0  0.36927  0.28109  0.06600  1.0000
  C   C23       1.0  0.35699  0.29805  0.07351  1.0000
  C   C24       1.0  0.34109  0.31082  0.06507  1.0000
  C   C25       1.0  0.33767  0.30653  0.04901  1.0000
  C   C26       1.0  0.34983  0.28953  0.04158  1.0000
  H   H21       1.0  0.38118  0.27119  0.07276  1.0000
  H   H22       1.0  0.35967  0.30120  0.08598  1.0000
  H   H23       1.0  0.32547  0.31617  0.04239  1.0000
  H   H24       1.0  0.34685  0.28626  0.02922  1.0000
  C   C27       1.0  0.43028  0.15003  0.09406  1.0000
  C   C28       1.0  0.42956  0.13840  0.08073  1.0000
  C   C29       1.0  0.42771  0.11698  0.08448  1.0000
  C   C30       1.0  0.42702  0.10696  0.10149  1.0000
  C   C31       1.0  0.42802  0.11857  0.11475  1.0000
  C   C32       1.0  0.42951  0.14001  0.11105  1.0000
  H   H25       1.0  0.43031  0.14587  0.06756  1.0000
  H   H26       1.0  0.42697  0.10808  0.07414  1.0000
  H   H27       1.0  0.42721  0.11110  0.12792  1.0000
  H   H28       1.0  0.42996  0.14891  0.12146  1.0000
  H   H29       1.0  0.45092  0.28844  0.02576  1.0000
  C   C33       1.0  0.43513  0.29759  0.02448  1.0000
  H   H30       1.0  0.23398  0.46490  0.04578  1.0000
  H   H31       1.0  0.46914  0.10922  0.12357  1.0000
  H   H32       1.0  0.41531  0.20276  0.00095  1.0000
  H   H33       1.0  0.02696  0.44271  0.12981  1.0000
  H   H34       1.0  0.10283  0.43870  0.18093  1.0000
  Fe  Fe16      1.0  0.11116  0.38346  0.17750  1.0000
  C   C34       1.0  0.48650  0.10555  0.12145  1.0000
  N   N2        1.0  0.14877  0.48432  0.14419  1.0000
  H   H35       1.0  0.00404  0.41258  0.12336  1.0000
  C   C35       1.0  0.00195  0.36943  0.16242  1.0000
  N   N3        1.0  0.36824  0.18711  0.08358  1.0000
  C   C36       1.0  0.34570  0.19036  0.08174  1.0000
  C   C37       1.0  0.37624  0.20743  0.07998  1.0000
  C   C38       1.0  0.37970  0.17304  0.07125  1.0000
  C   C39       1.0  0.37136  0.17759  0.10131  1.0000
  H   H36       1.0  0.33920  0.17532  0.08422  1.0000
  H   H37       1.0  0.34287  0.19767  0.06850  1.0000
  H   H38       1.0  0.33655  0.20083  0.09091  1.0000
  H   H39       1.0  0.39318  0.20553  0.08144  1.0000
  H   H40       1.0  0.37439  0.21500  0.06661  1.0000
  H   H41       1.0  0.36787  0.21853  0.08893  1.0000
  H   H42       1.0  0.39681  0.17073  0.07201  1.0000
  H   H43       1.0  0.37737  0.17945  0.05773  1.0000
  H   H44       1.0  0.37459  0.15732  0.07390  1.0000
  H   H45       1.0  0.38824  0.17500  0.10311  1.0000
  H   H46       1.0  0.36577  0.16210  0.10442  1.0000
  H   H47       1.0  0.36296  0.18772  0.11101  1.0000
  N   N4        1.0  0.26599  0.32967  0.11537  1.0000
  C   C40       1.0  0.26494  0.32283  0.13408  1.0000
  C   C41       1.0  0.24470  0.33269  0.11025  1.0000
  C   C42       1.0  0.27969  0.31369  0.10587  1.0000
  C   C43       1.0  0.27468  0.34958  0.11130  1.0000
  H   H48       1.0  0.25841  0.30785  0.13763  1.0000
  H   H49       1.0  0.24480  0.33817  0.09625  1.0000
  H   H50       1.0  0.23761  0.31799  0.11300  1.0000
  H   H51       1.0  0.23400  0.34474  0.11713  1.0000
  H   H52       1.0  0.29597  0.31131  0.10922  1.0000
  H   H53       1.0  0.28091  0.31840  0.09171  1.0000
  H   H54       1.0  0.27372  0.29839  0.10859  1.0000
  H   H55       1.0  0.27551  0.35512  0.09732  1.0000
  H   H56       1.0  0.29085  0.34795  0.11472  1.0000
  H   H57       1.0  0.26475  0.36214  0.11810  1.0000
  N   N5        1.0  0.02003  0.46753  0.14576  1.0000
  C   C44       1.0  0.08692  0.46678  0.16797  1.0000
  H   H58       1.0  0.01488  0.46007  0.17331  1.0000
  H   H59       1.0  0.20653  0.44467  0.06142  1.0000
  H   H60       1.0  0.45361  0.30974  0.04871  1.0000
  H   H61       1.0  0.28073  0.32049  0.13838  1.0000
  H   H62       1.0  0.14373  0.45677  0.13435  1.0000
  H   H63       1.0  0.16903  0.48078  0.12050  1.0000
  N   N6        1.0  0.42487  0.30426  0.04111  1.0000
  H   H64       1.0  0.26004  0.44792  0.08567  1.0000
  H   H65       1.0  0.00140  0.35717  0.17319  1.0000
  H   H66       1.0  0.15667  0.45175  0.15343  1.0000
  H   H67       1.0  0.25800  0.42438  0.07728  1.0000
  H   H68       1.0  0.20953  0.43094  0.08257  1.0000
  H   H69       1.0  0.04586  0.44263  0.14409  1.0000
  C   C45       1.0  0.26195  0.38479  0.99146  1.0000
  H   H70       1.0  0.02108  0.43432  0.15244  1.0000
  H   H71       1.0  0.47011  0.12120  0.09227  1.0000
  H   H72       1.0  0.21431  0.46410  0.09260  1.0000
  H   H73       1.0  0.25628  0.46698  0.05585  1.0000
  C   C46       1.0  0.48471  0.08114  0.10177  1.0000
  H   H74       1.0  0.43031  0.32322  0.05955  1.0000
  H   H75       1.0  0.42147  0.01569  0.18572  1.0000
  H   H76       1.0  0.43928  0.33220  0.03754  1.0000
  H   H77       1.0  0.12922  0.46094  0.15478  1.0000
  H   H78       1.0  0.29694  0.47524  0.02412  1.0000
  S   S27       1.0  0.07904  0.40169  0.17764  1.0000
  H   H79       1.0  0.23417  0.47893  0.08124  1.0000
  H   H80       1.0  0.16177  0.48115  0.16808  1.0000
  C   C47       1.0  0.21818  0.43637  0.06992  1.0000
  S   S28       1.0  0.48240  0.25543  0.04693  1.0000
  H   H81       1.0  0.43714  0.31121  0.01447  1.0000
  C   C48       1.0  0.03099  0.48227  0.13298  1.0000
  H   H82       1.0  0.24077  0.43176  0.09586  1.0000
  H   H83       1.0  0.22595  0.42208  0.06421  1.0000
  C   C49       1.0  0.40370  0.31559  0.03902  1.0000
  H   H84       1.0  0.40433  0.32992  0.02956  1.0000
  C   C50       1.0  0.09791  0.45528  0.18100  1.0000
  C   C51       1.0  0.29665  0.48169  0.06611  1.0000
  H   H85       1.0  0.39525  0.32038  0.05143  1.0000
  C   C52       1.0  0.22283  0.46848  0.07966  1.0000
  H   H86       1.0  0.48881  0.21912  0.07217  1.0000
  C   C53       1.0  0.99747  0.47108  0.14388  1.0000
  C   C54       1.0  0.26374  0.36303  0.99297  1.0000
  H   H87       1.0  0.18212  0.47577  0.13952  1.0000
  H   H88       1.0  0.39196  0.00083  0.17879  1.0000
  H   H89       1.0  0.99481  0.46875  0.13077  1.0000
  C   C55       1.0  0.48745  0.11719  0.09100  1.0000
  H   H90       1.0  0.49116  0.09268  0.13162  1.0000
  C   C56       1.0  0.16909  0.48572  0.13334  1.0000
  H   H91       1.0  0.07018  0.34143  0.19056  1.0000
  H   H92       1.0  0.48946  0.06747  0.11118  1.0000
  H   H93       1.0  0.48950  0.07648  0.08865  1.0000
  C   C57       1.0  0.39264  0.98972  0.19088  1.0000
  Fe  Fe17      1.0  0.46429  0.04612  0.31928  1.0000
  S   S29       1.0  0.47292  0.01870  0.30476  1.0000
  C   C58       1.0  0.15468  0.22947  0.37447  1.0000
  Fe  Fe18      1.0  0.41729  0.04587  0.31953  1.0000
  S   S30       1.0  0.42275  0.01883  0.30394  1.0000
  S   S31       1.0  0.38438  0.06272  0.32702  1.0000
  Fe  Fe19      1.0  0.44656  0.00542  0.32185  1.0000
  C   C59       1.0  0.06065  0.45715  0.36819  1.0000
  Fe  Fe20      1.0  0.44865  0.03443  0.28800  1.0000
  S   S32       1.0  0.46306  0.03351  0.26032  1.0000
  S   S33       1.0  0.43989  0.03152  0.33834  1.0000
  S   S34       1.0  0.44129  0.06290  0.30169  1.0000
  H   H94       1.0  0.06443  0.47275  0.36965  1.0000
  C   C60       1.0  0.02110  0.36910  0.29653  1.0000
  H   H95       1.0  0.03571  0.43754  0.34074  1.0000
  H   H96       1.0  0.07045  0.29261  0.34734  1.0000
  H   H97       1.0  0.09480  0.34243  0.19763  1.0000
  H   H98       1.0  0.02782  0.36743  0.28338  1.0000
  H   H99       1.0  0.11354  0.45692  0.20287  1.0000
  N   N7        1.0  0.04865  0.45838  0.35355  1.0000
  Fe  Fe21      1.0  0.10794  0.40948  0.33080  1.0000
  S   S35       1.0  0.08252  0.41972  0.31413  1.0000
  S   S36       1.0  0.11421  0.43416  0.34592  1.0000
  Fe  Fe22      1.0  0.11140  0.36373  0.32492  1.0000
  S   S37       1.0  0.08647  0.37110  0.30722  1.0000
  S   S38       1.0  0.12258  0.32876  0.32961  1.0000
  Fe  Fe23      1.0  0.10194  0.39903  0.29575  1.0000
  S   S39       1.0  0.10115  0.41524  0.26852  1.0000
  Fe  Fe24      1.0  0.06936  0.39120  0.32683  1.0000
  S   S40       1.0  0.03535  0.39249  0.33714  1.0000
  S   S41       1.0  0.12874  0.39040  0.31167  1.0000
  S   S42       1.0  0.09300  0.38217  0.34529  1.0000
  H   H100      1.0  0.19071  0.26246  0.37109  1.0000
  H   H101      1.0  0.06065  0.35028  0.33827  1.0000
  C   C61       1.0  0.41042  0.10531  0.33011  1.0000
  C   C62       1.0  0.04420  0.43734  0.35198  1.0000
  H   H102      1.0  0.17315  0.26061  0.35601  1.0000
  C   C63       1.0  0.12036  0.31350  0.35006  1.0000
  C   C64       1.0  0.12184  0.32168  0.36512  1.0000
  H   H103      1.0  0.09720  0.34337  0.22803  1.0000
  C   C65       1.0  0.05364  0.29948  0.34942  1.0000
  C   C66       1.0  0.11724  0.27942  0.36706  1.0000
  C   C67       1.0  0.11796  0.29233  0.35113  1.0000
  H   H104      1.0  0.12383  0.33790  0.36447  1.0000
  H   H105      1.0  0.03976  0.34132  0.23428  1.0000
  H   H106      1.0  0.06015  0.34023  0.36931  1.0000
  H   H107      1.0  0.11679  0.28588  0.33954  1.0000
  C   C68       1.0  0.10735  0.40177  0.25031  1.0000
  C   C69       1.0  0.11729  0.38111  0.25138  1.0000
  C   C70       1.0  0.12273  0.37118  0.23642  1.0000
  C   C71       1.0  0.11788  0.38169  0.22040  1.0000
  C   C72       1.0  0.10762  0.40220  0.21939  1.0000
  C   C73       1.0  0.10255  0.41226  0.23428  1.0000
  H   H108      1.0  0.12118  0.37299  0.26367  1.0000
  H   H109      1.0  0.13079  0.35534  0.23726  1.0000
  H   H110      1.0  0.10390  0.41046  0.20712  1.0000
  H   H111      1.0  0.09498  0.42830  0.23337  1.0000
  H   H112      1.0  0.39360  0.02509  0.21816  1.0000
  H   H113      1.0  0.42422  0.13096  0.34808  1.0000
  C   C74       1.0  0.02248  0.38115  0.32385  1.0000
  C   C75       1.0  0.03118  0.37891  0.30687  1.0000
  C   C76       1.0  0.00340  0.37417  0.33033  1.0000
  H   H114      1.0  0.16293  0.26787  0.37690  1.0000
  H   H115      1.0  0.42378  0.11394  0.36808  1.0000
  H   H116      1.0  0.04541  0.38515  0.30151  1.0000
  C   C77       1.0  0.38735  0.01778  0.20850  1.0000
  C   C78       1.0  0.19206  0.22198  0.36740  1.0000
  C   C79       1.0  0.11858  0.45878  0.33467  1.0000
  H   H117      1.0  0.07812  0.31708  0.36566  1.0000
  C   C80       1.0  0.06105  0.46645  0.33751  1.0000
  H   H118      1.0  0.01936  0.47396  0.34561  1.0000
  H   H119      1.0  0.41716  0.11849  0.32185  1.0000
  C   C81       1.0  0.40993  0.08244  0.35700  1.0000
  C   C82       1.0  0.06163  0.33356  0.33657  1.0000
  H   H120      1.0  0.20665  0.05904  0.37782  1.0000
  H   H121      1.0  0.07571  0.45567  0.33451  1.0000
  C   C83       1.0  0.12914  0.46072  0.31793  1.0000
  C   C84       1.0  0.00204  0.36197  0.30304  1.0000
  H   H122      1.0  0.02098  0.32937  0.34327  1.0000
  C   C85       1.0  0.11186  0.47674  0.34291  1.0000
  H   H123      1.0  0.04634  0.29748  0.33802  1.0000
  C   C86       1.0  0.36781  0.05736  0.34665  1.0000
  C   C87       1.0  0.34672  0.06663  0.34810  1.0000
  C   C88       1.0  0.33338  0.06388  0.36377  1.0000
  H   H124      1.0  0.05376  0.31501  0.37910  1.0000
  C   C89       1.0  0.36225  0.04293  0.37687  1.0000
  C   C90       1.0  0.37542  0.04521  0.36108  1.0000
  H   H125      1.0  0.34065  0.07608  0.33704  1.0000
  S   S43       1.0  0.48933  0.06412  0.32399  1.0000
  H   H126      1.0  0.08291  0.31909  0.20304  1.0000
  H   H127      1.0  0.39153  0.03781  0.36018  1.0000
  C   C91       1.0  0.44957  0.04133  0.24225  1.0000
  C   C92       1.0  0.42819  0.04897  0.24377  1.0000
  C   C93       1.0  0.41820  0.05508  0.22887  1.0000
  C   C94       1.0  0.42952  0.05348  0.21247  1.0000
  C   C95       1.0  0.45089  0.04593  0.21102  1.0000
  C   C96       1.0  0.46087  0.03988  0.22586  1.0000
  H   H128      1.0  0.41941  0.05019  0.25638  1.0000
  H   H129      1.0  0.40166  0.06102  0.23006  1.0000
  H   H130      1.0  0.01597  0.42567  0.31114  1.0000
  H   H131      1.0  0.47743  0.03405  0.22461  1.0000
  C   C97       1.0  0.18440  0.14002  0.38829  1.0000
  H   H132      1.0  0.07432  0.34379  0.24366  1.0000
  S   S44       1.0  0.12433  0.36857  0.20198  1.0000
  H   H133      1.0  0.04611  0.29004  0.36084  1.0000
  C   C98       1.0  0.34115  0.05220  0.37832  1.0000
  H   H134      1.0  0.42939  0.01011  0.20681  1.0000
  H   H135      1.0  0.03826  0.34046  0.21187  1.0000
  N   N8        1.0  0.17494  0.23530  0.37672  1.0000
  H   H136      1.0  0.02050  0.32168  0.36606  1.0000
  C   C99       1.0  0.10392  0.46557  0.19343  1.0000
  H   H137      1.0  0.39315  0.10980  0.33266  1.0000
  H   H138      1.0  0.39984  0.12350  0.35901  1.0000
  H   H139      1.0  0.05603  0.37376  0.22652  1.0000
  H   H140      1.0  0.01894  0.46695  0.36845  1.0000
  N   N9        1.0  0.06852  0.34422  0.21751  1.0000
  C   C100      1.0  0.07955  0.33642  0.20150  1.0000
  H   H141      1.0  0.44545  0.07851  0.33520  1.0000
  C   C101      1.0  0.04852  0.33570  0.22226  1.0000
  H   H142      1.0  0.31725  0.07125  0.36470  1.0000
  C   C102      1.0  0.11970  0.28738  0.38200  1.0000
  H   H143      1.0  0.03448  0.43080  0.36366  1.0000
  H   H144      1.0  0.18240  0.14124  0.37483  1.0000
  H   H145      1.0  0.07852  0.32727  0.33390  1.0000
  H   H146      1.0  0.15209  0.23181  0.36070  1.0000
  C   C103      1.0  0.12183  0.30859  0.38094  1.0000
  H   H147      1.0  0.06571  0.48181  0.33852  1.0000
  N   N10       1.0  0.05134  0.32172  0.35196  1.0000
  H   H148      1.0  0.38608  0.02974  0.19697  1.0000
  H   H149      1.0  0.10375  0.47536  0.35587  1.0000
  C   C104      1.0  0.02889  0.33030  0.35463  1.0000
  H   H150      1.0  0.39269  0.08693  0.35990  1.0000
  C   C105      1.0  0.06123  0.32361  0.36719  1.0000
  H   H151      1.0  0.19172  0.20512  0.37229  1.0000
  N   N11       1.0  0.40114  0.99856  0.20409  1.0000
  C   C106      1.0  0.44260  0.09242  0.34223  1.0000
  H   H152      1.0  0.37128  0.01462  0.21388  1.0000
  H   H153      1.0  0.01150  0.44414  0.29248  1.0000
  C   C107      1.0  0.41681  0.11781  0.35579  1.0000
  H   H154      1.0  0.20094  0.08595  0.38164  1.0000
  C   C108      1.0  0.17554  0.25751  0.36985  1.0000
  H   H155      1.0  0.45044  0.08789  0.35406  1.0000
  H   H156      1.0  0.41648  0.07775  0.36941  1.0000
  H   H157      1.0  0.07905  0.37417  0.21118  1.0000
  H   H158      1.0  0.05448  0.37282  0.20409  1.0000
  H   H159      1.0  0.45076  0.10468  0.33392  1.0000
  C   C109      1.0  0.42223  0.00369  0.19718  1.0000
  H   H160      1.0  0.11531  0.26321  0.36766  1.0000
  H   H161      1.0  0.41301  0.09201  0.32241  1.0000
  H   H162      1.0  0.13443  0.44695  0.31150  1.0000
  C   C110      1.0  0.13375  0.48037  0.30979  1.0000
  H   H163      1.0  0.41229  0.06833  0.35026  1.0000
  H   H164      1.0  0.05423  0.33302  0.32487  1.0000
  H   H165      1.0  0.05216  0.46841  0.32627  1.0000
  C   C111      1.0  0.08178  0.33759  0.23150  1.0000
  C   C112      1.0  0.06426  0.36726  0.21471  1.0000
  H   H166      1.0  0.05112  0.31833  0.22446  1.0000
  H   H167      1.0  0.45982  0.04496  0.19847  1.0000
  H   H168      1.0  0.14268  0.48158  0.29713  1.0000
  N   N12       1.0  0.41994  0.09950  0.34629  1.0000
  H   H169      1.0  0.05890  0.42614  0.35017  1.0000
  H   H170      1.0  0.07576  0.44656  0.36637  1.0000
  H   H171      1.0  0.05179  0.45108  0.38052  1.0000
  H   H172      1.0  0.02670  0.34706  0.35665  1.0000
  H   H173      1.0  0.08500  0.32029  0.23423  1.0000
  C   C113      1.0  0.02877  0.47256  0.35648  1.0000
  C   C114      1.0  0.00666  0.44074  0.30657  1.0000
  H   H174      1.0  0.19071  0.22396  0.35338  1.0000
  S   S45       1.0  0.41656  0.06037  0.19401  1.0000
  H   H175      1.0  0.20765  0.22575  0.36894  1.0000
  H   H176      1.0  0.01120  0.45323  0.31284  1.0000
  H   H177      1.0  0.36844  0.03385  0.38801  1.0000
  H   H178      1.0  0.99652  0.37597  0.34342  1.0000
  C   C115      1.0  0.20247  0.06958  0.38804  1.0000
  H   H179      1.0  0.14153  0.23904  0.38155  1.0000
  H   H180      1.0  0.16309  0.08688  0.38363  1.0000
  H   H181      1.0  0.16770  0.06063  0.37823  1.0000
  H   H182      1.0  0.43298  0.98978  0.19307  1.0000
  H   H183      1.0  0.21242  0.11724  0.38607  1.0000
  H   H184      1.0  0.15363  0.21281  0.37947  1.0000
  C   C116      1.0  0.16526  0.07009  0.38915  1.0000
  H   H185      1.0  0.40886  0.98944  0.22986  1.0000
  C   C117      1.0  0.99326  0.36453  0.31995  1.0000
  S   S46       1.0  0.14947  0.17001  0.39044  1.0000
  H   H186      1.0  0.48882  0.06505  0.24586  1.0000
  S   S47       1.0  0.22536  0.10796  0.42080  1.0000
  Fe  Fe25      1.0  0.27757  0.05634  0.55256  1.0000
  S   S48       1.0  0.24292  0.05648  0.55881  1.0000
  S   S49       1.0  0.29030  0.06623  0.52499  1.0000
  Fe  Fe26      1.0  0.24486  0.07721  0.57867  1.0000
  C   C118      1.0  0.00140  0.19558  0.56852  1.0000
  Fe  Fe27      1.0  0.25204  0.02936  0.57861  1.0000
  S   S50       1.0  0.27927  0.07846  0.57126  1.0000
  S   S51       1.0  0.28679  0.02773  0.57105  1.0000
  Fe  Fe28      1.0  0.26295  0.03959  0.43971  1.0000
  S   S52       1.0  0.23317  0.04843  0.42801  1.0000
  S   S53       1.0  0.26164  0.02378  0.46717  1.0000
  S   S54       1.0  0.27541  0.06930  0.42868  1.0000
  S   S55       1.0  0.27941  0.02213  0.41807  1.0000
  Fe  Fe29      1.0  0.12028  0.22912  0.55120  1.0000
  S   S56       1.0  0.10080  0.20310  0.55802  1.0000
  S   S57       1.0  0.12832  0.24474  0.52411  1.0000
  C   C119      1.0  0.20130  0.12622  0.39465  1.0000
  H   H187      1.0  0.31728  0.03603  0.47707  1.0000
  H   H188      1.0  0.19229  0.13638  0.43616  1.0000
  H   H189      1.0  0.27185  0.11723  0.58993  1.0000
  S   S58       1.0  0.14400  0.21553  0.56923  1.0000
  S   S59       1.0  0.10067  0.24910  0.56998  1.0000
  Fe  Fe30      1.0  0.12487  0.19182  0.40565  1.0000
  S   S60       1.0  0.13462  0.21247  0.42238  1.0000
  C   C120      1.0  0.18536  0.04286  0.40644  1.0000
  Fe  Fe31      1.0  0.07826  0.21148  0.41161  1.0000
  S   S61       1.0  0.08532  0.23307  0.42899  1.0000
  Fe  Fe32      1.0  0.25058  0.03344  0.40538  1.0000
  C   C121      1.0  0.19012  0.13727  0.42277  1.0000
  Fe  Fe33      1.0  0.10599  0.20529  0.44037  1.0000
  S   S62       1.0  0.10592  0.19403  0.46886  1.0000
  S   S63       1.0  0.09714  0.18300  0.42435  1.0000
  H   H190      1.0  0.19871  0.03858  0.41412  1.0000
  H   H191      1.0  0.11478  0.29475  0.55885  1.0000
  C   C122      1.0  0.00436  0.21361  0.40437  1.0000
  C   C123      1.0  0.12476  0.23021  0.50794  1.0000
  C   C124      1.0  0.12333  0.20892  0.51182  1.0000
  C   C125      1.0  0.11869  0.19781  0.49934  1.0000
  C   C126      1.0  0.11534  0.20787  0.48287  1.0000
  C   C127      1.0  0.11762  0.22900  0.47869  1.0000
  C   C128      1.0  0.12235  0.24015  0.49122  1.0000
  H   H192      1.0  0.12576  0.20096  0.52447  1.0000
  H   H193      1.0  0.11729  0.18139  0.50256  1.0000
  H   H194      1.0  0.11504  0.23689  0.46601  1.0000
  H   H195      1.0  0.12354  0.25661  0.48809  1.0000
  H   H196      1.0  0.01188  0.15519  0.42293  1.0000
  C   C129      1.0  0.03625  0.19666  0.57580  1.0000
  Fe  Fe34      1.0  0.08311  0.22183  0.57846  1.0000
  S   S64       1.0  0.12214  0.27117  0.40187  1.0000
  S   S65       1.0  0.04831  0.23218  0.58402  1.0000
  H   H197      1.0  0.12201  0.31063  0.53904  1.0000
  H   H198      1.0  0.18952  0.09413  0.58271  1.0000
  H   H199      1.0  0.17106  0.03888  0.41499  1.0000
  H   H200      1.0  0.30117  0.03036  0.45176  1.0000
  C   C130      1.0  0.16093  0.29047  0.53251  1.0000
  H   H201      1.0  0.03360  0.23131  0.53277  1.0000
  C   C131      1.0  0.02418  0.20402  0.40849  1.0000
  Fe  Fe35      1.0  0.28516  0.05015  0.59049  1.0000
  H   H202      1.0  0.20181  0.13863  0.53553  1.0000
  H   H203      1.0  0.16940  0.30216  0.56171  1.0000
  C   C132      1.0  0.16574  0.12131  0.58117  1.0000
  H   H204      1.0  0.21292  0.09481  0.55331  1.0000
  C   C133      1.0  0.28103  0.05495  0.50926  1.0000
  C   C134      1.0  0.28179  0.06509  0.49233  1.0000
  C   C135      1.0  0.27503  0.05606  0.47945  1.0000
  C   C136      1.0  0.26811  0.03656  0.48334  1.0000
  C   C137      1.0  0.26708  0.02659  0.50033  1.0000
  C   C138      1.0  0.27330  0.03587  0.51332  1.0000
  H   H205      1.0  0.28753  0.07998  0.48919  1.0000
  H   H206      1.0  0.27531  0.06409  0.46652  1.0000
  H   H207      1.0  0.26160  0.01155  0.50346  1.0000
  H   H208      1.0  0.27259  0.02798  0.52636  1.0000
  C   C139      1.0  0.02674  0.18295  0.41543  1.0000
  N   N13       1.0  0.21969  0.11019  0.52768  1.0000
  H   H209      1.0  0.31734  0.02715  0.43176  1.0000
  H   H210      1.0  0.35368  0.03320  0.42769  1.0000
  N   N14       1.0  0.14759  0.28996  0.54934  1.0000
  S   S66       1.0  0.22921  0.11053  0.58173  1.0000
  S   S67       1.0  0.32584  0.05022  0.39892  1.0000
  H   H211      1.0  0.21599  0.06726  0.39549  1.0000
  H   H212      1.0  0.33815  0.05871  0.58821  1.0000
  C   C140      1.0  0.17324  0.15105  0.41642  1.0000
  C   C141      1.0  0.17772  0.15471  0.57949  1.0000
  C   C142      1.0  0.17927  0.07827  0.41351  1.0000
  H   H213      1.0  0.12092  0.28337  0.53914  1.0000
  H   H214      1.0  0.12380  0.31490  0.39240  1.0000
  C   C143      1.0  0.31729  0.02488  0.44595  1.0000
  H   H215      1.0  0.22478  0.12962  0.54589  1.0000
  C   C144      1.0  0.01098  0.22804  0.57420  1.0000
  C   C145      1.0  0.03090  0.21792  0.57740  1.0000
  H   H216      1.0  0.17782  0.28656  0.53413  1.0000
  H   H217      1.0  0.25177  0.10942  0.51595  1.0000
  H   H218      1.0  0.22730  0.14148  0.52389  1.0000
  H   H219      1.0  0.15726  0.27893  0.52471  1.0000
  H   H220      1.0  0.33777  0.01473  0.47384  1.0000
  H   H221      1.0  0.15308  0.11226  0.58180  1.0000
  H   H222      1.0  0.16450  0.24199  0.40266  1.0000
  C   C146      1.0  0.00968  0.17156  0.41787  1.0000
  H   H223      1.0  0.19036  0.10418  0.54253  1.0000
  C   C147      1.0  0.21834  0.13092  0.53345  1.0000
  H   H224      1.0  0.05506  0.21519  0.54208  1.0000
  H   H225      1.0  0.24220  0.99274  0.42734  1.0000
  C   C148      1.0  0.99634  0.21695  0.56964  1.0000
  C   C149      1.0  0.02147  0.18550  0.57144  1.0000
  H   H226      1.0  0.34408  0.04042  0.47434  1.0000
  H   H227      1.0  0.02936  0.20164  0.50718  1.0000
  H   H228      1.0  0.14138  0.26773  0.57167  1.0000
  Fe  Fe36      1.0  0.11305  0.23844  0.40922  1.0000
  H   H229      1.0  0.08001  0.22960  0.51804  1.0000
  Fe  Fe37      1.0  0.29020  0.05258  0.40591  1.0000
  H   H230      1.0  0.15858  0.30614  0.52482  1.0000
  S   S68       1.0  0.04513  0.21904  0.40428  1.0000
  H   H231      1.0  0.20762  0.08122  0.53669  1.0000
  H   H232      1.0  0.24860  0.09853  0.53814  1.0000
  H   H233      1.0  0.16789  0.26463  0.56157  1.0000
  H   H234      1.0  0.00224  0.22986  0.39895  1.0000
  H   H235      1.0  0.15036  0.06695  0.39724  1.0000
  H   H236      1.0  0.04194  0.17537  0.41855  1.0000
  C   C150      1.0  0.21156  0.11257  0.51093  1.0000
  N   N15       1.0  0.33267  0.03631  0.45107  1.0000
  S   S69       1.0  0.23563  0.01163  0.39273  1.0000
  H   H237      1.0  0.14788  0.25686  0.55164  1.0000
  H   H238      1.0  0.21245  0.09716  0.50624  1.0000
  C   C151      1.0  0.12535  0.29492  0.54648  1.0000
  S   S70       1.0  0.23637  0.00026  0.58603  1.0000
  Fe  Fe38      1.0  0.12350  0.19041  0.57735  1.0000
  C   C152      1.0  0.24178  0.10021  0.52583  1.0000
  H   H239      1.0  0.32575  0.06294  0.43233  1.0000
  H   H240      1.0  0.24338  0.08429  0.52192  1.0000
  N   N16       1.0  0.05489  0.21322  0.51523  1.0000
  C   C153      1.0  0.04383  0.21598  0.53261  1.0000
  C   C154      1.0  0.03948  0.21412  0.50311  1.0000
  C   C155      1.0  0.06834  0.19272  0.51581  1.0000
  C   C156      1.0  0.06795  0.23002  0.50935  1.0000
  C   C157      1.0  0.33303  0.03167  0.46989  1.0000
  H   H241      1.0  0.03369  0.20365  0.53738  1.0000
  C   C158      1.0  0.35359  0.02968  0.44193  1.0000
  H   H242      1.0  0.14303  0.30517  0.57222  1.0000
  H   H243      1.0  0.02909  0.22939  0.50230  1.0000
  H   H244      1.0  0.04744  0.21202  0.48987  1.0000
  H   H245      1.0  0.08058  0.19168  0.52445  1.0000
  H   H246      1.0  0.07652  0.18990  0.50279  1.0000
  H   H247      1.0  0.05908  0.17969  0.52062  1.0000
  H   H248      1.0  0.05838  0.24572  0.50893  1.0000
  H   H249      1.0  0.07631  0.22852  0.49618  1.0000
  H   H250      1.0  0.14991  0.32158  0.55257  1.0000
  H   H251      1.0  0.02549  0.16894  0.57059  1.0000
  H   H252      1.0  0.22070  0.12245  0.50087  1.0000
  H   H253      1.0  0.05158  0.18870  0.57831  1.0000
  Fe  Fe39      1.0  0.24630  0.07743  0.41535  1.0000
  C   C159      1.0  0.20707  0.09701  0.54057  1.0000
  C   C160      1.0  0.15134  0.26889  0.55898  1.0000
  H   H254      1.0  0.16257  0.16058  0.42493  1.0000
  H   H255      1.0  0.25965  0.99720  0.55181  1.0000
  C   C161      1.0  0.32666  0.05899  0.44640  1.0000
  H   H256      1.0  0.19489  0.11998  0.51188  1.0000
  H   H257      1.0  0.32055  0.00780  0.45006  1.0000
  H   H258      1.0  0.17674  0.21560  0.40088  1.0000
  H   H259      1.0  0.31104  0.06457  0.45318  1.0000
  C   C162      1.0  0.15272  0.30543  0.55936  1.0000
  C   C163      1.0  0.20283  0.12251  0.58111  1.0000
  H   H260      1.0  0.33809  0.06812  0.44979  1.0000
  C   C164      1.0  0.17027  0.15254  0.39913  1.0000
  C   C165      1.0  0.16125  0.14320  0.58018  1.0000
  H   H261      1.0  0.19286  0.07591  0.42095  1.0000
  H   H262      1.0  0.21093  0.15348  0.57964  1.0000
  H   H263      1.0  0.17450  0.17153  0.57879  1.0000
  H   H264      1.0  0.17653  0.09519  0.40860  1.0000
  C   C166      1.0  0.20417  0.12467  0.41199  1.0000
  C   C167      1.0  0.19837  0.14440  0.58001  1.0000
  H   H265      1.0  0.16530  0.07474  0.42272  1.0000
  H   H266      1.0  0.19240  0.23645  0.39751  1.0000
  N   N17       1.0  0.18310  0.06520  0.39930  1.0000
  C   C168      1.0  0.18641  0.11099  0.58164  1.0000
  S   S71       1.0  0.13489  0.15537  0.57999  1.0000
  C   C169      1.0  0.17730  0.23219  0.39525  1.0000
  H   H267      1.0  0.18858  0.03256  0.39604  1.0000
  H   H268      1.0  0.36568  0.03786  0.44554  1.0000
  H   H269      1.0  0.00683  0.24454  0.57527  1.0000
  H   H270      1.0  0.35845  0.01258  0.44490  1.0000
  Fe  Fe40      1.0  0.12240  0.23348  0.58875  1.0000
  H   H271      1.0  0.99206  0.16994  0.46844  1.0000
  H   H272      1.0  0.10820  0.28565  0.58904  1.0000
  H   H273      1.0  0.39651  0.00392  0.58797  1.0000
  S   S72       1.0  0.26207  0.06310  0.39149  1.0000
  S   S73       1.0  0.10508  0.21840  0.39120  1.0000
  Fe  Fe41      1.0  0.41282  0.02252  0.68005  1.0000
  S   S74       1.0  0.42849  0.01948  0.65314  1.0000
  H   H274      1.0  0.02292  0.39092  0.66884  1.0000
  Fe  Fe42      1.0  0.42161  0.06664  0.67797  1.0000
  S   S75       1.0  0.43791  0.06706  0.65084  1.0000
  S   S76       1.0  0.42215  0.09343  0.69259  1.0000
  Fe  Fe43      1.0  0.41105  0.05135  0.64633  1.0000
  S   S77       1.0  0.39662  0.05762  0.62116  1.0000
  Fe  Fe44      1.0  0.45362  0.03515  0.66028  1.0000
  H   H275      1.0  0.36217  0.99531  0.60299  1.0000
  S   S78       1.0  0.39360  0.05347  0.67291  1.0000
  S   S79       1.0  0.43901  0.03582  0.68764  1.0000
  C   C170      1.0  0.11405  0.33998  0.72463  1.0000
  S   S80       1.0  0.39498  0.07695  0.77281  1.0000
  C   C171      1.0  0.01791  0.35557  0.73869  1.0000
  S   S81       1.0  0.10375  0.20712  0.59854  1.0000
  H   H276      1.0  0.26989  0.08051  0.63045  1.0000
  Fe  Fe45      1.0  0.07722  0.35994  0.68242  1.0000
  S   S82       1.0  0.10656  0.34010  0.67260  1.0000
  S   S83       1.0  0.05025  0.34888  0.70050  1.0000
  Fe  Fe46      1.0  0.08983  0.40039  0.66191  1.0000
  S   S84       1.0  0.12037  0.38403  0.64992  1.0000
  S   S85       1.0  0.07428  0.43410  0.65930  1.0000
  Fe  Fe47      1.0  0.10216  0.35841  0.64672  1.0000
  S   S86       1.0  0.10102  0.34508  0.62183  1.0000
  Fe  Fe48      1.0  0.12226  0.36694  0.67668  1.0000
  S   S87       1.0  0.15027  0.36079  0.69117  1.0000
  S   S88       1.0  0.07152  0.37646  0.65648  1.0000
  S   S89       1.0  0.09302  0.38502  0.68876  1.0000
  C   C172      1.0  0.10796  0.36091  0.74808  1.0000
  C   C173      1.0  0.03377  0.28618  0.62694  1.0000
  H   H277      1.0  0.37440  0.06312  0.59175  1.0000
  C   C174      1.0  0.34303  0.05636  0.60092  1.0000
  H   H278      1.0  0.04020  0.33537  0.78838  1.0000
  H   H279      1.0  0.15272  0.44651  0.69959  1.0000
  H   H280      1.0  0.07829  0.26661  0.60308  1.0000
  C   C175      1.0  0.10975  0.31875  0.61841  1.0000
  C   C176      1.0  0.10515  0.31168  0.60363  1.0000
  H   H281      1.0  0.44370  0.04469  0.74199  1.0000
  C   C177      1.0  0.12376  0.27710  0.61165  1.0000
  C   C178      1.0  0.12838  0.28417  0.62640  1.0000
  C   C179      1.0  0.12126  0.30483  0.62986  1.0000
  S   S90       1.0  0.30301  0.04716  0.61368  1.0000
  C   C180      1.0  0.15063  0.45776  0.70921  1.0000
  H   H282      1.0  0.13755  0.27361  0.63522  1.0000
  H   H283      1.0  0.12499  0.31008  0.64124  1.0000
  C   C181      1.0  0.14768  0.37722  0.70728  1.0000
  C   C182      1.0  0.15717  0.37033  0.72227  1.0000
  C   C183      1.0  0.15345  0.38253  0.73592  1.0000
  C   C184      1.0  0.14043  0.40173  0.73448  1.0000
  C   C185      1.0  0.13151  0.40888  0.71928  1.0000
  C   C186      1.0  0.13515  0.39667  0.70571  1.0000
  H   H284      1.0  0.16705  0.35537  0.72347  1.0000
  H   H285      1.0  0.16063  0.37709  0.74754  1.0000
  H   H286      1.0  0.12136  0.42364  0.71813  1.0000
  H   H287      1.0  0.12835  0.40239  0.69397  1.0000
  C   C187      1.0  0.08911  0.45466  0.65833  1.0000
  C   C188      1.0  0.10925  0.45391  0.64927  1.0000
  H   H288      1.0  0.30530  0.09090  0.62316  1.0000
  H   H289      1.0  0.39274  0.01124  0.63387  1.0000
  H   H290      1.0  0.10669  0.37549  0.73884  1.0000
  H   H291      1.0  0.06824  0.24122  0.62764  1.0000
  H   H292      1.0  0.11654  0.43991  0.64375  1.0000
  H   H293      1.0  0.11233  0.35415  0.71502  1.0000
  C   C189      1.0  0.00495  0.39168  0.63056  1.0000
  C   C190      1.0  0.06282  0.27640  0.60563  1.0000
  C   C191      1.0  0.01186  0.32796  0.66441  1.0000
  H   H294      1.0  0.00064  0.42502  0.66051  1.0000
  C   C192      1.0  0.01366  0.34107  0.69121  1.0000
  C   C193      1.0  0.03548  0.33938  0.68743  1.0000
  C   C194      1.0  0.04546  0.33152  0.67235  1.0000
  C   C195      1.0  0.03369  0.32564  0.66093  1.0000
  H   H295      1.0  0.45999  0.99767  0.74312  1.0000
  C   C196      1.0  0.05273  0.25118  0.62951  1.0000
  H   H296      1.0  0.06230  0.33023  0.66933  1.0000
  H   H297      1.0  0.04148  0.32006  0.64911  1.0000
  C   C197      1.0  0.42219  0.00508  0.73145  1.0000
  S   S91       1.0  0.45241  0.05241  0.77505  1.0000
  C   C198      1.0  0.37024  0.05569  0.61939  1.0000
  H   H298      1.0  0.26707  0.08389  0.60811  1.0000
  C   C199      1.0  0.06905  0.28012  0.63429  1.0000
  H   H299      1.0  0.39619  0.02237  0.60272  1.0000
  C   C200      1.0  0.33557  0.04782  0.63175  1.0000
  C   C201      1.0  0.35610  0.05023  0.63379  1.0000
  C   C202      1.0  0.07975  0.47299  0.66530  1.0000
  H   H300      1.0  0.32478  0.04350  0.64299  1.0000
  H   H301      1.0  0.36102  0.04772  0.64649  1.0000
  C   C203      1.0  0.41446  0.08854  0.71481  1.0000
  C   C204      1.0  0.39586  0.08041  0.72120  1.0000
  C   C205      1.0  0.38958  0.07737  0.73905  1.0000
  C   C206      1.0  0.40227  0.08174  0.75049  1.0000
  C   C207      1.0  0.42107  0.08944  0.74409  1.0000
  C   C208      1.0  0.42696  0.09316  0.72627  1.0000
  H   H302      1.0  0.38608  0.07700  0.71236  1.0000
  H   H303      1.0  0.37500  0.07147  0.74396  1.0000
  H   H304      1.0  0.43090  0.09295  0.75285  1.0000
  H   H305      1.0  0.44129  0.09955  0.72134  1.0000
  C   C209      1.0  0.26959  0.12479  0.60192  1.0000
  H   H306      1.0  0.02705  0.28442  0.64077  1.0000
  H   H307      1.0  0.25679  0.12659  0.63559  1.0000
  S   S92       1.0  0.99739  0.32240  0.64917  1.0000
  H   H308      1.0  0.14488  0.44945  0.72193  1.0000
  N   N18       1.0  0.10128  0.34353  0.74126  1.0000
  H   H309      1.0  0.01001  0.39181  0.75253  1.0000
  H   H310      1.0  0.00216  0.37809  0.66465  1.0000
  H   H311      1.0  0.02165  0.36903  0.72897  1.0000
  S   S93       1.0  0.25073  0.05009  0.59916  1.0000
  H   H312      1.0  0.09464  0.32650  0.76634  1.0000
  H   H313      1.0  0.13103  0.33608  0.72600  1.0000
  H   H314      1.0  0.02085  0.37116  0.76767  1.0000
  H   H315      1.0  0.07642  0.36330  0.72934  1.0000
  H   H316      1.0  0.06411  0.47373  0.67225  1.0000
  H   H317      1.0  0.05215  0.27178  0.59755  1.0000
  H   H318      1.0  0.04226  0.24559  0.62180  1.0000
  H   H319      1.0  0.07116  0.29678  0.63030  1.0000
  H   H320      1.0  0.03239  0.34879  0.74446  1.0000
  H   H321      1.0  0.01701  0.37917  0.62560  1.0000
  H   H322      1.0  0.24768  0.09740  0.62251  1.0000
  H   H323      1.0  0.39947  0.03405  0.74985  1.0000
  H   H324      1.0  0.09931  0.31090  0.74890  1.0000
  H   H325      1.0  0.12074  0.32009  0.75603  1.0000
  S   S94       1.0  0.13323  0.25104  0.60778  1.0000
  H   H326      1.0  0.06484  0.29297  0.60111  1.0000
  H   H327      1.0  0.16633  0.46164  0.71030  1.0000
  C   C210      1.0  0.32897  0.05072  0.61533  1.0000
  N   N19       1.0  0.01214  0.40110  0.64411  1.0000
  H   H328      1.0  0.09830  0.36442  0.76041  1.0000
  Fe  Fe49      1.0  0.46944  0.07559  0.78320  1.0000
  C   C211      1.0  0.00664  0.37750  0.76132  1.0000
  H   H329      1.0  0.40975  0.01505  0.72450  1.0000
  H   H330      1.0  0.00112  0.40358  0.61947  1.0000
  C   C212      1.0  0.10410  0.32438  0.75365  1.0000
  C   C213      1.0  0.11196  0.29092  0.60035  1.0000
  C   C214      1.0  0.36356  0.05886  0.60297  1.0000
  H   H331      1.0  0.48671  0.06528  0.65518  1.0000
  C   C215      1.0  0.11944  0.47173  0.64641  1.0000
  H   H332      1.0  0.06901  0.35173  0.75103  1.0000
  H   H333      1.0  0.99399  0.38238  0.77162  1.0000
  H   H334      1.0  0.12691  0.48275  0.73064  1.0000
  H   H335      1.0  0.06313  0.27848  0.64828  1.0000
  H   H336      1.0  0.07343  0.33622  0.73340  1.0000
  N   N20       1.0  0.42982  0.01668  0.74337  1.0000
  C   C216      1.0  0.36749  0.99698  0.61537  1.0000
  N   N21       1.0  0.13599  0.47670  0.70434  1.0000
  H   H337      1.0  0.41726  0.03290  0.76524  1.0000
  N   N22       1.0  0.05458  0.27349  0.62411  1.0000
  C   C217      1.0  0.07900  0.34891  0.73868  1.0000
  S   S95       1.0  0.13514  0.41719  0.75137  1.0000
  H   H338      1.0  0.12449  0.35709  0.75071  1.0000
  C   C218      1.0  0.27363  0.12057  0.63214  1.0000
  C   C219      1.0  0.39673  0.99467  0.63132  1.0000
  N   N23       1.0  0.27685  0.10996  0.61652  1.0000
  H   H339      1.0  0.42678  0.04525  0.72608  1.0000
  H   H340      1.0  0.13464  0.47130  0.63872  1.0000
  H   H341      1.0  0.10943  0.32706  0.71900  1.0000
  H   H342      1.0  0.25255  0.13062  0.60445  1.0000
  S   S96       1.0  0.13420  0.36501  0.78577  1.0000
  H   H343      1.0  0.04633  0.24834  0.64335  1.0000
  N   N24       1.0  0.39046  0.99180  0.61473  1.0000
  H   H344      1.0  0.45229  0.03023  0.72401  1.0000
  H   H345      1.0  0.99450  0.21395  0.62679  1.0000
  C   C220      1.0  0.44622  0.00291  0.75233  1.0000
  H   H346      1.0  0.30228  0.09376  0.60083  1.0000
  H   H347      1.0  0.35927  0.98673  0.62578  1.0000
  H   H348      1.0  0.02834  0.42312  0.62636  1.0000
  H   H349      1.0  0.41811  0.00236  0.60011  1.0000
  H   H350      1.0  0.99289  0.19160  0.60477  1.0000
  C   C221      1.0  0.01655  0.38475  0.65862  1.0000
  H   H351      1.0  0.14249  0.47218  0.78712  1.0000
  H   H352      1.0  0.04390  0.39844  0.63168  1.0000
  H   H353      1.0  0.27819  0.13851  0.59923  1.0000
  H   H354      1.0  0.03459  0.30313  0.62301  1.0000
  H   H355      1.0  0.27889  0.10971  0.64339  1.0000
  H   H356      1.0  0.11716  0.46021  0.69239  1.0000
  C   C222      1.0  0.99591  0.34337  0.76417  1.0000
  H   H357      1.0  0.01399  0.34350  0.73162  1.0000
  H   H358      1.0  0.00581  0.34738  0.70271  1.0000
  S   S97       1.0  0.48775  0.02045  0.65668  1.0000
  C   C223      1.0  0.40076  0.00568  0.60072  1.0000
  H   H359      1.0  0.03769  0.41694  0.64700  1.0000
  H   H360      1.0  0.02815  0.37157  0.65426  1.0000
  C   C224      1.0  0.43857  0.03497  0.73346  1.0000
  H   H361      1.0  0.08484  0.27065  0.63267  1.0000
  Fe  Fe50      1.0  0.12856  0.39954  0.77785  1.0000
  C   C225      1.0  0.41220  0.02377  0.75617  1.0000
  S   S98       1.0  0.40009  0.99469  0.69590  1.0000
  C   C226      1.0  0.29935  0.10218  0.61240  1.0000
  H   H362      1.0  0.36212  0.01335  0.61793  1.0000
  C   C227      1.0  0.03135  0.41030  0.63698  1.0000
  C   C228      1.0  0.26479  0.09221  0.61962  1.0000
  H   H363      1.0  0.41545  0.99115  0.73840  1.0000
  H   H364      1.0  0.30903  0.11509  0.60984  1.0000
  H   H365      1.0  0.02241  0.28169  0.61946  1.0000
  H   H366      1.0  0.00984  0.33571  0.77041  1.0000
  H   H367      1.0  0.45188  0.01095  0.76184  1.0000
  C   C229      1.0  0.00183  0.33546  0.67963  1.0000
  H   H368      1.0  0.28256  0.13403  0.63029  1.0000
  C   C230      1.0  0.11558  0.47073  0.70253  1.0000
  H   H369      1.0  0.09622  0.32237  0.59473  1.0000
  H   H370      1.0  0.14695  0.47765  0.67724  1.0000
  H   H371      1.0  0.10859  0.46243  0.71480  1.0000
  H   H372      1.0  0.43496  0.99965  0.72145  1.0000
  N   N25       1.0  0.00055  0.36190  0.75195  1.0000
  H   H373      1.0  0.41390  0.99013  0.63152  1.0000
  Fe  Fe51      1.0  0.42368  0.07205  0.78614  1.0000
  H   H374      1.0  0.40536  0.01037  0.76401  1.0000
  S   S99       1.0  0.09513  0.40343  0.78988  1.0000
  H   H375      1.0  0.44028  0.98866  0.75957  1.0000
  H   H376      1.0  0.10418  0.48468  0.69883  1.0000
  C   C231      1.0  0.99568  0.41759  0.65029  1.0000
  H   H377      1.0  0.99179  0.43010  0.63964  1.0000
  S   S100      1.0  0.42270  0.05442  0.81273  1.0000
  H   H378      1.0  0.48129  0.10807  0.79664  1.0000
  S   S101      1.0  0.47225  0.05803  0.80936  1.0000
  H   H379      1.0  0.35821  0.26093  0.92595  1.0000
  Fe  Fe52      1.0  0.45271  0.03629  0.80194  1.0000
  H   H380      1.0  0.39311  0.20580  0.97753  1.0000
  Fe  Fe53      1.0  0.44214  0.07809  0.81755  1.0000
  S   S102      1.0  0.43841  0.09142  0.84302  1.0000
  H   H381      1.0  0.21002  0.41355  0.79749  1.0000
  H   H382      1.0  0.40072  0.09313  0.82683  1.0000
  Fe  Fe54      1.0  0.41677  0.24727  0.88535  1.0000
  S   S103      1.0  0.39748  0.22131  0.89305  1.0000
  S   S104      1.0  0.40307  0.28111  0.87762  1.0000
  Fe  Fe55      1.0  0.45789  0.21747  0.88946  1.0000
  S   S105      1.0  0.44114  0.18936  0.89771  1.0000
  Fe  Fe56      1.0  0.42195  0.20237  0.87616  1.0000
  S   S106      1.0  0.41352  0.18747  0.85420  1.0000
  Fe  Fe57      1.0  0.41857  0.21097  0.91370  1.0000
  S   S107      1.0  0.40299  0.20514  0.94105  1.0000
  S   S108      1.0  0.44001  0.22927  0.86705  1.0000
  S   S109      1.0  0.43659  0.23813  0.90695  1.0000
  C   C232      1.0  0.11103  0.45330  0.82229  1.0000
  C   C233      1.0  0.36571  0.08806  0.81397  1.0000
  C   C234      1.0  0.42251  0.20210  0.98780  1.0000
  C   C235      1.0  0.06300  0.48469  0.80240  1.0000
  C   C236      1.0  0.30013  0.47832  0.89025  1.0000
  S   S110      1.0  0.11149  0.37395  0.82453  1.0000
  H   H383      1.0  0.05400  0.47962  0.79327  1.0000
  Fe  Fe58      1.0  0.14409  0.37287  0.81004  1.0000
  S   S111      1.0  0.17546  0.35819  0.81908  1.0000
  Fe  Fe59      1.0  0.10119  0.36936  0.79947  1.0000
  C   C237      1.0  0.19471  0.45168  0.80744  1.0000
  H   H384      1.0  0.47038  0.19539  0.96400  1.0000
  H   H385      1.0  0.21053  0.45140  0.79993  1.0000
  Fe  Fe60      1.0  0.28954  0.40196  0.87931  1.0000
  S   S112      1.0  0.25782  0.40967  0.89341  1.0000
  S   S113      1.0  0.30499  0.42834  0.86351  1.0000
  Fe  Fe61      1.0  0.29223  0.35565  0.89246  1.0000
  S   S114      1.0  0.26023  0.36022  0.90804  1.0000
  S   S115      1.0  0.30785  0.32161  0.89498  1.0000
  Fe  Fe62      1.0  0.24970  0.38107  0.88477  1.0000
  S   S116      1.0  0.21539  0.38470  0.88025  1.0000
  Fe  Fe63      1.0  0.27036  0.38838  0.91548  1.0000
  S   S117      1.0  0.26173  0.40247  0.94037  1.0000
  S   S118      1.0  0.28090  0.37475  0.86849  1.0000
  S   S119      1.0  0.30307  0.38249  0.90197  1.0000
  C   C238      1.0  0.26349  0.38686  0.96033  1.0000
  C   C239      1.0  0.26598  0.36507  0.96174  1.0000
  C   C240      1.0  0.26574  0.35320  0.97808  1.0000
  C   C241      1.0  0.26152  0.39667  0.97521  1.0000
  H   H386      1.0  0.26777  0.35736  0.95031  1.0000
  H   H387      1.0  0.25953  0.41352  0.97421  1.0000
  C   C242      1.0  0.31050  0.44922  0.87313  1.0000
  C   C243      1.0  0.29558  0.46024  0.88447  1.0000
  C   C244      1.0  0.32987  0.45620  0.86788  1.0000
  H   H388      1.0  0.28040  0.45519  0.88832  1.0000
  H   H389      1.0  0.34138  0.44798  0.85900  1.0000
  C   C245      1.0  0.18623  0.36528  0.83639  1.0000
  C   C246      1.0  0.17391  0.37648  0.84894  1.0000
  C   C247      1.0  0.18308  0.38203  0.86236  1.0000
  C   C248      1.0  0.20466  0.37659  0.86338  1.0000
  C   C249      1.0  0.21700  0.36540  0.85083  1.0000
  C   C250      1.0  0.20778  0.35970  0.83748  1.0000
  H   H390      1.0  0.15728  0.38070  0.84837  1.0000
  H   H391      1.0  0.17336  0.39067  0.87199  1.0000
  H   H392      1.0  0.23361  0.36107  0.85143  1.0000
  H   H393      1.0  0.21744  0.35096  0.82789  1.0000
  H   H394      1.0  0.16746  0.41705  0.83416  1.0000
  C   C251      1.0  0.02462  0.37277  0.82322  1.0000
  C   C252      1.0  0.04558  0.36912  0.81565  1.0000
  C   C253      1.0  0.05130  0.35557  0.80310  1.0000
  H   H395      1.0  0.15815  0.43664  0.81784  1.0000
  C   C254      1.0  0.01473  0.35018  0.80516  1.0000
  H   H396      1.0  0.02044  0.38285  0.83325  1.0000
  H   H397      1.0  0.05739  0.37641  0.81985  1.0000
  S   S120      1.0  0.46296  0.00140  0.80569  1.0000
  S   S121      1.0  0.44060  0.09719  0.79168  1.0000
  H   H398      1.0  0.36677  0.24084  0.94257  1.0000
  H   H399      1.0  0.41124  0.24932  0.94000  1.0000
  H   H400      1.0  0.35568  0.09118  0.80339  1.0000
  H   H401      1.0  0.22350  0.42360  0.82224  1.0000
  C   C255      1.0  0.39899  0.25771  0.94887  1.0000
  S   S122      1.0  0.09448  0.43431  0.82874  1.0000
  H   H402      1.0  0.35716  0.07959  0.82539  1.0000
  H   H403      1.0  0.34985  0.47856  0.87006  1.0000
  C   C256      1.0  0.14021  0.48124  0.81249  1.0000
  H   H404      1.0  0.38768  0.13280  0.80499  1.0000
  C   C257      1.0  0.37656  0.29215  0.88261  1.0000
  C   C258      1.0  0.37086  0.31385  0.87897  1.0000
  C   C259      1.0  0.34995  0.32320  0.88274  1.0000
  C   C260      1.0  0.33448  0.31088  0.89009  1.0000
  C   C261      1.0  0.34021  0.28917  0.89367  1.0000
  C   C262      1.0  0.36111  0.27983  0.88997  1.0000
  H   H405      1.0  0.38269  0.32353  0.87325  1.0000
  H   H406      1.0  0.34577  0.33992  0.87988  1.0000
  H   H407      1.0  0.32833  0.27951  0.89929  1.0000
  H   H408      1.0  0.36519  0.26313  0.89280  1.0000
  C   C263      1.0  0.41916  0.20283  0.95742  1.0000
  C   C264      1.0  0.44097  0.20017  0.95363  1.0000
  C   C265      1.0  0.45352  0.19793  0.96697  1.0000
  S   S123      1.0  0.14093  0.40703  0.80075  1.0000
  S   S124      1.0  0.07770  0.34969  0.79406  1.0000
  C   C266      1.0  0.40997  0.20381  0.97452  1.0000
  H   H409      1.0  0.44819  0.19938  0.94048  1.0000
  H   H410      1.0  0.34132  0.12514  0.81463  1.0000
  H   H411      1.0  0.37980  0.07722  0.80955  1.0000
  H   H412      1.0  0.00298  0.34243  0.80146  1.0000
  C   C267      1.0  0.43308  0.11844  0.84541  1.0000
  C   C268      1.0  0.42726  0.13364  0.83192  1.0000
  C   C269      1.0  0.42153  0.15472  0.83476  1.0000
  C   C270      1.0  0.42213  0.16096  0.85094  1.0000
  C   C271      1.0  0.42856  0.14584  0.86426  1.0000
  C   C272      1.0  0.43379  0.12469  0.86155  1.0000
  H   H413      1.0  0.42684  0.12913  0.81939  1.0000
  H   H414      1.0  0.41670  0.16629  0.82434  1.0000
  H   H415      1.0  0.42900  0.15037  0.87680  1.0000
  H   H416      1.0  0.43822  0.11310  0.87209  1.0000
  H   H417      1.0  0.30445  0.46942  0.95112  1.0000
  C   C273      1.0  0.38572  0.10253  0.83146  1.0000
  H   H418      1.0  0.19284  0.46373  0.81636  1.0000
  C   C274      1.0  0.12032  0.45630  0.80517  1.0000
  C   C275      1.0  0.17034  0.43225  0.82661  1.0000
  H   H419      1.0  0.42041  0.00571  0.79694  1.0000
  H   H420      1.0  0.37180  0.12298  0.79203  1.0000
  H   H421      1.0  0.20553  0.43523  0.83889  1.0000
  H   H422      1.0  0.07553  0.47155  0.80550  1.0000
  C   C276      1.0  0.30732  0.45207  0.95383  1.0000
  H   H423      1.0  0.40067  0.27676  0.91608  1.0000
  H   H424      1.0  0.34418  0.11352  0.83636  1.0000
  Fe  Fe64      1.0  0.10788  0.40784  0.81354  1.0000
  H   H425      1.0  0.35169  0.28764  0.94570  1.0000
  H   H426      1.0  0.47966  0.08311  0.85844  1.0000
  H   H427      1.0  0.28422  0.44093  0.92115  1.0000
  H   H428      1.0  0.38975  0.11688  0.83541  1.0000
  C   C277      1.0  0.11574  0.46484  0.83436  1.0000
  H   H429      1.0  0.27297  0.44383  0.94284  1.0000
  H   H430      1.0  0.29530  0.44726  0.96458  1.0000
  N   N26       1.0  0.20179  0.38092  0.93503  1.0000
  C   C278      1.0  0.21645  0.37096  0.94739  1.0000
  C   C279      1.0  0.18142  0.38850  0.94454  1.0000
  C   C280      1.0  0.19889  0.36557  0.92391  1.0000
  C   C281      1.0  0.21046  0.39871  0.92423  1.0000
  H   H431      1.0  0.23197  0.36505  0.94062  1.0000
  H   H432      1.0  0.21049  0.35749  0.95587  1.0000
  H   H433      1.0  0.21931  0.38220  0.95579  1.0000
  H   H434      1.0  0.17004  0.39614  0.93554  1.0000
  H   H435      1.0  0.17443  0.37546  0.95284  1.0000
  H   H436      1.0  0.18312  0.40014  0.95301  1.0000
  H   H437      1.0  0.18818  0.37267  0.91422  1.0000
  H   H438      1.0  0.19237  0.35187  0.93154  1.0000
  H   H439      1.0  0.21397  0.35961  0.91646  1.0000
  H   H440      1.0  0.19998  0.40657  0.91459  1.0000
  H   H441      1.0  0.22572  0.39341  0.91687  1.0000
  H   H442      1.0  0.21325  0.41052  0.93212  1.0000
  C   C282      1.0  0.03989  0.47196  0.82703  1.0000
  C   C283      1.0  0.38221  0.11847  0.80232  1.0000
  N   N27       1.0  0.38130  0.26866  0.93983  1.0000
  H   H443      1.0  0.48230  0.04484  0.86392  1.0000
  H   H444      1.0  0.18285  0.42054  0.79478  1.0000
  C   C284      1.0  0.36527  0.27923  0.95214  1.0000
  N   N28       1.0  0.37153  0.10756  0.81803  1.0000
  H   H445      1.0  0.29849  0.41364  0.95322  1.0000
  H   H446      1.0  0.20559  0.40856  0.83600  1.0000
  H   H447      1.0  0.39611  0.10825  0.79679  1.0000
  N   N29       1.0  0.30647  0.44217  0.93835  1.0000
  H   H448      1.0  0.39380  0.24573  0.95946  1.0000
  C   C285      1.0  0.37197  0.25336  0.93247  1.0000
  N   N30       1.0  0.19157  0.43097  0.81691  1.0000
  H   H449      1.0  0.18300  0.45716  0.79825  1.0000
  H   H450      1.0  0.38352  0.24546  0.92284  1.0000
  H   H451      1.0  0.28231  0.46570  0.92904  1.0000
  N   N31       1.0  0.38545  0.25488  0.83746  1.0000
  C   C286      1.0  0.37900  0.24481  0.82395  1.0000
  C   C287      1.0  0.37822  0.24417  0.85454  1.0000
  C   C288      1.0  0.37612  0.27712  0.83620  1.0000
  C   C289      1.0  0.40851  0.25331  0.83526  1.0000
  H   H452      1.0  0.38584  0.22798  0.82474  1.0000
  H   H453      1.0  0.38430  0.25240  0.81086  1.0000
  H   H454      1.0  0.36168  0.24567  0.82527  1.0000
  H   H455      1.0  0.38294  0.25135  0.86496  1.0000
  H   H456      1.0  0.36088  0.24509  0.85678  1.0000
  H   H457      1.0  0.38504  0.22735  0.85601  1.0000
  H   H458      1.0  0.35871  0.27893  0.83817  1.0000
  H   H459      1.0  0.38111  0.28572  0.82344  1.0000
  H   H460      1.0  0.38095  0.28510  0.84618  1.0000
  H   H461      1.0  0.41389  0.26098  0.84516  1.0000
  H   H462      1.0  0.41462  0.26099  0.82243  1.0000
  H   H463      1.0  0.41605  0.23669  0.83648  1.0000
  H   H464      1.0  0.37589  0.29311  0.91895  1.0000
  C   C290      1.0  0.03580  0.34613  0.79787  1.0000
  C   C291      1.0  0.00911  0.36339  0.81799  1.0000
  H   H465      1.0  0.32223  0.44203  0.91247  1.0000
  C   C292      1.0  0.19392  0.41561  0.80453  1.0000
  H   H466      1.0  0.37175  0.29087  0.95798  1.0000
  H   H467      1.0  0.26723  0.33636  0.97920  1.0000
  H   H468      1.0  0.30904  0.41124  0.93130  1.0000
  C   C293      1.0  0.28559  0.44850  0.93258  1.0000
  H   H469      1.0  0.48429  0.08215  0.83568  1.0000
  C   C294      1.0  0.38891  0.28428  0.92584  1.0000
  H   H470      1.0  0.48705  0.04290  0.84135  1.0000
  C   C295      1.0  0.13508  0.47011  0.80030  1.0000
  H   H471      1.0  0.37866  0.09340  0.84325  1.0000
  H   H472      1.0  0.39648  0.29584  0.93083  1.0000
  H   H473      1.0  0.35916  0.26782  0.96282  1.0000
  H   H474      1.0  0.10861  0.46250  0.84761  1.0000
  C   C296      1.0  0.13029  0.47887  0.82944  1.0000
  C   C297      1.0  0.33461  0.47365  0.87405  1.0000
  H   H475      1.0  0.11624  0.44783  0.79568  1.0000
  C   C298      1.0  0.44433  0.19886  0.98408  1.0000
  H   H476      1.0  0.40656  0.26868  0.95455  1.0000
  H   H477      1.0  0.32052  0.46622  0.92114  1.0000
  H   H478      1.0  0.05212  0.45870  0.83065  1.0000
  H   H479      1.0  0.33868  0.44416  0.92823  1.0000
  H   H480      1.0  0.16772  0.44415  0.83571  1.0000
  H   H481      1.0  0.19070  0.40000  0.81114  1.0000
  C   C299      1.0  0.20726  0.42435  0.82903  1.0000
  C   C300      1.0  0.42759  0.98968  0.79643  1.0000
  H   H482      1.0  0.32286  0.44767  0.95855  1.0000
  C   C301      1.0  0.31023  0.41921  0.94255  1.0000
  C   C302      1.0  0.32268  0.44892  0.92446  1.0000
  H   H483      1.0  0.35636  0.13613  0.82739  1.0000
  H   H484      1.0  0.32600  0.41376  0.94664  1.0000
  C   C303      1.0  0.35248  0.12119  0.82438  1.0000
  H   H485      1.0  0.48487  0.25027  0.90046  1.0000
  C   C304      1.0  0.31978  0.48499  0.88504  1.0000
  H   H486      1.0  0.02962  0.47561  0.83906  1.0000
  H   H487      1.0  0.03017  0.46634  0.81872  1.0000
  H   H488      1.0  0.07432  0.48453  0.83392  1.0000
  Fe  Fe65      1.0  0.42621  0.71805  0.06992  1.0000
  S   S125      1.0  0.43198  0.68284  0.07115  1.0000
  S   S126      1.0  0.42893  0.73113  0.09454  1.0000
  Fe  Fe66      1.0  0.42462  0.72379  0.03098  1.0000
  S   S127      1.0  0.43046  0.68947  0.02958  1.0000
  S   S128      1.0  0.42516  0.74525  0.00583  1.0000
  Fe  Fe67      1.0  0.40691  0.68686  0.05345  1.0000
  S   S129      1.0  0.37779  0.67153  0.05238  1.0000
  Fe  Fe68      1.0  0.45471  0.68876  0.04716  1.0000
  H   H489      1.0  0.47168  0.70080  0.00663  1.0000
  S   S130      1.0  0.39975  0.72186  0.05385  1.0000
  S   S131      1.0  0.45026  0.72332  0.04704  1.0000
  Fe  Fe69      1.0  0.43567  0.83670  0.12738  1.0000
  H   H490      1.0  0.36995  0.58880  0.04577  1.0000
  S   S132      1.0  0.42000  0.82643  0.10689  1.0000
  Fe  Fe70      1.0  0.46006  0.87010  0.13528  1.0000
  H   H491      1.0  0.37881  0.60079  0.99812  1.0000
  Fe  Fe71      1.0  0.46941  0.82463  0.15043  1.0000
  S   S133      1.0  0.46971  0.84029  0.12332  1.0000
  S   S134      1.0  0.42580  0.86826  0.13676  1.0000
  Fe  Fe72      1.0  0.31118  0.57542  0.07062  1.0000
  S   S135      1.0  0.28561  0.59540  0.05741  1.0000
  S   S136      1.0  0.33829  0.58741  0.07967  1.0000
  Fe  Fe73      1.0  0.29176  0.53526  0.06969  1.0000
  S   S137      1.0  0.26486  0.55277  0.05630  1.0000
  C   C305      1.0  0.28724  0.56888  0.99610  1.0000
  Fe  Fe74      1.0  0.28963  0.57022  0.04016  1.0000
  S   S138      1.0  0.29800  0.57926  0.01156  1.0000
  Fe  Fe75      1.0  0.26350  0.57598  0.07506  1.0000
  S   S139      1.0  0.23580  0.59227  0.09150  1.0000
  S   S140      1.0  0.31658  0.55111  0.05249  1.0000
  S   S141      1.0  0.28899  0.55747  0.08930  1.0000
  Fe  Fe76      1.0  0.13917  0.55510  0.15787  1.0000
  H   H492      1.0  0.48260  0.67515  0.00173  1.0000
  S   S142      1.0  0.16389  0.54442  0.13613  1.0000
  Fe  Fe77      1.0  0.09276  0.57029  0.16964  1.0000
  H   H493      1.0  0.35678  0.80714  0.13069  1.0000
  S   S143      1.0  0.05998  0.58477  0.16407  1.0000
  C   C306      1.0  0.35761  0.57362  0.01993  1.0000
  S   S144      1.0  0.43604  0.81901  0.15390  1.0000
  H   H494      1.0  0.17278  0.50202  0.13113  1.0000
  H   H495      1.0  0.38836  0.83957  0.15982  1.0000
  S   S145      1.0  0.12176  0.58637  0.16418  1.0000
  S   S146      1.0  0.10973  0.54018  0.16119  1.0000
  C   C307      1.0  0.04171  0.56866  0.16118  1.0000
  C   C308      1.0  0.04775  0.54740  0.15992  1.0000
  C   C309      1.0  0.02058  0.57718  0.16065  1.0000
  H   H496      1.0  0.06395  0.54069  0.16014  1.0000
  C   C310      1.0  0.00559  0.56452  0.15903  1.0000
  C   C311      1.0  0.01178  0.54333  0.15747  1.0000
  H   H497      1.0  0.26687  0.58914  0.13883  1.0000
  C   C312      1.0  0.26534  0.59511  0.12512  1.0000
  Fe  Fe78      1.0  0.42910  0.85064  0.16305  1.0000
  H   H498      1.0  0.36076  0.81892  0.17471  1.0000
  H   H499      1.0  0.27959  0.60311  0.09192  1.0000
  C   C313      1.0  0.21629  0.57860  0.10427  1.0000
  C   C314      1.0  0.21563  0.55757  0.10321  1.0000
  C   C315      1.0  0.19957  0.54737  0.11315  1.0000
  C   C316      1.0  0.18414  0.55796  0.12441  1.0000
  C   C317      1.0  0.18501  0.57890  0.12571  1.0000
  C   C318      1.0  0.20095  0.58918  0.11561  1.0000
  H   H500      1.0  0.22732  0.54923  0.09455  1.0000
  H   H501      1.0  0.19906  0.53120  0.11202  1.0000
  H   H502      1.0  0.17320  0.58728  0.13425  1.0000
  H   H503      1.0  0.20125  0.60547  0.11648  1.0000
  S   S147      1.0  0.46263  0.85463  0.16211  1.0000
  H   H504      1.0  0.37355  0.61411  0.03458  1.0000
  H   H505      1.0  0.47623  0.81963  0.18602  1.0000
  H   H506      1.0  0.11645  0.49747  0.14359  1.0000
  H   H507      1.0  0.13433  0.49066  0.16946  1.0000
  H   H508      1.0  0.29029  0.62633  0.09310  1.0000
  C   C319      1.0  0.46461  0.92190  0.13423  1.0000
  C   C320      1.0  0.44553  0.92273  0.14497  1.0000
  C   C321      1.0  0.43607  0.94157  0.15109  1.0000
  C   C322      1.0  0.44548  0.95979  0.14648  1.0000
  C   C323      1.0  0.46463  0.95898  0.13579  1.0000
  C   C324      1.0  0.47418  0.94006  0.12972  1.0000
  H   H509      1.0  0.43804  0.90885  0.14860  1.0000
  H   H510      1.0  0.42127  0.94204  0.15934  1.0000
  H   H511      1.0  0.33631  0.62180  0.03019  1.0000
  H   H512      1.0  0.38948  0.59115  0.02737  1.0000
  C   C325      1.0  0.36696  0.64828  0.06096  1.0000
  C   C326      1.0  0.34666  0.64667  0.05772  1.0000
  C   C327      1.0  0.33747  0.62840  0.06371  1.0000
  C   C328      1.0  0.34862  0.61131  0.07279  1.0000
  C   C329      1.0  0.36878  0.61300  0.07628  1.0000
  C   C330      1.0  0.37794  0.63134  0.07039  1.0000
  H   H513      1.0  0.33796  0.65973  0.05057  1.0000
  H   H514      1.0  0.32180  0.62757  0.06122  1.0000
  H   H515      1.0  0.37752  0.59995  0.08343  1.0000
  H   H516      1.0  0.39352  0.63234  0.07304  1.0000
  H   H517      1.0  0.32459  0.60395  0.02089  1.0000
  H   H518      1.0  0.26307  0.63607  0.12700  1.0000
  C   C331      1.0  0.48199  0.69204  0.99674  1.0000
  H   H519      1.0  0.26249  0.62545  0.09835  1.0000
  C   C332      1.0  0.42355  0.79997  0.10309  1.0000
  C   C333      1.0  0.43256  0.78394  0.11461  1.0000
  C   C334      1.0  0.43382  0.76297  0.11188  1.0000
  C   C335      1.0  0.42666  0.75780  0.09736  1.0000
  C   C336      1.0  0.41820  0.77383  0.08557  1.0000
  C   C337      1.0  0.41641  0.79481  0.08856  1.0000
  H   H520      1.0  0.43824  0.78766  0.12580  1.0000
  H   H521      1.0  0.44040  0.75066  0.12106  1.0000
  H   H522      1.0  0.41269  0.77006  0.07432  1.0000
  H   H523      1.0  0.40946  0.80710  0.07955  1.0000
  H   H524      1.0  0.03783  0.51853  0.15665  1.0000
  C   C338      1.0  0.38829  0.80211  0.14993  1.0000
  H   H525      1.0  0.36978  0.85403  0.14636  1.0000
  H   H526      1.0  0.29065  0.63736  0.12186  1.0000
  H   H527      1.0  0.25847  0.56320  0.01201  1.0000
  H   H528      1.0  0.39621  0.71578  0.00713  1.0000
  H   H529      1.0  0.28104  0.62159  0.14106  1.0000
  H   H530      1.0  0.47201  0.97293  0.13215  1.0000
  C   C339      1.0  0.30245  0.59681  0.11824  1.0000
  H   H531      1.0  0.13487  0.51451  0.13326  1.0000
  C   C340      1.0  0.27831  0.61636  0.09944  1.0000
  H   H532      1.0  0.13069  0.49309  0.12296  1.0000
  H   H533      1.0  0.37668  0.82224  0.12011  1.0000
  C   C341      1.0  0.36395  0.82134  0.13117  1.0000
  N   N32       1.0  0.35776  0.59585  0.02146  1.0000
  H   H534      1.0  0.31485  0.60651  0.11233  1.0000
  H   H535      1.0  0.24914  0.60351  0.12443  1.0000
  C   C342      1.0  0.37340  0.59756  0.03274  1.0000
  H   H536      1.0  0.30477  0.58309  0.11100  1.0000
  H   H537      1.0  0.30535  0.59086  0.13170  1.0000
  H   H538      1.0  0.39482  0.80095  0.16232  1.0000
  S   S148      1.0  0.40545  0.85973  0.18539  1.0000
  H   H539      1.0  0.35446  0.56446  0.03281  1.0000
  C   C343      1.0  0.40152  0.72080  0.99376  1.0000
  H   H540      1.0  0.01577  0.59367  0.16142  1.0000
  H   H541      1.0  0.47005  0.72306  0.10447  1.0000
  H   H542      1.0  0.33230  0.59676  0.04200  1.0000
  S   S149      1.0  0.43287  0.98291  0.15479  1.0000
  H   H543      1.0  0.39423  0.84145  0.13678  1.0000
  C   C344      1.0  0.03290  0.53485  0.15792  1.0000
  H   H544      1.0  0.26666  0.58135  0.11804  1.0000
  S   S150      1.0  0.47715  0.89816  0.12695  1.0000
  H   H545      1.0  0.44212  0.69874  0.99139  1.0000
  C   C345      1.0  0.08623  0.49833  0.18072  1.0000
  H   H546      1.0  0.40157  0.80284  0.13938  1.0000
  C   C346      1.0  0.36310  0.60725  0.00422  1.0000
  C   C347      1.0  0.27890  0.62675  0.12732  1.0000
  N   N33       1.0  0.28125  0.60874  0.11755  1.0000
  H   H547      1.0  0.46766  0.75621  0.08365  1.0000
  N   N34       1.0  0.37216  0.82060  0.14773  1.0000
  H   H548      1.0  0.35149  0.60625  0.99547  1.0000
  C   C348      1.0  0.35498  0.81924  0.16209  1.0000
  H   H549      1.0  0.02459  0.49879  0.13471  1.0000
  C   C349      1.0  0.38152  0.83974  0.14769  1.0000
  H   H550      1.0  0.37288  0.56635  0.01367  1.0000
  C   C350      1.0  0.33683  0.60500  0.02898  1.0000
  H   H551      1.0  0.34768  0.80486  0.16265  1.0000
  C   C351      1.0  0.48327  0.75025  0.07710  1.0000
  H   H552      1.0  0.29507  0.50312  0.04279  1.0000
  H   H553      1.0  0.48619  0.67007  0.07590  1.0000
  H   H554      1.0  0.38192  0.78738  0.14972  1.0000
  H   H555      1.0  0.15294  0.50754  0.15953  1.0000
  H   H556      1.0  0.35194  0.83524  0.12892  1.0000
  C   C352      1.0  0.26727  0.56284  0.99933  1.0000
  H   H557      1.0  0.34519  0.57167  0.01225  1.0000
  H   H558      1.0  0.36329  0.62410  0.00496  1.0000
  H   H559      1.0  0.34248  0.83291  0.16078  1.0000
  H   H560      1.0  0.08149  0.51491  0.18073  1.0000
  S   S151      1.0  0.29433  0.50090  0.08001  1.0000
  H   H561      1.0  0.07193  0.49706  0.15817  1.0000
  S   S152      1.0  0.14548  0.54380  0.18507  1.0000
  H   H562      1.0  0.48154  0.70989  0.08636  1.0000
  Fe  Fe79      1.0  0.11489  0.53168  0.18888  1.0000
  H   H563      1.0  0.48046  0.74192  0.06654  1.0000
  C   C353      1.0  0.08053  0.48817  0.16815  1.0000
  S   S153      1.0  0.48853  0.67606  0.03870  1.0000
  H   H564      1.0  0.47317  0.92002  0.16943  1.0000
  H   H565      1.0  0.48355  0.75370  0.11044  1.0000
  C   C354      1.0  0.14951  0.49119  0.16105  1.0000
  H   H566      1.0  0.40272  0.97518  0.18725  1.0000
  S   S154      1.0  0.99396  0.52698  0.15423  1.0000
  C   C355      1.0  0.13197  0.49793  0.13560  1.0000
  C   C356      1.0  0.48519  0.71819  0.09663  1.0000
  H   H567      1.0  0.01636  0.48714  0.16586  1.0000
  C   C357      1.0  0.48820  0.92218  0.17350  1.0000
  H   H568      1.0  0.48893  0.93953  0.12140  1.0000
  H   H569      1.0  0.48441  0.93344  0.18315  1.0000
  C   C358      1.0  0.29628  0.48692  0.04837  1.0000
  H   H570      1.0  0.47155  0.88873  0.19099  1.0000
  H   H571      1.0  0.49099  0.76401  0.07115  1.0000
  H   H572      1.0  0.49077  0.88560  0.16185  1.0000
  Fe  Fe80      1.0  0.45512  0.85469  0.30471  1.0000
  S   S155      1.0  0.44482  0.87053  0.27967  1.0000
  H   H573      1.0  0.19038  0.50560  0.33921  1.0000
  Fe  Fe81      1.0  0.40962  0.84886  0.32049  1.0000
  S   S156      1.0  0.39646  0.86326  0.29606  1.0000
  S   S157      1.0  0.39097  0.83909  0.34637  1.0000
  Fe  Fe82      1.0  0.42476  0.84529  0.28212  1.0000
  S   S158      1.0  0.42988  0.82574  0.26011  1.0000
  Fe  Fe83      1.0  0.41798  0.88694  0.29581  1.0000
  S   S159      1.0  0.40624  0.92114  0.29100  1.0000
  S   S160      1.0  0.43612  0.82854  0.30665  1.0000
  S   S161      1.0  0.42991  0.87354  0.32084  1.0000
  H   H574      1.0  0.36899  0.93781  0.32454  1.0000
  H   H575      1.0  0.00697  0.59898  0.21019  1.0000
  C   C359      1.0  0.19216  0.90677  0.38285  1.0000
  H   H576      1.0  0.35989  0.94069  0.34673  1.0000
  C   C360      1.0  0.15385  0.52539  0.35312  1.0000
  S   S162      1.0  0.29195  0.86026  0.36519  1.0000
  H   H577      1.0  0.05596  0.59124  0.20431  1.0000
  H   H578      1.0  0.05905  0.57776  0.22546  1.0000
  H   H579      1.0  0.00520  0.57566  0.20131  1.0000
  C   C361      1.0  0.03220  0.67838  0.37121  1.0000
  H   H580      1.0  0.37711  0.90351  0.31504  1.0000
  H   H581      1.0  0.13225  0.73768  0.35357  1.0000
  H   H582      1.0  0.19740  0.52731  0.32384  1.0000
  H   H583      1.0  0.34362  0.93141  0.33387  1.0000
  H   H584      1.0  0.39874  0.89253  0.34882  1.0000
  H   H585      1.0  0.00671  0.58744  0.34486  1.0000
  S   S163      1.0  0.10945  0.70042  0.36607  1.0000
  C   C362      1.0  0.48606  0.89222  0.19518  1.0000
  H   H586      1.0  0.03301  0.62379  0.31150  1.0000
  Fe  Fe84      1.0  0.11160  0.59090  0.33521  1.0000
  S   S164      1.0  0.07842  0.60175  0.32998  1.0000
  S   S165      1.0  0.12969  0.60529  0.35180  1.0000
  Fe  Fe85      1.0  0.11485  0.55145  0.31763  1.0000
  S   S166      1.0  0.08219  0.55934  0.31118  1.0000
  S   S167      1.0  0.13415  0.52257  0.30799  1.0000
  Fe  Fe86      1.0  0.08950  0.59184  0.30370  1.0000
  S   S168      1.0  0.07609  0.60661  0.27944  1.0000
  Fe  Fe87      1.0  0.07410  0.56820  0.33782  1.0000
  S   S169      1.0  0.04542  0.55926  0.35478  1.0000
  S   S170      1.0  0.12323  0.58356  0.30814  1.0000
  S   S171      1.0  0.10628  0.55777  0.34505  1.0000
  C   C363      1.0  0.09313  0.60154  0.26061  1.0000
  C   C364      1.0  0.08503  0.60116  0.24522  1.0000
  C   C365      1.0  0.09856  0.59692  0.23018  1.0000
  C   C366      1.0  0.12025  0.59350  0.23043  1.0000
  C   C367      1.0  0.12830  0.59421  0.24575  1.0000
  C   C368      1.0  0.11479  0.59796  0.26083  1.0000
  H   H587      1.0  0.06829  0.60428  0.24495  1.0000
  H   H588      1.0  0.14506  0.59188  0.24594  1.0000
  H   H589      1.0  0.12121  0.59877  0.27247  1.0000
  H   H590      1.0  0.17427  0.51626  0.32265  1.0000
  H   H591      1.0  0.15382  0.55116  0.32325  1.0000
  H   H592      1.0  0.03161  0.48859  0.35771  1.0000
  C   C369      1.0  0.03453  0.54139  0.34560  1.0000
  C   C370      1.0  0.04710  0.52842  0.33443  1.0000
  C   C371      1.0  0.03792  0.51635  0.32522  1.0000
  H   H593      1.0  0.36425  0.83644  0.37869  1.0000
  H   H594      1.0  0.06390  0.52778  0.33280  1.0000
  H   H595      1.0  0.04758  0.50708  0.31600  1.0000
  H   H596      1.0  0.40105  0.91478  0.33282  1.0000
  H   H597      1.0  0.39212  0.91846  0.35486  1.0000
  H   H598      1.0  0.12692  0.50086  0.23854  1.0000
  C   C372      1.0  0.33248  0.84665  0.37321  1.0000
  H   H599      1.0  0.17586  0.55142  0.36377  1.0000
  C   C373      1.0  0.02436  0.58533  0.31213  1.0000
  C   C374      1.0  0.11441  0.67365  0.36301  1.0000
  C   C375      1.0  0.10697  0.66745  0.34904  1.0000
  C   C376      1.0  0.11092  0.64646  0.34582  1.0000
  C   C377      1.0  0.12284  0.63152  0.35630  1.0000
  C   C378      1.0  0.13026  0.63773  0.37029  1.0000
  C   C379      1.0  0.12586  0.65865  0.37378  1.0000
  H   H600      1.0  0.09820  0.67895  0.34057  1.0000
  H   H601      1.0  0.10526  0.64195  0.33493  1.0000
  H   H602      1.0  0.05041  0.55815  0.19531  1.0000
  C   C380      1.0  0.01620  0.51697  0.32744  1.0000
  C   C381      1.0  0.10963  0.54064  0.24099  1.0000
  S   S172      1.0  0.10842  0.75009  0.38564  1.0000
  C   C382      1.0  0.02227  0.61827  0.32298  1.0000
  C   C383      1.0  0.35430  0.84182  0.36869  1.0000
  H   H603      1.0  0.14345  0.52160  0.34442  1.0000
  C   C384      1.0  0.35733  0.89995  0.35734  1.0000
  H   H604      1.0  0.19886  0.72804  0.34205  1.0000
  H   H605      1.0  0.18613  0.74899  0.35391  1.0000
  Fe  Fe88      1.0  0.12613  0.57376  0.19172  1.0000
  H   H606      1.0  0.02979  0.54439  0.20632  1.0000
  H   H607      1.0  0.15361  0.56581  0.34080  1.0000
  C   C385      1.0  0.36332  0.84409  0.35135  1.0000
  C   C386      1.0  0.35024  0.85091  0.33855  1.0000
  C   C387      1.0  0.32847  0.85574  0.34305  1.0000
  C   C388      1.0  0.31946  0.85365  0.36038  1.0000
  H   H608      1.0  0.35315  0.89498  0.32549  1.0000
  H   H609      1.0  0.20750  0.91261  0.37893  1.0000
  H   H610      1.0  0.35688  0.85235  0.32514  1.0000
  H   H611      1.0  0.31851  0.86096  0.33303  1.0000
  H   H612      1.0  0.03204  0.61126  0.33335  1.0000
  H   H613      1.0  0.19104  0.52592  0.36345  1.0000
  C   C389      1.0  0.42377  0.83634  0.23933  1.0000
  C   C390      1.0  0.40959  0.85458  0.23661  1.0000
  C   C391      1.0  0.40412  0.86177  0.21999  1.0000
  C   C392      1.0  0.41330  0.85114  0.20595  1.0000
  C   C393      1.0  0.42805  0.83334  0.20859  1.0000
  C   C394      1.0  0.43298  0.82578  0.22527  1.0000
  H   H614      1.0  0.40233  0.86275  0.24739  1.0000
  H   H615      1.0  0.39266  0.87552  0.21802  1.0000
  C   C395      1.0  0.09871  0.48724  0.19285  1.0000
  H   H616      1.0  0.44380  0.81154  0.22730  1.0000
  C   C396      1.0  0.41935  0.93509  0.30220  1.0000
  C   C397      1.0  0.40998  0.95475  0.30644  1.0000
  C   C398      1.0  0.41991  0.96561  0.31610  1.0000
  C   C399      1.0  0.43939  0.95704  0.32128  1.0000
  C   C400      1.0  0.44855  0.93717  0.31732  1.0000
  C   C401      1.0  0.43859  0.92626  0.30771  1.0000
  H   H617      1.0  0.39498  0.96153  0.30238  1.0000
  C   C402      1.0  0.16352  0.55450  0.33266  1.0000
  H   H618      1.0  0.46353  0.93032  0.32130  1.0000
  H   H619      1.0  0.44605  0.91120  0.30426  1.0000
  N   N35       1.0  0.16551  0.72911  0.34822  1.0000
  C   C403      1.0  0.16718  0.71506  0.36451  1.0000
  C   C404      1.0  0.16351  0.71680  0.33445  1.0000
  C   C405      1.0  0.18441  0.73956  0.34366  1.0000
  C   C406      1.0  0.14683  0.74503  0.35038  1.0000
  H   H620      1.0  0.16879  0.72385  0.37517  1.0000
  H   H621      1.0  0.18103  0.70274  0.36338  1.0000
  H   H622      1.0  0.15308  0.70703  0.36841  1.0000
  H   H623      1.0  0.11009  0.51022  0.34087  1.0000
  H   H624      1.0  0.17732  0.70459  0.33246  1.0000
  H   H625      1.0  0.14936  0.70869  0.33772  1.0000
  H   H626      1.0  0.13169  0.66318  0.38457  1.0000
  H   H627      1.0  0.18371  0.75035  0.33143  1.0000
  H   H628      1.0  0.03286  0.75810  0.36078  1.0000
  H   H629      1.0  0.11948  0.50684  0.27677  1.0000
  S   S173      1.0  0.09604  0.56054  0.19760  1.0000
  H   H630      1.0  0.14764  0.75435  0.36093  1.0000
  N   N36       1.0  0.17159  0.53511  0.34318  1.0000
  C   C407      1.0  0.18401  0.52043  0.33174  1.0000
  C   C408      1.0  0.18486  0.54015  0.35515  1.0000
  H   H631      1.0  0.18252  0.91222  0.37215  1.0000
  H   H632      1.0  0.12656  0.55206  0.26658  1.0000
  C   C409      1.0  0.06113  0.67647  0.38747  1.0000
  H   H633      1.0  0.48954  0.84784  0.23195  1.0000
  H   H634      1.0  0.06338  0.70065  0.35714  1.0000
  C   C410      1.0  0.01288  0.54133  0.34834  1.0000
  C   C411      1.0  0.48055  0.83904  0.24285  1.0000
  C   C412      1.0  0.04732  0.58637  0.21716  1.0000
  N   N37       1.0  0.36948  0.90898  0.34151  1.0000
  C   C413      1.0  0.36004  0.93070  0.33647  1.0000
  H   H635      1.0  0.03535  0.57790  0.32144  1.0000
  S   S174      1.0  0.45262  0.97139  0.33214  1.0000
  H   H636      1.0  0.11925  0.54856  0.22988  1.0000
  S   S175      1.0  0.13777  0.58824  0.21194  1.0000
  H   H637      1.0  0.13950  0.62630  0.37846  1.0000
  H   H638      1.0  0.01910  0.68862  0.36525  1.0000
  H   H639      1.0  0.35662  0.90925  0.36814  1.0000
  H   H640      1.0  0.07203  0.66873  0.37735  1.0000
  N   N38       1.0  0.00996  0.60296  0.31890  1.0000
  C   C414      1.0  0.12703  0.49831  0.31803  1.0000
  H   H641      1.0  0.03408  0.59052  0.29993  1.0000
  C   C415      1.0  0.99690  0.59522  0.33473  1.0000
  C   C416      1.0  0.99636  0.61309  0.30580  1.0000
  H   H642      1.0  0.09962  0.50732  0.26318  1.0000
  H   H643      1.0  0.17642  0.56253  0.32520  1.0000
  C   C417      1.0  0.04230  0.75991  0.38543  1.0000
  H   H644      1.0  0.15929  0.51055  0.36105  1.0000
  C   C418      1.0  0.00810  0.75241  0.38136  1.0000
  H   H645      1.0  0.16201  0.72691  0.32197  1.0000
  H   H646      1.0  0.14411  0.53598  0.36195  1.0000
  H   H647      1.0  0.19847  0.54741  0.34806  1.0000
  C   C419      1.0  0.11559  0.49650  0.33446  1.0000
  C   C420      1.0  0.39129  0.90870  0.34467  1.0000
  H   H648      1.0  0.14692  0.50030  0.25201  1.0000
  C   C421      1.0  0.02817  0.75699  0.37454  1.0000
  C   C422      1.0  0.13627  0.53981  0.25929  1.0000
  H   H649      1.0  0.48427  0.87005  0.33297  1.0000
  H   H650      1.0  0.09972  0.53148  0.23558  1.0000
  H   H651      1.0  0.09918  0.55307  0.24758  1.0000
  C   C423      1.0  0.13646  0.51080  0.24352  1.0000
  H   H652      1.0  0.37788  0.88046  0.33022  1.0000
  H   H653      1.0  0.09232  0.59695  0.21827  1.0000
  H   H654      1.0  0.05267  0.54462  0.21646  1.0000
  H   H655      1.0  0.03925  0.71778  0.36154  1.0000
  C   C424      1.0  0.36935  0.89645  0.32746  1.0000
  H   H656      1.0  0.34097  0.89912  0.35528  1.0000
  N   N39       1.0  0.12304  0.52708  0.25285  1.0000
  H   H657      1.0  0.36449  0.88372  0.36160  1.0000
  H   H658      1.0  0.14521  0.75615  0.33843  1.0000
  H   H659      1.0  0.14622  0.54788  0.24852  1.0000
  H   H660      1.0  0.04268  0.67086  0.36075  1.0000
  C   C425      1.0  0.00369  0.52933  0.33910  1.0000
  H   H661      1.0  0.47159  0.82895  0.23750  1.0000
  N   N40       1.0  0.04365  0.69046  0.38009  1.0000
  S   S176      1.0  0.11079  0.50106  0.20491  1.0000
  C   C426      1.0  0.04147  0.55428  0.20815  1.0000
  H   H662      1.0  0.02529  0.66588  0.38031  1.0000
  H   H663      1.0  0.32576  0.84490  0.38659  1.0000
  H   H664      1.0  0.19522  0.88937  0.38401  1.0000
  C   C427      1.0  0.10979  0.51711  0.26754  1.0000
  H   H665      1.0  0.05778  0.76337  0.38005  1.0000
  H   H666      1.0  0.01573  0.57297  0.30962  1.0000
  H   H667      1.0  0.49032  0.93969  0.33374  1.0000
  H   H668      1.0  0.23472  0.97275  0.37959  1.0000
  N   N41       1.0  0.03129  0.57339  0.21560  1.0000
  H   H669      1.0  0.16868  0.94380  0.38676  1.0000
  H   H670      1.0  0.14672  0.53006  0.26820  1.0000
  C   C428      1.0  0.48188  0.81701  0.27005  1.0000
  H   H671      1.0  0.04016  0.60087  0.22282  1.0000
  S   S177      1.0  0.00453  0.50294  0.31528  1.0000
  H   H672      1.0  0.00309  0.55106  0.35718  1.0000
  C   C429      1.0  0.05202  0.70717  0.36761  1.0000
  H   H673      1.0  0.48126  0.90250  0.20552  1.0000
  H   H674      1.0  0.00575  0.61888  0.29362  1.0000
  Fe  Fe89      1.0  0.11242  0.71492  0.38993  1.0000
  H   H675      1.0  0.02461  0.59176  0.19172  1.0000
  H   H676      1.0  0.06043  0.71689  0.37392  1.0000
  H   H677      1.0  0.14646  0.51782  0.23220  1.0000
  C   C430      1.0  0.01633  0.58546  0.20426  1.0000
  H   H678      1.0  0.48987  0.96942  0.34928  1.0000
  H   H679      1.0  0.20459  0.77567  0.38894  1.0000
  H   H680      1.0  0.09952  0.52897  0.27492  1.0000
  H   H681      1.0  0.37660  0.98588  0.19545  1.0000
  H   H682      1.0  0.01545  0.70982  0.38890  1.0000
  C   C431      1.0  0.40247  0.98316  0.21968  1.0000
  H   H683      1.0  0.00818  0.55731  0.23223  1.0000
  H   H684      1.0  0.03096  0.55889  0.24187  1.0000
  H   H685      1.0  0.47188  0.80649  0.26641  1.0000
  C   C432      1.0  0.02008  0.56751  0.23283  1.0000
  H   H686      1.0  0.41291  0.96854  0.21679  1.0000
  H   H687      1.0  0.01164  0.58149  0.23870  1.0000
  S   S178      1.0  0.49038  0.84629  0.30378  1.0000
  H   H688      1.0  0.47120  0.82909  0.27683  1.0000
  H   H689      1.0  0.38682  0.97887  0.22524  1.0000
  H   H690      1.0  0.46882  0.85056  0.24944  1.0000
  H   H691      1.0  0.01192  0.63216  0.32756  1.0000
  H   H692      1.0  0.43510  0.82497  0.19788  1.0000
  H   H693      1.0  0.41229  0.98048  0.31979  1.0000
  H   H694      1.0  0.49024  0.83899  0.20506  1.0000
  S   S179      1.0  0.99137  0.74742  0.36738  1.0000
  H   H695      1.0  0.29239  0.88829  0.48765  1.0000
  Fe  Fe90      1.0  0.26628  0.86275  0.57618  1.0000
  Fe  Fe91      1.0  0.27324  0.85517  0.53865  1.0000
  S   S180      1.0  0.24217  0.87277  0.53347  1.0000
  S   S181      1.0  0.29774  0.84555  0.51702  1.0000
  Fe  Fe92      1.0  0.24931  0.89627  0.54887  1.0000
  C   C433      1.0  0.03177  0.74020  0.53339  1.0000
  Fe  Fe93      1.0  0.22952  0.85555  0.55871  1.0000
  S   S182      1.0  0.19848  0.84440  0.55682  1.0000
  S   S183      1.0  0.28143  0.87976  0.55230  1.0000
  S   S184      1.0  0.26063  0.83616  0.56289  1.0000
  Fe  Fe94      1.0  0.26171  0.84151  0.42890  1.0000
  S   S185      1.0  0.23109  0.86218  0.43149  1.0000
  S   S186      1.0  0.26501  0.81924  0.45318  1.0000
  S   S187      1.0  0.27973  0.86740  0.41609  1.0000
  H   H696      1.0  0.21036  0.91131  0.41000  1.0000
  Fe  Fe95      1.0  0.13616  0.74632  0.57223  1.0000
  S   S188      1.0  0.14935  0.72016  0.55662  1.0000
  S   S189      1.0  0.24204  0.91761  0.42921  1.0000
  Fe  Fe96      1.0  0.09107  0.74313  0.56687  1.0000
  S   S190      1.0  0.10133  0.71731  0.55047  1.0000
  C   C434      1.0  0.18802  0.78747  0.58307  1.0000
  Fe  Fe97      1.0  0.12275  0.70364  0.57036  1.0000
  H   H697      1.0  0.26442  0.96936  0.53272  1.0000
  Fe  Fe98      1.0  0.12685  0.73595  0.53837  1.0000
  S   S191      1.0  0.13928  0.74232  0.51032  1.0000
  N   N42       1.0  0.16002  0.66706  0.52759  1.0000
  S   S192      1.0  0.11501  0.76320  0.55315  1.0000
  C   C435      1.0  0.16434  0.82004  0.40669  1.0000
  S   S193      1.0  0.08837  0.71384  0.41320  1.0000
  Fe  Fe99      1.0  0.11449  0.71446  0.42848  1.0000
  S   S194      1.0  0.11279  0.69525  0.45458  1.0000
  S   S195      1.0  0.11123  0.74931  0.42676  1.0000
  C   C436      1.0  0.23957  0.98131  0.57176  1.0000
  H   H698      1.0  0.15940  0.68937  0.50470  1.0000
  H   H699      1.0  0.01105  0.75438  0.42371  1.0000
  H   H700      1.0  0.15081  0.91194  0.39354  1.0000
  C   C437      1.0  0.13134  0.72916  0.49518  1.0000
  C   C438      1.0  0.13849  0.73424  0.47773  1.0000
  C   C439      1.0  0.13292  0.72375  0.46526  1.0000
  C   C440      1.0  0.12038  0.70795  0.47020  1.0000
  C   C441      1.0  0.11350  0.70257  0.48769  1.0000
  C   C442      1.0  0.11870  0.71341  0.50017  1.0000
  H   H701      1.0  0.14837  0.74633  0.47384  1.0000
  H   H702      1.0  0.13867  0.72768  0.45184  1.0000
  H   H703      1.0  0.10380  0.69031  0.49154  1.0000
  H   H704      1.0  0.11303  0.70956  0.51360  1.0000
  C   C443      1.0  0.03896  0.74929  0.56042  1.0000
  C   C444      1.0  0.01744  0.75089  0.56638  1.0000
  C   C445      1.0  0.18553  0.82291  0.40270  1.0000
  H   H705      1.0  0.12178  0.79396  0.57808  1.0000
  H   H706      1.0  0.16347  0.63433  0.52530  1.0000
  C   C446      1.0  0.04606  0.74380  0.54392  1.0000
  H   H707      1.0  0.23885  0.91007  0.50593  1.0000
  H   H708      1.0  0.26622  0.87779  0.47206  1.0000
  H   H709      1.0  0.36798  0.82458  0.56544  1.0000
  S   S196      1.0  0.13912  0.71213  0.40552  1.0000
  C   C447      1.0  0.13699  0.66900  0.53148  1.0000
  H   H710      1.0  0.23788  0.93576  0.39338  1.0000
  H   H711      1.0  0.27684  0.93214  0.47098  1.0000
  C   C448      1.0  0.25485  0.96758  0.54509  1.0000
  H   H712      1.0  0.24106  0.89331  0.47122  1.0000
  S   S197      1.0  0.23410  0.88100  0.57387  1.0000
  C   C449      1.0  0.18966  0.81974  0.56345  1.0000
  C   C450      1.0  0.17351  0.81470  0.55551  1.0000
  C   C451      1.0  0.16483  0.79607  0.56115  1.0000
  C   C452      1.0  0.17179  0.78251  0.57519  1.0000
  S   S198      1.0  0.12615  0.66822  0.57643  1.0000
  H   H713      1.0  0.20935  0.80956  0.58347  1.0000
  H   H714      1.0  0.16762  0.82535  0.54495  1.0000
  H   H715      1.0  0.15244  0.79251  0.55488  1.0000
  C   C453      1.0  0.24126  0.94336  0.41830  1.0000
  C   C454      1.0  0.01029  0.74189  0.53928  1.0000
  C   C455      1.0  0.28760  0.84006  0.49903  1.0000
  C   C456      1.0  0.29951  0.84197  0.48276  1.0000
  C   C457      1.0  0.29205  0.83680  0.46838  1.0000
  C   C458      1.0  0.27293  0.82911  0.47033  1.0000
  C   C459      1.0  0.26089  0.82749  0.48657  1.0000
  C   C460      1.0  0.26804  0.83330  0.50083  1.0000
  H   H716      1.0  0.31469  0.84712  0.48129  1.0000
  H   H717      1.0  0.30156  0.83779  0.45594  1.0000
  H   H718      1.0  0.24619  0.82137  0.48823  1.0000
  H   H719      1.0  0.25879  0.83169  0.51336  1.0000
  H   H720      1.0  0.24757  0.87814  0.49112  1.0000
  H   H721      1.0  0.21632  0.80863  0.39323  1.0000
  H   H722      1.0  0.28285  0.90907  0.46019  1.0000
  H   H723      1.0  0.25113  0.93261  0.49757  1.0000
  H   H724      1.0  0.31232  0.87753  0.57595  1.0000
  S   S199      1.0  0.24929  0.92975  0.53670  1.0000
  C   C461      1.0  0.24542  0.94945  0.55033  1.0000
  H   H725      1.0  0.28574  0.91128  0.49857  1.0000
  C   C462      1.0  0.33856  0.87783  0.58958  1.0000
  H   H726      1.0  0.19725  0.88862  0.41505  1.0000
  H   H727      1.0  0.16332  0.88874  0.40512  1.0000
  S   S200      1.0  0.05652  0.75478  0.57362  1.0000
  N   N43       1.0  0.20771  0.79629  0.45130  1.0000
  C   C463      1.0  0.21172  0.80883  0.46424  1.0000
  C   C464      1.0  0.18651  0.80355  0.44639  1.0000
  C   C465      1.0  0.20929  0.77406  0.45864  1.0000
  C   C466      1.0  0.22336  0.79872  0.43588  1.0000
  H   H728      1.0  0.22732  0.80323  0.46865  1.0000
  H   H729      1.0  0.19979  0.80803  0.47583  1.0000
  H   H730      1.0  0.21168  0.82555  0.45885  1.0000
  H   H731      1.0  0.18481  0.82030  0.44079  1.0000
  H   H732      1.0  0.18308  0.79450  0.43652  1.0000
  H   H733      1.0  0.17423  0.80187  0.45766  1.0000
  H   H734      1.0  0.22520  0.76808  0.46231  1.0000
  H   H735      1.0  0.20620  0.76418  0.44923  1.0000
  H   H736      1.0  0.19780  0.77169  0.47040  1.0000
  H   H737      1.0  0.22120  0.78908  0.42599  1.0000
  H   H738      1.0  0.23964  0.79406  0.43916  1.0000
  H   H739      1.0  0.22216  0.81524  0.42978  1.0000
  H   H740      1.0  0.12152  0.62564  0.58969  1.0000
  H   H741      1.0  0.31024  0.84004  0.57178  1.0000
  C   C467      1.0  0.25213  0.98339  0.55586  1.0000
  H   H742      1.0  0.19357  0.94340  0.39407  1.0000
  Fe  Fe100     1.0  0.24832  0.88756  0.41683  1.0000
  Fe  Fe101     1.0  0.22661  0.85311  0.40622  1.0000
  S   S201      1.0  0.19313  0.84703  0.40564  1.0000
  H   H743      1.0  0.99545  0.65279  0.58112  1.0000
  C   C468      1.0  0.19473  0.90599  0.41306  1.0000
  C   C469      1.0  0.19709  0.80583  0.57712  1.0000
  H   H744      1.0  0.27983  0.90415  0.58730  1.0000
  C   C470      1.0  0.27932  0.89818  0.49463  1.0000
  C   C471      1.0  0.00207  0.75119  0.39916  1.0000
  H   H745      1.0  0.34274  0.79623  0.55114  1.0000
  H   H746      1.0  0.13193  0.65496  0.53980  1.0000
  C   C472      1.0  0.15767  0.80118  0.40450  1.0000
  H   H747      1.0  0.12936  0.67122  0.51954  1.0000
  H   H748      1.0  0.27380  0.88844  0.50665  1.0000
  S   S202      1.0  0.25652  0.83077  0.40428  1.0000
  H   H749      1.0  0.18752  0.91140  0.42556  1.0000
  H   H750      1.0  0.02297  0.68773  0.40397  1.0000
  C   C473      1.0  0.24238  0.95963  0.42775  1.0000
  N   N44       1.0  0.26221  0.90592  0.48399  1.0000
  C   C474      1.0  0.24534  0.91901  0.49379  1.0000
  C   C475      1.0  0.25386  0.88802  0.47942  1.0000
  C   C476      1.0  0.27032  0.91852  0.46807  1.0000
  C   C477      1.0  0.23284  0.94741  0.56621  1.0000
  Fe  Fe102     1.0  0.13401  0.74748  0.40248  1.0000
  H   H751      1.0  0.23217  0.92522  0.48615  1.0000
  C   C478      1.0  0.17208  0.78507  0.39798  1.0000
  C   C479      1.0  0.34074  0.84895  0.54621  1.0000
  C   C480      1.0  0.01593  0.75495  0.41001  1.0000
  N   N45       1.0  0.33815  0.82826  0.55597  1.0000
  H   H752      1.0  0.33082  0.85273  0.53554  1.0000
  H   H753      1.0  0.01186  0.75509  0.57915  1.0000
  N   N46       1.0  0.05085  0.73809  0.46941  1.0000
  C   C481      1.0  0.06678  0.73649  0.48119  1.0000
  C   C482      1.0  0.03164  0.73073  0.47905  1.0000
  C   C483      1.0  0.05914  0.72509  0.45547  1.0000
  C   C484      1.0  0.04589  0.76007  0.46186  1.0000
  H   H754      1.0  0.08164  0.74154  0.47423  1.0000
  H   H755      1.0  0.07071  0.72012  0.48722  1.0000
  H   H756      1.0  0.06128  0.74635  0.49175  1.0000
  H   H757      1.0  0.01932  0.73167  0.47050  1.0000
  H   H758      1.0  0.03480  0.71419  0.48494  1.0000
  H   H759      1.0  0.02488  0.74022  0.48967  1.0000
  H   H760      1.0  0.04770  0.72614  0.44612  1.0000
  H   H761      1.0  0.06319  0.70836  0.46060  1.0000
  H   H762      1.0  0.07369  0.73022  0.44804  1.0000
  H   H763      1.0  0.03383  0.76183  0.45294  1.0000
  H   H764      1.0  0.05996  0.76598  0.45417  1.0000
  H   H765      1.0  0.03982  0.77044  0.47196  1.0000
  H   H766      1.0  0.01718  0.70318  0.57040  1.0000
  H   H767      1.0  0.06253  0.74276  0.53911  1.0000
  S   S203      1.0  0.11104  0.72850  0.58766  1.0000
  H   H768      1.0  0.24422  0.95622  0.44126  1.0000
  C   C485      1.0  0.00316  0.74704  0.55590  1.0000
  H   H769      1.0  0.22513  0.93371  0.57017  1.0000
  S   S204      1.0  0.15896  0.76074  0.58462  1.0000
  H   H770      1.0  0.99315  0.79287  0.55386  1.0000
  H   H771      1.0  0.34796  0.88461  0.57838  1.0000
  H   H772      1.0  0.17038  0.94311  0.40933  1.0000
  Fe  Fe103     1.0  0.08631  0.74852  0.41018  1.0000
  H   H773      1.0  0.35726  0.84965  0.54042  1.0000
  H   H774      1.0  0.03702  0.70986  0.40054  1.0000
  C   C486      1.0  0.27146  0.92004  0.58906  1.0000
  S   S205      1.0  0.05333  0.76392  0.41683  1.0000
  H   H775      1.0  0.03743  0.73616  0.52060  1.0000
  H   H776      1.0  0.25774  0.92470  0.45983  1.0000
  C   C487      1.0  0.35113  0.82412  0.57025  1.0000
  C   C488      1.0  0.22978  0.96338  0.57681  1.0000
  C   C489      1.0  0.34469  0.81205  0.54429  1.0000
  H   H777      1.0  0.34968  0.80855  0.57780  1.0000
  H   H778      1.0  0.15290  0.91109  0.41606  1.0000
  H   H779      1.0  0.16384  0.67680  0.55159  1.0000
  C   C490      1.0  0.20000  0.80665  0.39651  1.0000
  C   C491      1.0  0.11106  0.79110  0.59022  1.0000
  C   C492      1.0  0.16935  0.66360  0.54388  1.0000
  H   H780      1.0  0.18508  0.64724  0.51465  1.0000
  C   C493      1.0  0.16774  0.64917  0.51781  1.0000
  C   C494      1.0  0.31844  0.87363  0.58813  1.0000
  H   H781      1.0  0.33514  0.81491  0.53336  1.0000
  C   C495      1.0  0.16122  0.90616  0.40368  1.0000
  H   H782      1.0  0.33623  0.86156  0.55459  1.0000
  H   H783      1.0  0.13068  0.68255  0.53862  1.0000
  H   H784      1.0  0.18673  0.66194  0.54155  1.0000
  H   H785      1.0  0.31336  0.81259  0.57061  1.0000
  H   H786      1.0  0.16094  0.65130  0.50545  1.0000
  H   H787      1.0  0.15990  0.70033  0.52402  1.0000
  C   C496      1.0  0.31594  0.82790  0.56305  1.0000
  H   H788      1.0  0.36140  0.81177  0.53870  1.0000
  H   H789      1.0  0.11550  0.83151  0.58207  1.0000
  C   C497      1.0  0.23685  0.96910  0.39305  1.0000
  H   H790      1.0  0.02083  0.68522  0.58953  1.0000
  C   C498      1.0  0.23863  0.94814  0.40084  1.0000
  C   C499      1.0  0.16593  0.68643  0.51720  1.0000
  H   H791      1.0  0.16483  0.64935  0.55222  1.0000
  H   H792      1.0  0.18321  0.68578  0.51433  1.0000
  C   C500      1.0  0.24121  0.98043  0.41986  1.0000
  H   H793      1.0  0.30581  0.83076  0.55256  1.0000
  H   H794      1.0  0.09498  0.79211  0.58674  1.0000
  H   H795      1.0  0.27530  0.93057  0.57699  1.0000
  C   C501      1.0  0.01401  0.68762  0.57718  1.0000
  H   H796      1.0  0.14130  0.79931  0.40750  1.0000
  H   H797      1.0  0.21973  0.96186  0.58895  1.0000
  Fe  Fe104     1.0  0.27205  0.85862  0.39143  1.0000
  H   H798      1.0  0.34632  0.83593  0.57942  1.0000
  S   S206      1.0  0.16448  0.76148  0.39378  1.0000
  S   S207      1.0  0.99295  0.73800  0.52526  1.0000
  H   H799      1.0  0.02271  0.67564  0.56914  1.0000
  C   C502      1.0  0.03611  0.75920  0.40316  1.0000
  C   C503      1.0  0.19328  0.78794  0.39407  1.0000
  H   H800      1.0  0.15297  0.83248  0.41147  1.0000
  C   C504      1.0  0.17836  0.93711  0.39724  1.0000
  N   N47       1.0  0.18159  0.91403  0.39920  1.0000
  C   C505      1.0  0.02920  0.69984  0.39401  1.0000
  H   H801      1.0  0.25441  0.91906  0.59043  1.0000
  H   H802      1.0  0.05539  0.66398  0.39729  1.0000
  C   C506      1.0  0.23829  0.98531  0.40251  1.0000
  H   H803      1.0  0.30514  0.93805  0.59020  1.0000
  H   H804      1.0  0.07053  0.68526  0.39373  1.0000
  S   S208      1.0  0.24142  0.88046  0.39154  1.0000
  H   H805      1.0  0.05861  0.52244  0.59083  1.0000
  N   N48       1.0  0.99133  0.68625  0.58014  1.0000
  Fe  Fe105     1.0  0.41281  0.90893  0.64225  1.0000
  S   S209      1.0  0.42207  0.88383  0.62521  1.0000
  S   S210      1.0  0.42855  0.93740  0.63796  1.0000
  Fe  Fe106     1.0  0.38543  0.88335  0.66820  1.0000
  S   S211      1.0  0.39282  0.85548  0.65351  1.0000
  S   S212      1.0  0.36319  0.88575  0.69264  1.0000
  Fe  Fe107     1.0  0.42604  0.86286  0.64992  1.0000
  S   S213      1.0  0.45653  0.84211  0.65444  1.0000
  Fe  Fe108     1.0  0.38799  0.87929  0.63013  1.0000
  S   S214      1.0  0.37231  0.87844  0.60627  1.0000
  S   S215      1.0  0.41863  0.88845  0.66663  1.0000
  S   S216      1.0  0.37859  0.90667  0.64517  1.0000
  S   S217      1.0  0.38991  0.84817  0.76565  1.0000
  H   H806      1.0  0.07785  0.52879  0.63887  1.0000
  C   C507      1.0  0.42968  0.97380  0.67438  1.0000
  Fe  Fe109     1.0  0.11305  0.58732  0.66244  1.0000
  S   S218      1.0  0.09987  0.58535  0.69048  1.0000
  S   S219      1.0  0.12205  0.61964  0.65260  1.0000
  Fe  Fe110     1.0  0.11158  0.54067  0.66202  1.0000
  S   S220      1.0  0.09835  0.53546  0.68975  1.0000
  Fe  Fe111     1.0  0.07792  0.56583  0.68383  1.0000
  S   S221      1.0  0.04413  0.57028  0.69495  1.0000
  Fe  Fe112     1.0  0.12147  0.55530  0.69405  1.0000
  S   S222      1.0  0.14143  0.54368  0.71528  1.0000
  S   S223      1.0  0.08909  0.56982  0.65538  1.0000
  S   S224      1.0  0.13657  0.55845  0.66668  1.0000
  C   C508      1.0  0.31418  0.86047  0.61838  1.0000
  H   H807      1.0  0.27519  0.91855  0.63161  1.0000
  C   C509      1.0  0.13630  0.55743  0.73332  1.0000
  C   C510      1.0  0.14801  0.55089  0.74708  1.0000
  C   C511      1.0  0.14480  0.56217  0.76125  1.0000
  C   C512      1.0  0.13027  0.58038  0.76148  1.0000
  C   C513      1.0  0.11847  0.58690  0.74776  1.0000
  C   C514      1.0  0.12119  0.57519  0.73387  1.0000
  H   H808      1.0  0.15959  0.53706  0.74684  1.0000
  H   H809      1.0  0.15384  0.55696  0.77188  1.0000
  H   H810      1.0  0.10691  0.60073  0.74809  1.0000
  H   H811      1.0  0.11158  0.57991  0.72366  1.0000
  C   C515      1.0  0.03163  0.55729  0.68260  1.0000
  H   H812      1.0  0.10325  0.78503  0.62471  1.0000
  H   H813      1.0  0.00725  0.59569  0.71713  1.0000
  H   H814      1.0  0.14812  0.49579  0.71941  1.0000
  C   C516      1.0  0.03404  0.53165  0.66295  1.0000
  C   C517      1.0  0.04296  0.54054  0.67460  1.0000
  C   C518      1.0  0.01240  0.59227  0.73019  1.0000
  C   C519      1.0  0.12088  0.62272  0.61729  1.0000
  H   H815      1.0  0.04284  0.51866  0.65688  1.0000
  H   H816      1.0  0.05872  0.53464  0.67722  1.0000
  C   C520      1.0  0.12203  0.63375  0.60055  1.0000
  H   H817      1.0  0.11834  0.61464  0.71059  1.0000
  C   C521      1.0  0.12381  0.65435  0.62860  1.0000
  C   C522      1.0  0.12195  0.63296  0.63139  1.0000
  C   C523      1.0  0.00229  0.55598  0.66752  1.0000
  H   H818      1.0  0.15263  0.63459  0.67207  1.0000
  H   H819      1.0  0.08264  0.50475  0.66796  1.0000
  H   H820      1.0  0.12469  0.66240  0.63941  1.0000
  C   C524      1.0  0.41063  0.79702  0.77994  1.0000
  H   H821      1.0  0.35813  0.94266  0.71494  1.0000
  N   N49       1.0  0.07042  0.52205  0.61485  1.0000
  H   H822      1.0  0.38322  0.90347  0.74761  1.0000
  C   C525      1.0  0.34659  0.87348  0.60546  1.0000
  C   C526      1.0  0.39690  0.96986  0.61150  1.0000
  H   H823      1.0  0.41983  0.78261  0.77531  1.0000
  C   C527      1.0  0.46380  0.86551  0.71315  1.0000
  H   H824      1.0  0.11957  0.60624  0.61926  1.0000
  C   C528      1.0  0.33420  0.86499  0.61992  1.0000
  H   H825      1.0  0.36327  0.90849  0.73358  1.0000
  H   H826      1.0  0.47638  0.91055  0.76586  1.0000
  H   H827      1.0  0.39034  0.95883  0.62228  1.0000
  H   H828      1.0  0.10106  0.50585  0.61860  1.0000
  C   C529      1.0  0.37184  0.87408  0.71226  1.0000
  C   C530      1.0  0.35690  0.86779  0.72576  1.0000
  C   C531      1.0  0.36277  0.85952  0.74194  1.0000
  C   C532      1.0  0.38352  0.85817  0.74497  1.0000
  C   C533      1.0  0.39860  0.86468  0.73157  1.0000
  C   C534      1.0  0.39281  0.87232  0.71509  1.0000
  H   H829      1.0  0.34069  0.86918  0.72364  1.0000
  H   H830      1.0  0.35108  0.85449  0.75222  1.0000
  H   H831      1.0  0.41471  0.86347  0.73384  1.0000
  H   H832      1.0  0.40440  0.87721  0.70470  1.0000
  C   C535      1.0  0.42187  0.94993  0.65640  1.0000
  C   C536      1.0  0.43582  0.96171  0.66085  1.0000
  C   C537      1.0  0.39560  0.96232  0.67904  1.0000
  C   C538      1.0  0.40207  0.94949  0.66597  1.0000
  H   H833      1.0  0.45115  0.96197  0.65352  1.0000
  H   H834      1.0  0.39126  0.94036  0.66253  1.0000
  H   H835      1.0  0.12336  0.64110  0.70511  1.0000
  H   H836      1.0  0.15117  0.60474  0.72398  1.0000
  C   C539      1.0  0.15935  0.63294  0.68446  1.0000
  H   H837      1.0  0.17646  0.62774  0.68169  1.0000
  H   H838      1.0  0.15715  0.64873  0.68867  1.0000
  H   H839      1.0  0.06633  0.54672  0.59395  1.0000
  C   C540      1.0  0.00889  0.57169  0.75815  1.0000
  H   H840      1.0  0.39648  0.80109  0.77311  1.0000
  H   H841      1.0  0.40113  0.95554  0.73538  1.0000
  C   C541      1.0  0.09219  0.51431  0.60807  1.0000
  C   C542      1.0  0.00499  0.55693  0.73276  1.0000
  H   H842      1.0  0.38234  0.94868  0.75355  1.0000
  C   C543      1.0  0.30628  0.86459  0.60245  1.0000
  H   H843      1.0  0.38880  0.98495  0.64229  1.0000
  C   C544      1.0  0.47824  0.87893  0.68456  1.0000
  S   S225      1.0  0.00500  0.53213  0.64132  1.0000
  H   H844      1.0  0.49006  0.95463  0.64277  1.0000
  C   C545      1.0  0.39739  0.92457  0.71750  1.0000
  H   H845      1.0  0.30471  0.93394  0.61322  1.0000
  S   S226      1.0  0.44471  0.84379  0.78039  1.0000
  C   C546      1.0  0.01414  0.54012  0.65868  1.0000
  H   H846      1.0  0.46082  0.88135  0.71736  1.0000
  H   H847      1.0  0.44039  0.98328  0.67752  1.0000
  H   H848      1.0  0.41424  0.96568  0.61022  1.0000
  H   H849      1.0  0.46049  0.88436  0.63871  1.0000
  H   H850      1.0  0.17546  0.61080  0.71210  1.0000
  N   N50       1.0  0.00120  0.57619  0.74114  1.0000
  C   C547      1.0  0.40927  0.97491  0.68290  1.0000
  H   H851      1.0  0.05970  0.49269  0.61442  1.0000
  H   H852      1.0  0.37371  0.96250  0.71641  1.0000
  H   H853      1.0  0.36019  0.92167  0.75238  1.0000
  H   H854      1.0  0.10081  0.52734  0.60178  1.0000
  N   N51       1.0  0.14921  0.61798  0.69762  1.0000
  H   H855      1.0  0.47206  0.83919  0.68868  1.0000
  H   H856      1.0  0.07961  0.54969  0.62161  1.0000
  H   H857      1.0  0.27000  0.95529  0.61699  1.0000
  H   H858      1.0  0.37965  0.96344  0.68531  1.0000
  H   H859      1.0  0.34020  0.86154  0.63222  1.0000
  H   H860      1.0  0.00975  0.60714  0.73596  1.0000
  C   C548      1.0  0.09021  0.49061  0.66286  1.0000
  H   H861      1.0  0.40915  0.91186  0.72272  1.0000
  H   H862      1.0  0.44938  0.86272  0.70838  1.0000
  H   H863      1.0  0.05444  0.54401  0.63183  1.0000
  H   H864      1.0  0.25389  0.91283  0.62185  1.0000
  H   H865      1.0  0.06782  0.49573  0.63442  1.0000
  C   C549      1.0  0.12651  0.62542  0.70063  1.0000
  C   C550      1.0  0.27103  0.91347  0.61989  1.0000
  H   H866      1.0  0.09846  0.81214  0.62780  1.0000
  H   H867      1.0  0.00066  0.55970  0.76679  1.0000
  C   C551      1.0  0.47594  0.87617  0.64033  1.0000
  H   H868      1.0  0.40602  0.93690  0.70980  1.0000
  N   N52       1.0  0.38221  0.93301  0.73146  1.0000
  H   H869      1.0  0.12615  0.68187  0.60996  1.0000
  S   S227      1.0  0.12681  0.59499  0.77886  1.0000
  C   C552      1.0  0.07058  0.53675  0.62733  1.0000
  H   H870      1.0  0.00623  0.58588  0.76488  1.0000
  S   S228      1.0  0.48849  0.87203  0.75146  1.0000
  Fe  Fe113     1.0  0.41422  0.86279  0.77490  1.0000
  C   C553      1.0  0.13388  0.80440  0.60610  1.0000
  C   C554      1.0  0.12461  0.66545  0.61191  1.0000
  H   H871      1.0  0.13397  0.50202  0.68371  1.0000
  H   H872      1.0  0.27901  0.89720  0.61905  1.0000
  C   C555      1.0  0.15264  0.59732  0.69142  1.0000
  H   H873      1.0  0.14482  0.58575  0.70081  1.0000
  H   H874      1.0  0.02959  0.58701  0.72829  1.0000
  C   C556      1.0  0.10984  0.49022  0.65296  1.0000
  H   H875      1.0  0.08177  0.80186  0.61596  1.0000
  C   C557      1.0  0.29994  0.92795  0.60215  1.0000
  H   H876      1.0  0.16956  0.59098  0.68936  1.0000
  C   C558      1.0  0.15831  0.61621  0.71390  1.0000
  H   H877      1.0  0.30485  0.85360  0.62959  1.0000
  H   H878      1.0  0.46630  0.85415  0.72486  1.0000
  H   H879      1.0  0.35436  0.95550  0.73399  1.0000
  S   S229      1.0  0.28104  0.85864  0.60104  1.0000
  H   H880      1.0  0.14011  0.78809  0.61106  1.0000
  H   H881      1.0  0.11908  0.62663  0.68865  1.0000
  S   S230      1.0  0.42837  0.89054  0.76121  1.0000
  H   H882      1.0  0.40545  0.93085  0.74856  1.0000
  H   H883      1.0  0.14630  0.59812  0.67901  1.0000
  S   S231      1.0  0.12183  0.51302  0.64709  1.0000
  Fe  Fe114     1.0  0.45831  0.87284  0.76921  1.0000
  H   H884      1.0  0.15572  0.63141  0.71917  1.0000
  C   C559      1.0  0.01098  0.56450  0.67960  1.0000
  C   C560      1.0  0.39326  0.94246  0.74270  1.0000
  C   C561      1.0  0.05987  0.50419  0.62341  1.0000
  H   H885      1.0  0.38943  0.91797  0.70843  1.0000
  C   C562      1.0  0.13311  0.49063  0.71789  1.0000
  C   C563      1.0  0.14463  0.48767  0.68778  1.0000
  C   C564      1.0  0.37175  0.91594  0.74171  1.0000
  C   C565      1.0  0.36639  0.94912  0.72387  1.0000
  H   H886      1.0  0.39168  0.96685  0.59946  1.0000
  H   H887      1.0  0.02595  0.56584  0.75697  1.0000
  H   H888      1.0  0.99695  0.54434  0.74071  1.0000
  H   H889      1.0  0.00213  0.57741  0.68582  1.0000
  H   H890      1.0  0.42017  0.80994  0.77574  1.0000
  H   H891      1.0  0.99390  0.66206  0.60165  1.0000
  H   H892      1.0  0.13513  0.81464  0.61583  1.0000
  C   C566      1.0  0.12391  0.65515  0.59777  1.0000
  H   H893      1.0  0.04333  0.50936  0.62852  1.0000
  C   C567      1.0  0.47852  0.85525  0.64757  1.0000
  N   N53       1.0  0.11212  0.80603  0.60228  1.0000
  H   H894      1.0  0.12198  0.50502  0.71483  1.0000
  C   C568      1.0  0.09826  0.80109  0.61841  1.0000
  H   H895      1.0  0.02200  0.55095  0.73049  1.0000
  H   H896      1.0  0.99918  0.55976  0.71996  1.0000
  H   H897      1.0  0.11578  0.77470  0.59588  1.0000
  H   H898      1.0  0.48772  0.83006  0.70592  1.0000
  C   C569      1.0  0.48554  0.84220  0.69468  1.0000
  H   H899      1.0  0.09273  0.50328  0.59853  1.0000
  H   H900      1.0  0.27002  0.96000  0.59409  1.0000
  S   S232      1.0  0.41021  0.93577  0.78711  1.0000
  H   H901      1.0  0.15995  0.49259  0.68868  1.0000
  Fe  Fe115     1.0  0.42378  0.90152  0.78729  1.0000
  C   C570      1.0  0.26601  0.94894  0.60580  1.0000
  H   H902      1.0  0.24873  0.94931  0.60752  1.0000
  H   H903      1.0  0.14458  0.80910  0.59436  1.0000
  N   N54       1.0  0.27711  0.92761  0.60422  1.0000
  H   H904      1.0  0.46442  0.87631  0.67883  1.0000
  H   H905      1.0  0.48970  0.98242  0.64090  1.0000
  H   H906      1.0  0.04242  0.53875  0.60541  1.0000
  C   C571      1.0  0.05899  0.53297  0.60058  1.0000
  H   H907      1.0  0.10612  0.83920  0.60302  1.0000
  H   H908      1.0  0.30881  0.91203  0.60139  1.0000
  N   N55       1.0  0.48212  0.86346  0.69976  1.0000
  C   C572      1.0  0.10532  0.82748  0.59435  1.0000
  H   H909      1.0  0.40011  0.97962  0.78991  1.0000
  H   H910      1.0  0.19345  0.77718  0.59400  1.0000
  H   H911      1.0  0.47529  0.89517  0.68789  1.0000
  H   H912      1.0  0.08895  0.82934  0.59131  1.0000
  H   H913      1.0  0.49121  0.90256  0.62878  1.0000
  Fe  Fe116     1.0  0.41039  0.73566  0.88491  1.0000
  S   S233      1.0  0.42801  0.70864  0.87189  1.0000
  S   S234      1.0  0.39676  0.76740  0.87200  1.0000
  Fe  Fe117     1.0  0.40781  0.70977  0.92001  1.0000
  S   S235      1.0  0.42551  0.68076  0.91008  1.0000
  S   S236      1.0  0.39212  0.70785  0.94741  1.0000
  Fe  Fe118     1.0  0.44660  0.70235  0.89440  1.0000
  H   H914      1.0  0.48252  0.68843  0.95422  1.0000
  Fe  Fe119     1.0  0.40573  0.68859  0.88851  1.0000
  S   S237      1.0  0.39554  0.66218  0.87717  1.0000
  S   S238      1.0  0.43066  0.73094  0.90629  1.0000
  S   S239      1.0  0.38639  0.71618  0.89956  1.0000
  Fe  Fe120     1.0  0.43864  0.85753  0.80528  1.0000
  H   H915      1.0  0.28701  0.54458  0.85616  1.0000
  S   S240      1.0  0.44966  0.83564  0.82826  1.0000
  C   C573      1.0  0.39459  0.71243  0.98065  1.0000
  H   H916      1.0  0.48547  0.64396  0.88442  1.0000
  H   H917      1.0  0.42042  0.78604  0.82154  1.0000
  C   C574      1.0  0.26037  0.51601  0.86462  1.0000
  H   H918      1.0  0.40190  0.82701  0.80121  1.0000
  H   H919      1.0  0.10778  0.55877  0.86406  1.0000
  H   H920      1.0  0.29571  0.49881  0.83184  1.0000
  C   C575      1.0  0.42415  0.78933  0.80732  1.0000
  Fe  Fe121     1.0  0.14459  0.52824  0.81548  1.0000
  S   S241      1.0  0.13095  0.53121  0.84269  1.0000
  H   H921      1.0  0.11275  0.59547  0.86282  1.0000
  H   H922      1.0  0.38459  0.80740  0.85333  1.0000
  S   S242      1.0  0.11551  0.58035  0.82930  1.0000
  Fe  Fe122     1.0  0.14457  0.56122  0.83865  1.0000
  S   S243      1.0  0.15663  0.56793  0.86251  1.0000
  Fe  Fe123     1.0  0.10300  0.54995  0.83165  1.0000
  S   S244      1.0  0.07075  0.54475  0.84504  1.0000
  C   C576      1.0  0.47121  0.63757  0.89125  1.0000
  C   C577      1.0  0.07332  0.58623  0.86984  1.0000
  Fe  Fe124     1.0  0.30589  0.58279  0.90279  1.0000
  S   S245      1.0  0.27059  0.58732  0.90825  1.0000
  S   S246      1.0  0.32023  0.61043  0.90883  1.0000
  Fe  Fe125     1.0  0.30619  0.53628  0.89839  1.0000
  S   S247      1.0  0.27144  0.53785  0.90416  1.0000
  S   S248      1.0  0.32733  0.50645  0.89257  1.0000
  Fe  Fe126     1.0  0.27073  0.56831  0.88679  1.0000
  S   S249      1.0  0.25248  0.57581  0.86374  1.0000
  Fe  Fe127     1.0  0.27473  0.55660  0.92512  1.0000
  S   S250      1.0  0.25712  0.55238  0.95203  1.0000
  S   S251      1.0  0.30580  0.56598  0.87987  1.0000
  S   S252      1.0  0.30972  0.55263  0.92063  1.0000
  C   C578      1.0  0.26936  0.55733  0.96920  1.0000
  H   H923      1.0  0.46269  0.72878  0.98381  1.0000
  N   N56       1.0  0.40492  0.79429  0.79883  1.0000
  C   C579      1.0  0.28957  0.56270  0.96625  1.0000
  S   S253      1.0  0.48116  0.69028  0.88925  1.0000
  H   H924      1.0  0.29827  0.56287  0.95360  1.0000
  C   C580      1.0  0.08148  0.57960  0.89911  1.0000
  C   C581      1.0  0.44814  0.98354  0.80017  1.0000
  H   H925      1.0  0.47377  0.60345  0.87534  1.0000
  H   H926      1.0  0.42763  0.62362  0.87976  1.0000
  H   H927      1.0  0.36788  0.75025  0.95380  1.0000
  C   C582      1.0  0.18360  0.56889  0.86272  1.0000
  C   C583      1.0  0.19146  0.56721  0.87855  1.0000
  C   C584      1.0  0.21264  0.56880  0.87913  1.0000
  C   C585      1.0  0.22600  0.57260  0.86383  1.0000
  C   C586      1.0  0.21815  0.57417  0.84801  1.0000
  C   C587      1.0  0.19713  0.57209  0.84744  1.0000
  H   H928      1.0  0.18111  0.56479  0.89044  1.0000
  H   H929      1.0  0.21847  0.56762  0.89139  1.0000
  H   H930      1.0  0.22828  0.57733  0.83611  1.0000
  H   H931      1.0  0.19124  0.57360  0.83517  1.0000
  C   C588      1.0  0.04952  0.55355  0.83307  1.0000
  C   C589      1.0  0.02972  0.54789  0.83955  1.0000
  C   C590      1.0  0.01254  0.55478  0.83027  1.0000
  C   C591      1.0  0.01499  0.56776  0.81462  1.0000
  C   C592      1.0  0.03480  0.57342  0.80817  1.0000
  C   C593      1.0  0.05206  0.56614  0.81725  1.0000
  H   H932      1.0  0.02760  0.53823  0.85182  1.0000
  H   H933      1.0  0.45335  0.67367  0.98543  1.0000
  H   H934      1.0  0.06725  0.57064  0.81213  1.0000
  N   N57       1.0  0.45746  0.63405  0.87900  1.0000
  C   C594      1.0  0.45304  0.69074  0.98145  1.0000
  C   C595      1.0  0.45124  0.65396  0.86836  1.0000
  H   H935      1.0  0.02166  0.51160  0.82502  1.0000
  H   H936      1.0  0.46643  0.72400  0.96170  1.0000
  H   H937      1.0  0.48840  0.84210  0.83949  1.0000
  H   H938      1.0  0.27185  0.48906  0.84146  1.0000
  S   S254      1.0  0.11540  0.54392  0.80473  1.0000
  C   C596      1.0  0.37466  0.64779  0.88621  1.0000
  C   C597      1.0  0.36203  0.65207  0.90152  1.0000
  C   C598      1.0  0.34557  0.64040  0.90819  1.0000
  C   C599      1.0  0.34151  0.62426  0.89973  1.0000
  C   C600      1.0  0.35425  0.61985  0.88448  1.0000
  C   C601      1.0  0.37070  0.63158  0.87778  1.0000
  H   H939      1.0  0.36485  0.66445  0.90818  1.0000
  H   H940      1.0  0.33586  0.64398  0.91998  1.0000
  H   H941      1.0  0.35132  0.60755  0.87779  1.0000
  H   H942      1.0  0.38029  0.62815  0.86590  1.0000
  C   C602      1.0  0.40171  0.71845  0.96333  1.0000
  C   C603      1.0  0.41554  0.73323  0.95911  1.0000
  H   H943      1.0  0.42128  0.73786  0.94581  1.0000
  H   H944      1.0  0.09396  0.57483  0.90768  1.0000
  H   H945      1.0  0.48998  0.66824  0.97106  1.0000
  H   H946      1.0  0.42951  0.63739  0.89719  1.0000
  H   H947      1.0  0.47308  0.95775  0.80258  1.0000
  C   C604      1.0  0.26529  0.53132  0.83492  1.0000
  C   C605      1.0  0.41186  0.78612  0.85997  1.0000
  C   C606      1.0  0.43375  0.78295  0.85822  1.0000
  C   C607      1.0  0.44512  0.79829  0.84854  1.0000
  C   C608      1.0  0.43478  0.81674  0.84027  1.0000
  C   C609      1.0  0.41290  0.81989  0.84201  1.0000
  C   C610      1.0  0.40152  0.80470  0.85189  1.0000
  H   H948      1.0  0.44192  0.76877  0.86443  1.0000
  H   H949      1.0  0.46204  0.79577  0.84740  1.0000
  H   H950      1.0  0.40475  0.83422  0.83601  1.0000
  N   N58       1.0  0.36581  0.76983  0.92960  1.0000
  C   C611      1.0  0.35826  0.79172  0.92320  1.0000
  C   C612      1.0  0.36256  0.76674  0.94865  1.0000
  C   C613      1.0  0.38833  0.76504  0.92350  1.0000
  C   C614      1.0  0.35422  0.75570  0.92298  1.0000
  H   H951      1.0  0.36067  0.79444  0.90884  1.0000
  H   H952      1.0  0.36678  0.80275  0.92792  1.0000
  H   H953      1.0  0.34127  0.79592  0.92747  1.0000
  S   S255      1.0  0.16069  0.55664  0.81198  1.0000
  H   H954      1.0  0.37152  0.77674  0.95414  1.0000
  H   H955      1.0  0.34575  0.77043  0.95376  1.0000
  H   H956      1.0  0.39427  0.74850  0.92776  1.0000
  H   H957      1.0  0.39777  0.77496  0.92856  1.0000
  H   H958      1.0  0.39146  0.76750  0.90918  1.0000
  H   H959      1.0  0.35938  0.73905  0.92783  1.0000
  H   H960      1.0  0.35682  0.75721  0.90863  1.0000
  H   H961      1.0  0.25879  0.54717  0.83841  1.0000
  H   H962      1.0  0.03917  0.52186  0.80731  1.0000
  H   H963      1.0  0.02311  0.50300  0.80438  1.0000
  H   H964      1.0  0.25349  0.65046  0.95988  1.0000
  H   H965      1.0  0.47680  0.87805  0.82665  1.0000
  N   N59       1.0  0.27467  0.62556  0.94919  1.0000
  C   C615      1.0  0.27324  0.63517  0.93121  1.0000
  C   C616      1.0  0.29617  0.61481  0.95067  1.0000
  C   C617      1.0  0.25973  0.61029  0.95412  1.0000
  C   C618      1.0  0.26957  0.64195  0.96076  1.0000
  H   H966      1.0  0.27719  0.62322  0.92218  1.0000
  H   H967      1.0  0.28450  0.64658  0.92695  1.0000
  H   H968      1.0  0.25723  0.64331  0.92950  1.0000
  H   H969      1.0  0.29827  0.60876  0.96427  1.0000
  H   H970      1.0  0.29995  0.60130  0.94312  1.0000
  H   H971      1.0  0.30807  0.62537  0.94564  1.0000
  H   H972      1.0  0.26044  0.60268  0.96761  1.0000
  H   H973      1.0  0.26321  0.59760  0.94571  1.0000
  H   H974      1.0  0.24333  0.61771  0.95308  1.0000
  H   H975      1.0  0.27033  0.63512  0.97445  1.0000
  C   C619      1.0  0.45718  0.96261  0.79969  1.0000
  H   H976      1.0  0.28072  0.65358  0.95750  1.0000
  C   C620      1.0  0.42515  0.95390  0.79211  1.0000
  H   H977      1.0  0.07943  0.58652  0.85593  1.0000
  N   N60       1.0  0.27574  0.51838  0.84900  1.0000
  H   H978      1.0  0.38771  0.77458  0.81807  1.0000
  H   H979      1.0  0.46311  0.64917  0.89989  1.0000
  H   H980      1.0  0.07332  0.59526  0.90190  1.0000
  C   C621      1.0  0.43854  0.62609  0.88863  1.0000
  H   H981      1.0  0.06169  0.57504  0.87254  1.0000
  H   H982      1.0  0.09827  0.61103  0.87868  1.0000
  H   H983      1.0  0.25202  0.52424  0.83198  1.0000
  H   H984      1.0  0.05217  0.50240  0.84148  1.0000
  C   C622      1.0  0.10564  0.59492  0.87652  1.0000
  H   H985      1.0  0.44251  0.61104  0.89680  1.0000
  H   H986      1.0  0.43353  0.80252  0.80468  1.0000
  S   S256      1.0  0.15929  0.49776  0.80666  1.0000
  H   H987      1.0  0.48862  0.72478  0.97247  1.0000
  H   H988      1.0  0.06995  0.56837  0.90272  1.0000
  H   H989      1.0  0.07000  0.51070  0.82323  1.0000
  C   C623      1.0  0.42188  0.74218  0.97222  1.0000
  H   H990      1.0  0.27638  0.53344  0.82290  1.0000
  H   H991      1.0  0.31399  0.57288  0.97708  1.0000
  H   H992      1.0  0.30075  0.51970  0.86358  1.0000
  Fe  Fe128     1.0  0.13031  0.57280  0.80306  1.0000
  C   C624      1.0  0.29845  0.56844  0.97962  1.0000
  H   H993      1.0  0.44241  0.66565  0.87651  1.0000
  H   H994      1.0  0.24708  0.50849  0.86232  1.0000
  N   N61       1.0  0.47411  0.69694  0.97982  1.0000
  C   C625      1.0  0.29291  0.52864  0.85265  1.0000
  H   H995      1.0  0.44612  0.69480  0.96914  1.0000
  H   H996      1.0  0.99729  0.55051  0.83542  1.0000
  C   C626      1.0  0.46882  0.61869  0.86774  1.0000
  H   H997      1.0  0.38723  0.81209  0.81829  1.0000
  H   H998      1.0  0.33709  0.75903  0.92705  1.0000
  H   H999      1.0  0.25363  0.53142  0.86893  1.0000
  C   C627      1.0  0.39258  0.81379  0.80422  1.0000
  H   H1000     1.0  0.11418  0.55362  0.88552  1.0000
  H   H1001     1.0  0.09000  0.54709  0.88054  1.0000
  C   C628      1.0  0.10099  0.55888  0.87772  1.0000
  C   C629      1.0  0.06199  0.49728  0.82970  1.0000
  C   C630      1.0  0.44579  0.94787  0.79561  1.0000
  H   H1002     1.0  0.43241  0.75377  0.96896  1.0000
  S   S257      1.0  0.45492  0.88541  0.79450  1.0000
  H   H1003     1.0  0.47652  0.71192  0.91965  1.0000
  H   H1004     1.0  0.11890  0.59039  0.88435  1.0000
  S   S258      1.0  0.40689  0.87481  0.80058  1.0000
  N   N62       1.0  0.09034  0.57994  0.88080  1.0000
  H   H1005     1.0  0.38380  0.70108  0.98400  1.0000
  H   H1006     1.0  0.06485  0.60205  0.87176  1.0000
  H   H1007     1.0  0.03680  0.58356  0.79613  1.0000
  H   H1008     1.0  0.07083  0.49806  0.79559  1.0000
  H   H1009     1.0  0.26768  0.50637  0.87551  1.0000
  H   H1010     1.0  0.43436  0.77530  0.80290  1.0000
  H   H1011     1.0  0.37844  0.81852  0.79746  1.0000
  H   H1012     1.0  0.30510  0.53026  0.84132  1.0000
  H   H1013     1.0  0.24267  0.55298  0.98826  1.0000
  H   H1014     1.0  0.45295  0.93182  0.79534  1.0000
  H   H1015     1.0  0.44080  0.65205  0.85894  1.0000
  H   H1016     1.0  0.46507  0.66081  0.86118  1.0000
  C   C631      1.0  0.25833  0.55712  0.98586  1.0000
  C   C632      1.0  0.41613  0.97488  0.79245  1.0000
  H   H1017     1.0  0.40106  0.76206  0.79999  1.0000
  C   C633      1.0  0.47294  0.71961  0.97418  1.0000
  H   H1018     1.0  0.48864  0.84952  0.80804  1.0000
  H   H1019     1.0  0.45882  0.61577  0.85834  1.0000
  C   C634      1.0  0.28439  0.49759  0.84380  1.0000
  C   C635      1.0  0.03262  0.50745  0.81347  1.0000
  C   C636      1.0  0.39226  0.77704  0.80385  1.0000
  C   C637      1.0  0.41517  0.73571  0.98958  1.0000
  S   S259      1.0  0.99357  0.57783  0.80314  1.0000
  H   H1020     1.0  0.47635  0.62292  0.89950  1.0000
  N   N63       1.0  0.04936  0.49036  0.81815  1.0000
  C   C638      1.0  0.48838  0.68539  0.96701  1.0000
  H   H1021     1.0  0.48313  0.62431  0.86025  1.0000
  H   H1022     1.0  0.37758  0.78033  0.79771  1.0000
  H   H1023     1.0  0.13438  0.48729  0.83892  1.0000
  H   H1024     1.0  0.29294  0.48770  0.85391  1.0000
  H   H1025     1.0  0.28865  0.48689  0.89889  1.0000
  C   C639      1.0  0.56366  0.99767  0.12685  1.0000
  Fe  Fe129     1.0  0.63443  0.20880  0.05315  1.0000
  S   S260      1.0  0.61171  0.23787  0.05652  1.0000
  S   S261      1.0  0.64963  0.20439  0.02620  1.0000
  Fe  Fe130     1.0  0.63439  0.19599  0.09181  1.0000
  S   S262      1.0  0.61257  0.22513  0.09778  1.0000
  S   S263      1.0  0.64517  0.17313  0.11450  1.0000
  Fe  Fe131     1.0  0.59462  0.21789  0.07771  1.0000
  S   S264      1.0  0.56047  0.21352  0.08514  1.0000
  Fe  Fe132     1.0  0.63203  0.24241  0.07601  1.0000
  S   S265      1.0  0.64025  0.27555  0.07384  1.0000
  S   S266      1.0  0.61577  0.18812  0.07263  1.0000
  S   S267      1.0  0.65539  0.21395  0.07180  1.0000
  Fe  Fe133     1.0  0.61237  0.06833  0.16527  1.0000
  C   C640      1.0  0.59222  0.99905  0.14267  1.0000
  S   S268      1.0  0.61204  0.08535  0.13804  1.0000
  C   C641      1.0  0.94521  0.38124  0.09512  1.0000
  S   S269      1.0  0.96215  0.40280  0.13001  1.0000
  H   H1026     1.0  0.74883  0.38038  0.00402  1.0000
  N   N64       1.0  0.52585  0.21111  0.00020  1.0000
  C   C642      1.0  0.76106  0.30070  0.10368  1.0000
  S   S270      1.0  0.59233  0.04259  0.17240  1.0000
  S   S271      1.0  0.63935  0.04853  0.17711  1.0000
  H   H1027     1.0  0.85695  0.47571  0.11958  1.0000
  Fe  Fe134     1.0  0.74661  0.38356  0.06312  1.0000
  S   S272      1.0  0.78142  0.37857  0.05653  1.0000
  S   S273      1.0  0.72960  0.41561  0.06839  1.0000
  Fe  Fe135     1.0  0.74310  0.33661  0.06407  1.0000
  S   S274      1.0  0.77809  0.32916  0.05721  1.0000
  S   S275      1.0  0.72949  0.30577  0.07040  1.0000
  Fe  Fe136     1.0  0.78092  0.35038  0.07634  1.0000
  S   S276      1.0  0.79796  0.34166  0.09998  1.0000
  Fe  Fe137     1.0  0.77496  0.35802  0.03809  1.0000
  S   S277      1.0  0.79178  0.36267  0.01109  1.0000
  S   S278      1.0  0.74625  0.35650  0.08420  1.0000
  S   S279      1.0  0.73992  0.36442  0.04348  1.0000
  H   H1028     1.0  0.67451  0.23844  0.00555  1.0000
  Fe  Fe138     1.0  0.93035  0.39307  0.14033  1.0000
  S   S280      1.0  0.91208  0.40014  0.16552  1.0000
  Fe  Fe139     1.0  0.89529  0.37270  0.13039  1.0000
  S   S281      1.0  0.87435  0.37715  0.15523  1.0000
  S   S282      1.0  0.88870  0.36134  0.10629  1.0000
  Fe  Fe140     1.0  0.88418  0.40902  0.15112  1.0000
  S   S283      1.0  0.86244  0.43899  0.15313  1.0000
  Fe  Fe141     1.0  0.90398  0.36777  0.16770  1.0000
  S   S284      1.0  0.90311  0.40535  0.12563  1.0000
  S   S285      1.0  0.92410  0.36002  0.14324  1.0000
  H   H1029     1.0  0.76155  0.31274  0.09226  1.0000
  S   S286      1.0  0.50930  0.04981  0.14040  1.0000
  H   H1030     1.0  0.77289  0.28482  0.07368  1.0000
  C   C643      1.0  0.87426  0.45261  0.16551  1.0000
  H   H1031     1.0  0.58264  0.19731  0.00812  1.0000
  H   H1032     1.0  0.56578  0.17260  0.10168  1.0000
  C   C644      1.0  0.97023  0.36079  0.07642  1.0000
  H   H1033     1.0  0.96934  0.37088  0.15925  1.0000
  C   C645      1.0  0.77512  0.26627  0.11590  1.0000
  C   C646      1.0  0.74330  0.43704  0.06799  1.0000
  C   C647      1.0  0.76457  0.43601  0.06170  1.0000
  C   C648      1.0  0.77565  0.45222  0.06330  1.0000
  C   C649      1.0  0.76547  0.47002  0.07063  1.0000
  H   H1034     1.0  0.55630  0.03898  0.12824  1.0000
  C   C650      1.0  0.73294  0.45512  0.07488  1.0000
  H   H1035     1.0  0.77261  0.42260  0.05582  1.0000
  H   H1036     1.0  0.79227  0.45088  0.05894  1.0000
  H   H1037     1.0  0.58302  0.03195  0.11906  1.0000
  H   H1038     1.0  0.71643  0.45618  0.07964  1.0000
  C   C651      1.0  0.82275  0.34854  0.10132  1.0000
  C   C652      1.0  0.83655  0.35381  0.08662  1.0000
  C   C653      1.0  0.85665  0.35794  0.08829  1.0000
  C   C654      1.0  0.86288  0.35742  0.10463  1.0000
  C   C655      1.0  0.84875  0.35290  0.11930  1.0000
  C   C656      1.0  0.82890  0.34819  0.11764  1.0000
  H   H1039     1.0  0.83201  0.35408  0.07398  1.0000
  H   H1040     1.0  0.86749  0.36138  0.07687  1.0000
  H   H1041     1.0  0.85342  0.35227  0.13195  1.0000
  H   H1042     1.0  0.81836  0.34406  0.12909  1.0000
  C   C657      1.0  0.57200  0.03100  0.13121  1.0000
  H   H1043     1.0  0.76518  0.33043  0.01303  1.0000
  H   H1044     1.0  0.78313  0.25909  0.08281  1.0000
  H   H1045     1.0  0.80168  0.29486  0.10806  1.0000
  C   C658      1.0  0.78528  0.34916  0.99542  1.0000
  C   C659      1.0  0.51779  0.05565  0.15892  1.0000
  C   C660      1.0  0.53578  0.06522  0.15728  1.0000
  C   C661      1.0  0.54405  0.06798  0.17199  1.0000
  H   H1046     1.0  0.59349  0.14681  0.13867  1.0000
  H   H1047     1.0  0.77838  0.27244  0.12747  1.0000
  H   H1048     1.0  0.54352  0.07028  0.14467  1.0000
  H   H1049     1.0  0.79924  0.30010  0.08561  1.0000
  C   C662      1.0  0.66515  0.28368  0.07315  1.0000
  C   C663      1.0  0.66701  0.30506  0.06918  1.0000
  C   C664      1.0  0.68654  0.31218  0.06813  1.0000
  C   C665      1.0  0.70444  0.29795  0.07115  1.0000
  C   C666      1.0  0.70258  0.27658  0.07509  1.0000
  C   C667      1.0  0.68309  0.26947  0.07610  1.0000
  H   H1050     1.0  0.65324  0.31621  0.06693  1.0000
  H   H1051     1.0  0.68767  0.32867  0.06515  1.0000
  H   H1052     1.0  0.71628  0.26541  0.07749  1.0000
  H   H1053     1.0  0.68191  0.25301  0.07935  1.0000
  C   C668      1.0  0.63686  0.14823  0.12057  1.0000
  C   C669      1.0  0.63879  0.13793  0.13727  1.0000
  C   C670      1.0  0.63146  0.11858  0.14277  1.0000
  C   C671      1.0  0.62230  0.10923  0.13153  1.0000
  C   C672      1.0  0.62068  0.11937  0.11474  1.0000
  C   C673      1.0  0.62790  0.13876  0.10929  1.0000
  H   H1054     1.0  0.64583  0.14504  0.14607  1.0000
  H   H1055     1.0  0.63291  0.11091  0.15571  1.0000
  H   H1056     1.0  0.61384  0.11216  0.10589  1.0000
  H   H1057     1.0  0.62666  0.14631  0.09631  1.0000
  C   C674      1.0  0.50464  0.24317  0.05664  1.0000
  C   C675      1.0  0.52365  0.25136  0.05248  1.0000
  C   C676      1.0  0.54126  0.24202  0.06063  1.0000
  C   C677      1.0  0.53974  0.22471  0.07321  1.0000
  C   C678      1.0  0.52080  0.21644  0.07716  1.0000
  C   C679      1.0  0.51699  0.09461  0.10189  1.0000
  H   H1058     1.0  0.52471  0.26507  0.04310  1.0000
  H   H1059     1.0  0.55577  0.24857  0.05760  1.0000
  H   H1060     1.0  0.51949  0.20312  0.08691  1.0000
  H   H1061     1.0  0.55526  0.99251  0.16120  1.0000
  H   H1062     1.0  0.56692  0.14255  0.14521  1.0000
  H   H1063     1.0  0.54039  0.01614  0.15275  1.0000
  H   H1064     1.0  0.54771  0.00483  0.12387  1.0000
  H   H1065     1.0  0.57430  0.99764  0.11449  1.0000
  C   C680      1.0  0.67817  0.28173  0.02350  1.0000
  N   N65       1.0  0.95839  0.36081  0.09384  1.0000
  C   C681      1.0  0.77149  0.33435  0.99973  1.0000
  H   H1066     1.0  0.67192  0.28788  0.03594  1.0000
  C   C682      1.0  0.64812  0.26403  0.02498  1.0000
  H   H1067     1.0  0.95474  0.39430  0.09273  1.0000
  H   H1068     1.0  0.76417  0.30804  0.11470  1.0000
  C   C683      1.0  0.88074  0.47177  0.15849  1.0000
  C   C684      1.0  0.74395  0.47162  0.07613  1.0000
  H   H1069     1.0  0.96475  0.35713  0.12013  1.0000
  C   C685      1.0  0.50340  0.22547  0.06879  1.0000
  C   C686      1.0  0.51599  0.05228  0.19006  1.0000
  H   H1070     1.0  0.74475  0.29689  0.10628  1.0000
  H   H1071     1.0  0.64168  0.27546  0.01457  1.0000
  H   H1072     1.0  0.64125  0.26965  0.03751  1.0000
  H   H1073     1.0  0.67271  0.29366  0.01298  1.0000
  C   C687      1.0  0.63243  0.20445  0.01107  1.0000
  H   H1074     1.0  0.67412  0.26485  0.99526  1.0000
  H   H1075     1.0  0.78656  0.25197  0.11401  1.0000
  C   C688      1.0  0.59849  0.20038  0.00399  1.0000
  H   H1076     1.0  0.58702  0.19340  0.13605  1.0000
  C   C689      1.0  0.53461  0.06083  0.18837  1.0000
  N   N66       1.0  0.57111  0.00913  0.13897  1.0000
  H   H1077     1.0  0.75581  0.26906  0.08757  1.0000
  H   H1078     1.0  0.49828  0.20147  0.01565  1.0000
  C   C690      1.0  0.97317  0.35717  0.10682  1.0000
  H   H1079     1.0  0.67197  0.25090  0.04982  1.0000
  H   H1080     1.0  0.87403  0.42857  0.18726  1.0000
  H   H1081     1.0  0.69629  0.24457  0.03651  1.0000
  H   H1082     1.0  0.73595  0.48517  0.08195  1.0000
  N   N67       1.0  0.67124  0.26144  0.02293  1.0000
  H   H1083     1.0  0.93559  0.34382  0.10999  1.0000
  C   C691      1.0  0.77195  0.27330  0.08553  1.0000
  H   H1084     1.0  0.69705  0.25142  0.00435  1.0000
  H   H1085     1.0  0.49361  0.04246  0.17669  1.0000
  H   H1086     1.0  0.95948  0.36362  0.06636  1.0000
  H   H1087     1.0  0.58421  0.99206  0.18930  1.0000
  N   N68       1.0  0.77649  0.28206  0.10054  1.0000
  H   H1088     1.0  0.73836  0.40675  0.00723  1.0000
  C   C692      1.0  0.61165  0.20121  0.01633  1.0000
  H   H1089     1.0  0.83516  0.46297  0.12955  1.0000
  H   H1090     1.0  0.79880  0.48003  0.12615  1.0000
  H   H1091     1.0  0.98033  0.34557  0.07499  1.0000
  C   C693      1.0  0.50756  0.04974  0.17531  1.0000
  H   H1092     1.0  0.95990  0.43328  0.18166  1.0000
  H   H1093     1.0  0.54536  0.18665  0.01404  1.0000
  S   S287      1.0  0.62968  0.98984  0.18551  1.0000
  H   H1094     1.0  0.93332  0.34663  0.08760  1.0000
  C   C694      1.0  0.67963  0.25374  0.00626  1.0000
  H   H1095     1.0  0.93337  0.38437  0.08592  1.0000
  H   H1096     1.0  0.56141  0.01727  0.16464  1.0000
  H   H1097     1.0  0.58665  0.15319  0.10802  1.0000
  H   H1098     1.0  0.52227  0.08146  0.11165  1.0000
  C   C695      1.0  0.63980  0.20746  0.99346  1.0000
  H   H1099     1.0  0.53143  0.24291  0.99849  1.0000
  H   H1100     1.0  0.60383  0.99961  0.13086  1.0000
  H   H1101     1.0  0.67491  0.23042  0.03657  1.0000
  C   C696      1.0  0.87915  0.44334  0.18178  1.0000
  H   H1102     1.0  0.55796  0.07541  0.17065  1.0000
  H   H1103     1.0  0.57739  0.04018  0.14005  1.0000
  C   C697      1.0  0.94489  0.34416  0.09701  1.0000
  H   H1104     1.0  0.58047  0.19935  0.11449  1.0000
  H   H1105     1.0  0.52449  0.10821  0.10346  1.0000
  C   C698      1.0  0.89088  0.45305  0.19088  1.0000
  N   N69       1.0  0.57080  0.17090  0.12813  1.0000
  H   H1106     1.0  0.57754  0.16171  0.15421  1.0000
  C   C699      1.0  0.54954  0.18156  0.13331  1.0000
  C   C700      1.0  0.57077  0.16094  0.11253  1.0000
  H   H1107     1.0  0.80989  0.27442  0.09453  1.0000
  C   C701      1.0  0.57738  0.15481  0.14220  1.0000
  H   H1108     1.0  0.94931  0.41418  0.17288  1.0000
  H   H1109     1.0  0.54910  0.18954  0.14488  1.0000
  H   H1110     1.0  0.54422  0.19371  0.12280  1.0000
  H   H1111     1.0  0.53797  0.17037  0.13636  1.0000
  C   C702      1.0  0.67899  0.24618  0.03706  1.0000
  H   H1112     1.0  0.64236  0.24899  0.02465  1.0000
  H   H1113     1.0  0.56009  0.14890  0.11494  1.0000
  H   H1114     1.0  0.60145  0.17924  0.11936  1.0000
  H   H1115     1.0  0.49389  0.13153  0.09237  1.0000
  C   C703      1.0  0.89298  0.48117  0.16739  1.0000
  Fe  Fe142     1.0  0.61793  0.02432  0.18644  1.0000
  N   N70       1.0  0.78147  0.40705  0.10948  1.0000
  C   C704      1.0  0.80115  0.40789  0.11634  1.0000
  C   C705      1.0  0.78636  0.40170  0.09173  1.0000
  C   C706      1.0  0.76812  0.42759  0.10940  1.0000
  C   C707      1.0  0.77020  0.39092  0.12031  1.0000
  H   H1116     1.0  0.79812  0.41171  0.12980  1.0000
  H   H1117     1.0  0.81003  0.41988  0.10839  1.0000
  H   H1118     1.0  0.81162  0.39264  0.11634  1.0000
  H   H1119     1.0  0.77179  0.40075  0.08631  1.0000
  H   H1120     1.0  0.79476  0.41352  0.08308  1.0000
  H   H1121     1.0  0.79646  0.38636  0.09118  1.0000
  H   H1122     1.0  0.76393  0.43220  0.12258  1.0000
  H   H1123     1.0  0.75323  0.42742  0.10411  1.0000
  H   H1124     1.0  0.77607  0.44011  0.10120  1.0000
  H   H1125     1.0  0.75548  0.38962  0.11522  1.0000
  H   H1126     1.0  0.76598  0.39449  0.13380  1.0000
  H   H1127     1.0  0.77991  0.37524  0.12065  1.0000
  H   H1128     1.0  0.75921  0.26148  0.11883  1.0000
  H   H1129     1.0  0.60591  0.19882  0.02991  1.0000
  H   H1130     1.0  0.97596  0.40910  0.17715  1.0000
  H   H1131     1.0  0.93651  0.38177  0.10820  1.0000
  H   H1132     1.0  0.59812  0.00683  0.15222  1.0000
  C   C708      1.0  0.79778  0.28803  0.09705  1.0000
  H   H1133     1.0  0.69555  0.28034  0.02223  1.0000
  C   C709      1.0  0.58554  0.18639  0.12439  1.0000
  H   H1134     1.0  0.98868  0.46028  0.15334  1.0000
  H   H1135     1.0  0.52311  0.08988  0.08894  1.0000
  H   H1136     1.0  0.51587  0.21058  0.02744  1.0000
  H   H1137     1.0  0.49273  0.11331  0.07768  1.0000
  H   H1138     1.0  0.98054  0.37321  0.07365  1.0000
  H   H1139     1.0  0.95421  0.32846  0.09617  1.0000
  H   H1140     1.0  0.98351  0.34196  0.10624  1.0000
  C   C710      1.0  0.98378  0.37716  0.15454  1.0000
  H   H1141     1.0  0.49300  0.11953  0.12358  1.0000
  S   S288      1.0  0.59979  0.08409  0.18877  1.0000
  H   H1142     1.0  0.54763  0.22442  0.01175  1.0000
  C   C711      1.0  0.50923  0.21307  0.01500  1.0000
  H   H1143     1.0  0.52776  0.17775  0.00215  1.0000
  H   H1144     1.0  0.84220  0.46467  0.10663  1.0000
  C   C712      1.0  0.84088  0.47331  0.11793  1.0000
  H   H1145     1.0  0.49971  0.22883  0.01407  1.0000
  C   C713      1.0  0.53793  0.18993  0.00197  1.0000
  H   H1146     1.0  0.80553  0.48074  0.10320  1.0000
  C   C714      1.0  0.89840  0.47158  0.18343  1.0000
  H   H1147     1.0  0.72114  0.38854  0.00530  1.0000
  H   H1148     1.0  0.87721  0.47884  0.14583  1.0000
  C   C715      1.0  0.73663  0.39360  0.00033  1.0000
  C   C716      1.0  0.55645  0.00874  0.15511  1.0000
  C   C717      1.0  0.54001  0.22675  0.99977  1.0000
  N   N71       1.0  0.49392  0.09963  0.10402  1.0000
  C   C718      1.0  0.98446  0.39279  0.14045  1.0000
  H   H1149     1.0  0.98330  0.36972  0.10500  1.0000
  C   C719      1.0  0.95994  0.41618  0.18210  1.0000
  H   H1150     1.0  0.55072  0.18802  0.99104  1.0000
  H   H1151     1.0  0.69605  0.10055  0.30916  1.0000
  H   H1152     1.0  0.64940  0.13386  0.32846  1.0000
  S   S289      1.0  0.74887  0.06358  0.37590  1.0000
  H   H1153     1.0  0.50855  0.04685  0.20270  1.0000
  Fe  Fe143     1.0  0.63384  0.05840  0.31185  1.0000
  S   S290      1.0  0.61567  0.05609  0.33833  1.0000
  S   S291      1.0  0.63455  0.08827  0.29397  1.0000
  Fe  Fe144     1.0  0.65353  0.01341  0.31603  1.0000
  S   S292      1.0  0.63709  0.00702  0.34272  1.0000
  C   C720      1.0  0.93222  0.41692  0.20596  1.0000
  Fe  Fe145     1.0  0.60881  0.02579  0.33175  1.0000
  S   S293      1.0  0.57816  0.01247  0.33678  1.0000
  Fe  Fe146     1.0  0.64568  0.03779  0.34674  1.0000
  S   S294      1.0  0.65791  0.04248  0.37124  1.0000
  S   S295      1.0  0.62493  0.02958  0.30459  1.0000
  S   S296      1.0  0.66419  0.04265  0.32071  1.0000
  S   S297      1.0  0.64804  0.07320  0.21567  1.0000
  Fe  Fe147     1.0  0.92221  0.38770  0.31653  1.0000
  S   S298      1.0  0.94016  0.39078  0.29021  1.0000
  S   S299      1.0  0.92194  0.41353  0.33270  1.0000
  Fe  Fe148     1.0  0.91274  0.34388  0.31376  1.0000
  S   S300      1.0  0.93038  0.34393  0.28700  1.0000
  S   S301      1.0  0.89646  0.31528  0.32362  1.0000
  Fe  Fe149     1.0  0.95427  0.35780  0.29756  1.0000
  H   H1154     1.0  0.65975  0.07747  0.34484  1.0000
  Fe  Fe150     1.0  0.91457  0.37686  0.28213  1.0000
  S   S302      1.0  0.90031  0.39213  0.25824  1.0000
  S   S303      1.0  0.93803  0.35526  0.32468  1.0000
  S   S304      1.0  0.89509  0.37627  0.30809  1.0000
  H   H1155     1.0  0.96350  0.40167  0.22474  1.0000
  H   H1156     1.0  0.49208  0.05076  0.27628  1.0000
  C   C721      1.0  0.96820  0.40883  0.21133  1.0000
  N   N72       1.0  0.51769  0.05775  0.25697  1.0000
  H   H1157     1.0  0.96133  0.42228  0.30451  1.0000
  C   C722      1.0  0.90160  0.29890  0.34295  1.0000
  C   C723      1.0  0.89454  0.27930  0.34646  1.0000
  C   C724      1.0  0.89786  0.26616  0.36191  1.0000
  C   C725      1.0  0.90800  0.27268  0.37413  1.0000
  C   C726      1.0  0.91499  0.29230  0.37064  1.0000
  C   C727      1.0  0.91199  0.30527  0.35508  1.0000
  H   H1158     1.0  0.88646  0.27423  0.33719  1.0000
  H   H1159     1.0  0.89234  0.25113  0.36446  1.0000
  H   H1160     1.0  0.97688  0.46531  0.29069  1.0000
  H   H1161     1.0  0.91743  0.32032  0.35260  1.0000
  C   C728      1.0  0.90268  0.37878  0.24017  1.0000
  C   C729      1.0  0.89269  0.38841  0.22596  1.0000
  C   C730      1.0  0.89467  0.37847  0.21114  1.0000
  C   C731      1.0  0.90630  0.35862  0.21060  1.0000
  C   C732      1.0  0.91605  0.34882  0.22492  1.0000
  C   C733      1.0  0.91449  0.35902  0.23960  1.0000
  H   H1162     1.0  0.88349  0.40370  0.22635  1.0000
  C   C734      1.0  0.53755  0.06636  0.25569  1.0000
  H   H1163     1.0  0.92520  0.33353  0.22447  1.0000
  H   H1164     1.0  0.92257  0.35169  0.25036  1.0000
  C   C735      1.0  0.97838  0.43458  0.32921  1.0000
  N   N73       1.0  0.95320  0.40648  0.19972  1.0000
  H   H1165     1.0  0.64043  0.03297  0.23420  1.0000
  C   C736      1.0  0.92003  0.45586  0.33143  1.0000
  C   C737      1.0  0.91751  0.43947  0.32265  1.0000
  C   C738      1.0  0.91210  0.44400  0.30591  1.0000
  H   H1166     1.0  0.92400  0.45249  0.34444  1.0000
  H   H1167     1.0  0.68852  0.98740  0.25367  1.0000
  C   C739      1.0  0.63720  0.08422  0.27222  1.0000
  C   C740      1.0  0.65348  0.09193  0.26084  1.0000
  C   C741      1.0  0.65629  0.08863  0.24353  1.0000
  C   C742      1.0  0.64246  0.07819  0.23725  1.0000
  C   C743      1.0  0.62572  0.07090  0.24849  1.0000
  C   C744      1.0  0.62331  0.07361  0.26607  1.0000
  H   H1168     1.0  0.66417  0.10022  0.26546  1.0000
  H   H1169     1.0  0.66922  0.09429  0.23490  1.0000
  H   H1170     1.0  0.61488  0.06294  0.24372  1.0000
  H   H1171     1.0  0.61054  0.06783  0.27481  1.0000
  C   C745      1.0  0.55402  0.02740  0.33232  1.0000
  C   C746      1.0  0.53661  0.01700  0.33338  1.0000
  C   C747      1.0  0.51686  0.02805  0.33049  1.0000
  C   C748      1.0  0.51428  0.04979  0.32676  1.0000
  C   C749      1.0  0.53171  0.06030  0.32557  1.0000
  C   C750      1.0  0.55159  0.04913  0.32820  1.0000
  H   H1172     1.0  0.53854  0.00030  0.33666  1.0000
  Fe  Fe151     1.0  0.58166  0.05716  0.19668  1.0000
  H   H1173     1.0  0.52984  0.07713  0.32272  1.0000
  H   H1174     1.0  0.56490  0.05734  0.32741  1.0000
  H   H1175     1.0  0.53251  0.02586  0.26036  1.0000
  H   H1176     1.0  0.69106  0.07708  0.32298  1.0000
  N   N74       1.0  0.66573  0.01288  0.24513  1.0000
  H   H1177     1.0  0.51133  0.07204  0.23166  1.0000
  H   H1178     1.0  0.50352  0.01983  0.33162  1.0000
  C   C751      1.0  0.72347  0.05782  0.37489  1.0000
  C   C752      1.0  0.71823  0.05446  0.35901  1.0000
  C   C753      1.0  0.69829  0.04959  0.35771  1.0000
  C   C754      1.0  0.68324  0.04843  0.37224  1.0000
  H   H1179     1.0  0.72989  0.98952  0.37290  1.0000
  C   C755      1.0  0.65862  0.01829  0.26275  1.0000
  H   H1180     1.0  0.72977  0.05535  0.34771  1.0000
  H   H1181     1.0  0.69466  0.04654  0.34552  1.0000
  S   S305      1.0  0.67700  0.98988  0.30304  1.0000
  S   S306      1.0  0.90925  0.34609  0.19205  1.0000
  H   H1182     1.0  0.98721  0.41935  0.33406  1.0000
  H   H1183     1.0  0.71416  0.01227  0.38037  1.0000
  H   H1184     1.0  0.65248  0.01248  0.22185  1.0000
  H   H1185     1.0  0.92698  0.41063  0.21949  1.0000
  H   H1186     1.0  0.97882  0.35875  0.32519  1.0000
  H   H1187     1.0  0.65138  0.03490  0.26258  1.0000
  H   H1188     1.0  0.90992  0.43149  0.29910  1.0000
  H   H1189     1.0  0.67188  0.01601  0.27052  1.0000
  C   C756      1.0  0.66006  0.12408  0.31952  1.0000
  S   S307      1.0  0.60582  0.03690  0.21148  1.0000
  H   H1190     1.0  0.64684  0.00847  0.26975  1.0000
  H   H1191     1.0  0.94744  0.37629  0.21269  1.0000
  H   H1192     1.0  0.54587  0.06709  0.24231  1.0000
  H   H1193     1.0  0.88692  0.38604  0.20022  1.0000
  H   H1194     1.0  0.68664  0.02312  0.22295  1.0000
  H   H1195     1.0  0.67211  0.13355  0.31247  1.0000
  C   C757      1.0  0.95242  0.38404  0.19957  1.0000
  H   H1196     1.0  0.65058  0.12081  0.30984  1.0000
  S   S308      1.0  0.54736  0.06058  0.20641  1.0000
  H   H1197     1.0  0.69558  0.02355  0.24337  1.0000
  H   H1198     1.0  0.64308  0.08906  0.32885  1.0000
  N   N75       1.0  0.87518  0.32354  0.27601  1.0000
  C   C758      1.0  0.86086  0.31151  0.28834  1.0000
  C   C759      1.0  0.87530  0.34386  0.28201  1.0000
  C   C760      1.0  0.86806  0.32712  0.25880  1.0000
  C   C761      1.0  0.89653  0.31171  0.27496  1.0000
  H   H1199     1.0  0.86601  0.30853  0.30142  1.0000
  H   H1200     1.0  0.86031  0.29606  0.28426  1.0000
  H   H1201     1.0  0.84464  0.32006  0.28966  1.0000
  H   H1202     1.0  0.88632  0.35319  0.27331  1.0000
  H   H1203     1.0  0.85957  0.35346  0.28263  1.0000
  H   H1204     1.0  0.88016  0.34174  0.29511  1.0000
  H   H1205     1.0  0.87845  0.33642  0.24930  1.0000
  H   H1206     1.0  0.85195  0.33593  0.25913  1.0000
  H   H1207     1.0  0.86799  0.31215  0.25373  1.0000
  H   H1208     1.0  0.89698  0.29618  0.27069  1.0000
  H   H1209     1.0  0.90248  0.30895  0.28772  1.0000
  H   H1210     1.0  0.90777  0.32025  0.26574  1.0000
  H   H1211     1.0  0.95519  0.45992  0.30648  1.0000
  C   C762      1.0  0.65309  0.09258  0.33797  1.0000
  C   C763      1.0  0.64771  0.01636  0.23524  1.0000
  H   H1212     1.0  0.92028  0.41470  0.19796  1.0000
  H   H1213     1.0  0.89432  0.44604  0.20356  1.0000
  C   C764      1.0  0.67508  0.99069  0.24602  1.0000
  H   H1214     1.0  0.98177  0.44673  0.33645  1.0000
  C   C765      1.0  0.91198  0.48116  0.30675  1.0000
  H   H1215     1.0  0.76052  0.99826  0.38450  1.0000
  H   H1216     1.0  0.67441  0.08787  0.30677  1.0000
  H   H1217     1.0  0.98423  0.40114  0.20704  1.0000
  C   C766      1.0  0.70850  0.05645  0.38945  1.0000
  N   N76       1.0  0.66973  0.10450  0.32886  1.0000
  H   H1218     1.0  0.69514  0.11810  0.33509  1.0000
  H   H1219     1.0  0.96142  0.43318  0.33253  1.0000
  H   H1220     1.0  0.50748  0.02951  0.25267  1.0000
  C   C767      1.0  0.90910  0.46481  0.29807  1.0000
  H   H1221     1.0  0.67242  0.11884  0.35106  1.0000
  H   H1222     1.0  0.53479  0.08248  0.25930  1.0000
  H   H1223     1.0  0.70571  0.98725  0.38686  1.0000
  C   C768      1.0  0.50721  0.05698  0.27492  1.0000
  C   C769      1.0  0.97833  0.42366  0.30144  1.0000
  S   S309      1.0  0.92068  0.19486  0.38960  1.0000
  C   C770      1.0  0.52213  0.03646  0.25190  1.0000
  H   H1224     1.0  0.64265  0.10134  0.34773  1.0000
  H   H1225     1.0  0.90464  0.46818  0.28523  1.0000
  H   H1226     1.0  0.68952  0.09479  0.34887  1.0000
  Fe  Fe152     1.0  0.62523  0.06247  0.20130  1.0000
  H   H1227     1.0  0.54833  0.05661  0.26432  1.0000
  H   H1228     1.0  0.97520  0.47282  0.31181  1.0000
  H   H1229     1.0  0.83504  0.14921  0.38234  1.0000
  C   C771      1.0  0.50389  0.07118  0.24531  1.0000
  C   C772      1.0  0.68225  0.10932  0.34150  1.0000
  H   H1230     1.0  0.96793  0.37567  0.19477  1.0000
  C   C773      1.0  0.68343  0.09195  0.31640  1.0000
  H   H1231     1.0  0.98705  0.40802  0.30532  1.0000
  C   C774      1.0  0.68151  0.02616  0.23651  1.0000
  C   C775      1.0  0.97232  0.46036  0.30461  1.0000
  H   H1232     1.0  0.50373  0.07274  0.27926  1.0000
  S   S310      1.0  0.91550  0.48208  0.19375  1.0000
  H   H1233     1.0  0.52993  0.03655  0.23838  1.0000
  H   H1234     1.0  0.67509  0.04303  0.23608  1.0000
  H   H1235     1.0  0.50014  0.08737  0.24872  1.0000
  H   H1236     1.0  0.63537  0.00676  0.24143  1.0000
  H   H1237     1.0  0.98185  0.42719  0.28723  1.0000
  S   S311      1.0  0.98891  0.35074  0.28981  1.0000
  C   C776      1.0  0.91754  0.47662  0.32344  1.0000
  N   N77       1.0  0.98394  0.43984  0.31045  1.0000
  C   C777      1.0  0.71971  0.99549  0.38421  1.0000
  H   H1238     1.0  0.96903  0.42560  0.21184  1.0000
  H   H1239     1.0  0.92282  0.29751  0.38000  1.0000
  C   C778      1.0  0.68846  0.05188  0.38809  1.0000
  H   H1240     1.0  0.82161  0.11515  0.39087  1.0000
  H   H1241     1.0  0.93197  0.43405  0.20559  1.0000
  H   H1242     1.0  0.51704  0.04679  0.28408  1.0000
  H   H1243     1.0  0.94103  0.38160  0.19114  1.0000
  Fe  Fe153     1.0  0.74819  0.08124  0.58117  1.0000
  Fe  Fe154     1.0  0.78321  0.07970  0.55038  1.0000
  S   S312      1.0  0.80845  0.07055  0.56765  1.0000
  S   S313      1.0  0.79662  0.08519  0.52240  1.0000
  S   S314      1.0  0.98280  0.18093  0.56418  1.0000
  C   C779      1.0  0.86533  0.25441  0.45038  1.0000
  C   C780      1.0  0.79484  0.99660  0.57871  1.0000
  H   H1244     1.0  0.76800  0.99089  0.47320  1.0000
  S   S315      1.0  0.76259  0.05650  0.56425  1.0000
  S   S316      1.0  0.76621  0.10541  0.56506  1.0000
  Fe  Fe155     1.0  0.90813  0.22329  0.40297  1.0000
  S   S317      1.0  0.77264  0.08561  0.41317  1.0000
  H   H1245     1.0  0.87189  0.30484  0.43604  1.0000
  S   S318      1.0  0.75251  0.04165  0.42504  1.0000
  H   H1246     1.0  0.81038  0.09943  0.44294  1.0000
  Fe  Fe156     1.0  0.76356  0.06553  0.43791  1.0000
  S   S319      1.0  0.74565  0.07710  0.46215  1.0000
  S   S320      1.0  0.79540  0.04770  0.43940  1.0000
  S   S321      1.0  0.88912  0.21767  0.56680  1.0000
  S   S322      1.0  0.93752  0.22969  0.56181  1.0000
  H   H1247     1.0  0.78256  0.10536  0.44247  1.0000
  Fe  Fe157     1.0  0.91540  0.22207  0.54514  1.0000
  S   S323      1.0  0.91408  0.24016  0.51864  1.0000
  S   S324      1.0  0.92853  0.18824  0.54650  1.0000
  Fe  Fe158     1.0  0.93569  0.18253  0.41372  1.0000
  S   S325      1.0  0.92475  0.21145  0.42629  1.0000
  S   S326      1.0  0.96876  0.16647  0.41697  1.0000
  H   H1248     1.0  0.70309  0.99245  0.41750  1.0000
  S   S327      1.0  0.87853  0.21087  0.41546  1.0000
  S   S328      1.0  0.79754  0.04183  0.39923  1.0000
  C   C781      1.0  0.80796  0.99391  0.47515  1.0000
  Fe  Fe159     1.0  0.89637  0.19667  0.43738  1.0000
  S   S329      1.0  0.88118  0.19463  0.46499  1.0000
  S   S330      1.0  0.90824  0.16653  0.42667  1.0000
  H   H1249     1.0  0.97543  0.20565  0.45971  1.0000
  S   S331      1.0  0.86819  0.16689  0.39245  1.0000
  H   H1250     1.0  0.80037  0.11343  0.42405  1.0000
  C   C782      1.0  0.90564  0.22692  0.50377  1.0000
  C   C783      1.0  0.89391  0.21055  0.50939  1.0000
  C   C784      1.0  0.88649  0.20074  0.49735  1.0000
  C   C785      1.0  0.89125  0.20685  0.47967  1.0000
  C   C786      1.0  0.90360  0.22273  0.47401  1.0000
  C   C787      1.0  0.91049  0.23299  0.48606  1.0000
  H   H1251     1.0  0.89012  0.20581  0.52304  1.0000
  H   H1252     1.0  0.87701  0.18840  0.50179  1.0000
  H   H1253     1.0  0.90746  0.22738  0.46040  1.0000
  H   H1254     1.0  0.91968  0.24559  0.48171  1.0000
  C   C788      1.0  0.77060  0.00461  0.47903  1.0000
  H   H1255     1.0  0.93994  0.19399  0.48842  1.0000
  H   H1256     1.0  0.82089  0.14235  0.42511  1.0000
  H   H1257     1.0  0.90310  0.25283  0.43163  1.0000
  Fe  Fe160     1.0  0.76471  0.05969  0.40027  1.0000
  H   H1258     1.0  0.88152  0.13046  0.41679  1.0000
  H   H1259     1.0  0.77180  0.01772  0.46838  1.0000
  C   C789      1.0  0.83449  0.11847  0.39670  1.0000
  H   H1260     1.0  0.76508  0.14178  0.44238  1.0000
  C   C790      1.0  0.79383  0.12823  0.46408  1.0000
  C   C791      1.0  0.84289  0.11772  0.58201  1.0000
  H   H1261     1.0  0.77863  0.12230  0.46876  1.0000
  C   C792      1.0  0.86263  0.12453  0.57769  1.0000
  C   C793      1.0  0.74929  0.00415  0.39531  1.0000
  C   C794      1.0  0.84395  0.10331  0.40864  1.0000
  H   H1262     1.0  0.97221  0.20989  0.40356  1.0000
  C   C795      1.0  0.78221  0.08121  0.50637  1.0000
  C   C796      1.0  0.76048  0.08180  0.50935  1.0000
  C   C797      1.0  0.74935  0.08029  0.49574  1.0000
  C   C798      1.0  0.75995  0.07781  0.47924  1.0000
  C   C799      1.0  0.78174  0.07666  0.47649  1.0000
  C   C800      1.0  0.79280  0.07851  0.48995  1.0000
  H   H1263     1.0  0.75218  0.08398  0.52199  1.0000
  H   H1264     1.0  0.73248  0.08124  0.49797  1.0000
  H   H1265     1.0  0.79010  0.07487  0.46390  1.0000
  H   H1266     1.0  0.80963  0.07795  0.48760  1.0000
  N   N78       1.0  0.79755  0.13151  0.44506  1.0000
  N   N79       1.0  0.84040  0.12827  0.52906  1.0000
  C   C801      1.0  0.85596  0.12254  0.51434  1.0000
  C   C802      1.0  0.84763  0.14426  0.53727  1.0000
  C   C803      1.0  0.83795  0.10953  0.54170  1.0000
  C   C804      1.0  0.82002  0.13670  0.52294  1.0000
  H   H1267     1.0  0.87147  0.11599  0.51861  1.0000
  H   H1268     1.0  0.85830  0.13634  0.50457  1.0000
  H   H1269     1.0  0.85096  0.11052  0.50783  1.0000
  H   H1270     1.0  0.83648  0.14866  0.54866  1.0000
  H   H1271     1.0  0.86314  0.13854  0.54185  1.0000
  H   H1272     1.0  0.84939  0.15876  0.52821  1.0000
  H   H1273     1.0  0.82573  0.11314  0.55266  1.0000
  H   H1274     1.0  0.85280  0.10309  0.54712  1.0000
  H   H1275     1.0  0.83310  0.09692  0.53578  1.0000
  H   H1276     1.0  0.80795  0.14107  0.53381  1.0000
  H   H1277     1.0  0.81407  0.12492  0.51681  1.0000
  H   H1278     1.0  0.82121  0.15085  0.51336  1.0000
  H   H1279     1.0  0.97669  0.14878  0.47328  1.0000
  C   C805      1.0  0.71708  0.00068  0.41410  1.0000
  S   S332      1.0  0.89003  0.15326  0.57071  1.0000
  H   H1280     1.0  0.89713  0.31378  0.58957  1.0000
  H   H1281     1.0  0.79906  0.01876  0.55597  1.0000
  H   H1282     1.0  0.71226  0.05921  0.40171  1.0000
  H   H1283     1.0  0.81878  0.15373  0.44461  1.0000
  H   H1284     1.0  0.83118  0.12723  0.44346  1.0000
  H   H1285     1.0  0.92655  0.18187  0.46434  1.0000
  Fe  Fe161     1.0  0.94870  0.19536  0.56483  1.0000
  H   H1286     1.0  0.72528  0.99874  0.42574  1.0000
  H   H1287     1.0  0.79345  0.14297  0.46963  1.0000
  H   H1288     1.0  0.84929  0.27518  0.42194  1.0000
  C   C806      1.0  0.89675  0.26796  0.43652  1.0000
  H   H1289     1.0  0.78303  0.14972  0.42401  1.0000
  H   H1290     1.0  0.94777  0.21095  0.45849  1.0000
  Fe  Fe162     1.0  0.90370  0.18377  0.56921  1.0000
  H   H1291     1.0  0.98185  0.16087  0.45153  1.0000
  C   C807      1.0  0.86093  0.10785  0.41583  1.0000
  H   H1292     1.0  0.84848  0.29486  0.44648  1.0000
  H   H1293     1.0  0.95247  0.16814  0.49475  1.0000
  H   H1294     1.0  0.67690  0.05106  0.39940  1.0000
  C   C808      1.0  0.81796  0.13905  0.43938  1.0000
  H   H1295     1.0  0.87630  0.11340  0.57441  1.0000
  Fe  Fe163     1.0  0.78663  0.04895  0.58253  1.0000
  Fe  Fe164     1.0  0.79040  0.09529  0.58316  1.0000
  C   C809      1.0  0.86836  0.12729  0.41123  1.0000
  H   H1296     1.0  0.80632  0.11653  0.46947  1.0000
  Fe  Fe165     1.0  0.89200  0.18129  0.40389  1.0000
  H   H1297     1.0  0.96489  0.19683  0.44289  1.0000
  H   H1298     1.0  0.72710  0.02022  0.57521  1.0000
  H   H1299     1.0  0.87185  0.25688  0.41603  1.0000
  S   S333      1.0  0.83540  0.07847  0.41498  1.0000
  Fe  Fe166     1.0  0.80451  0.06651  0.41402  1.0000
  H   H1300     1.0  0.87127  0.23891  0.44591  1.0000
  C   C810      1.0  0.85915  0.14232  0.39907  1.0000
  N   N80       1.0  0.95898  0.17915  0.46778  1.0000
  H   H1301     1.0  0.90267  0.26772  0.44904  1.0000
  H   H1302     1.0  0.75643  0.00910  0.48813  1.0000
  C   C811      1.0  0.79737  0.00272  0.56093  1.0000
  H   H1303     1.0  0.96746  0.18952  0.49005  1.0000
  Fe  Fe167     1.0  0.78542  0.02517  0.42471  1.0000
  H   H1304     1.0  0.78011  0.16239  0.44306  1.0000
  H   H1305     1.0  0.98105  0.22493  0.56718  1.0000
  C   C812      1.0  0.84714  0.15978  0.58201  1.0000
  H   H1306     1.0  0.90362  0.28024  0.42710  1.0000
  H   H1307     1.0  0.87098  0.29185  0.45773  1.0000
  C   C813      1.0  0.78068  0.14707  0.43836  1.0000
  H   H1308     1.0  0.87001  0.25376  0.46344  1.0000
  C   C814      1.0  0.98993  0.18117  0.41357  1.0000
  N   N81       1.0  0.87363  0.27150  0.43828  1.0000
  C   C815      1.0  0.86588  0.29166  0.44494  1.0000
  C   C816      1.0  0.79769  0.11157  0.43837  1.0000
  H   H1309     1.0  0.80101  0.99270  0.53581  1.0000
  C   C817      1.0  0.79273  0.01868  0.49494  1.0000
  C   C818      1.0  0.86663  0.27201  0.42127  1.0000
  H   H1310     1.0  0.86851  0.09619  0.42495  1.0000
  H   H1311     1.0  0.94417  0.16737  0.44942  1.0000
  C   C819      1.0  0.96187  0.19904  0.45677  1.0000
  H   H1312     1.0  0.79871  0.99195  0.39894  1.0000
  Fe  Fe168     1.0  0.91270  0.22250  0.58375  1.0000
  H   H1313     1.0  0.87331  0.28417  0.41159  1.0000
  C   C820      1.0  0.86489  0.14560  0.57754  1.0000
  C   C821      1.0  0.98729  0.20231  0.40698  1.0000
  H   H1314     1.0  0.93834  0.15587  0.47123  1.0000
  H   H1315     1.0  0.84794  0.25628  0.45176  1.0000
  H   H1316     1.0  0.80992  0.00648  0.46415  1.0000
  C   C822      1.0  0.95456  0.18284  0.48604  1.0000
  H   H1317     1.0  0.77904  0.02394  0.50424  1.0000
  C   C823      1.0  0.97825  0.16401  0.46521  1.0000
  C   C824      1.0  0.94124  0.17069  0.46302  1.0000
  S   S334      1.0  0.78950  0.99115  0.43600  1.0000
  N   N82       1.0  0.78966  0.99993  0.48774  1.0000
  H   H1318     1.0  0.84864  0.17602  0.58197  1.0000
  H   H1319     1.0  0.75790  0.00280  0.40663  1.0000
  H   H1320     1.0  0.81375  0.16400  0.58991  1.0000
  H   H1321     1.0  0.79483  0.03199  0.48461  1.0000
  H   H1322     1.0  0.80680  0.01566  0.50185  1.0000
  H   H1323     1.0  0.71138  0.01762  0.41114  1.0000
  S   S335      1.0  0.71305  0.08747  0.58946  1.0000
  H   H1324     1.0  0.84149  0.10142  0.58222  1.0000
  H   H1325     1.0  0.75302  0.14317  0.58530  1.0000
  C   C825      1.0  0.82510  0.13190  0.58628  1.0000
  S   S336      1.0  0.92524  0.18813  0.58774  1.0000
  C   C826      1.0  0.79840  0.98793  0.54951  1.0000
  C   C827      1.0  0.84218  0.13777  0.39185  1.0000
  C   C828      1.0  0.73635  0.00786  0.58335  1.0000
  H   H1326     1.0  0.72792  0.15912  0.58452  1.0000
  C   C829      1.0  0.82737  0.15291  0.58646  1.0000
  S   S337      1.0  0.91129  0.25762  0.39437  1.0000
  C   C830      1.0  0.73589  0.14354  0.58949  1.0000
  N   N83       1.0  0.73112  0.99261  0.39938  1.0000
  H   H1327     1.0  0.89790  0.27657  0.58585  1.0000
  H   H1328     1.0  0.75304  0.01017  0.57996  1.0000
  H   H1329     1.0  0.82270  0.99054  0.48117  1.0000
  H   H1330     1.0  0.74441  0.02107  0.39152  1.0000
  H   H1331     1.0  0.73042  0.13170  0.58307  1.0000
  H   H1332     1.0  0.73492  0.99244  0.57962  1.0000
  H   H1333     1.0  0.77417  0.98660  0.51187  1.0000
  H   H1334     1.0  0.97101  0.22363  0.63988  1.0000
  C   C831      1.0  0.97712  0.18856  0.61120  1.0000
  Fe  Fe169     1.0  0.63397  0.06261  0.67524  1.0000
  S   S338      1.0  0.63155  0.04698  0.70272  1.0000
  S   S339      1.0  0.66697  0.07074  0.66609  1.0000
  Fe  Fe170     1.0  0.58700  0.06250  0.67398  1.0000
  S   S340      1.0  0.58172  0.04665  0.70090  1.0000
  S   S341      1.0  0.55749  0.07601  0.66213  1.0000
  Fe  Fe171     1.0  0.60157  0.06850  0.70722  1.0000
  S   S342      1.0  0.58872  0.08634  0.72957  1.0000
  Fe  Fe172     1.0  0.61193  0.02655  0.69400  1.0000
  H   H1335     1.0  0.61906  0.02085  0.76660  1.0000
  S   S343      1.0  0.60523  0.08596  0.68071  1.0000
  S   S344      1.0  0.61613  0.04040  0.66609  1.0000
  C   C832      1.0  0.52698  0.02632  0.66211  1.0000
  C   C833      1.0  0.58117  0.03340  0.78335  1.0000
  S   S345      1.0  0.94455  0.33850  0.76401  1.0000
  S   S346      1.0  0.95015  0.38289  0.78877  1.0000
  Fe  Fe173     1.0  0.96587  0.34217  0.64995  1.0000
  S   S347      1.0  0.95710  0.35798  0.62447  1.0000
  Fe  Fe174     1.0  0.92517  0.35990  0.66932  1.0000
  S   S348      1.0  0.91304  0.37705  0.64518  1.0000
  S   S349      1.0  0.90412  0.36334  0.69433  1.0000
  Fe  Fe175     1.0  0.92599  0.34714  0.63376  1.0000
  S   S350      1.0  0.90815  0.33379  0.61626  1.0000
  Fe  Fe176     1.0  0.94519  0.38615  0.63827  1.0000
  S   S351      1.0  0.95532  0.41736  0.62640  1.0000
  S   S352      1.0  0.93555  0.32944  0.65849  1.0000
  S   S353      1.0  0.95653  0.37098  0.66318  1.0000
  H   H1336     1.0  0.52304  0.99731  0.63418  1.0000
  C   C834      1.0  0.98179  0.37107  0.74358  1.0000
  H   H1337     1.0  0.53656  0.11025  0.69405  1.0000
  N   N84       1.0  0.72939  0.00888  0.60189  1.0000
  S   S354      1.0  0.79338  0.01496  0.59330  1.0000
  C   C835      1.0  0.91875  0.27003  0.62350  1.0000
  H   H1338     1.0  0.58774  0.00956  0.67874  1.0000
  C   C836      1.0  0.97884  0.21022  0.63301  1.0000
  C   C837      1.0  0.91097  0.30704  0.61323  1.0000
  C   C838      1.0  0.91913  0.29110  0.62526  1.0000
  H   H1339     1.0  0.91770  0.48029  0.69367  1.0000
  H   H1340     1.0  0.69948  0.15432  0.60909  1.0000
  C   C839      1.0  0.50790  0.10248  0.72152  1.0000
  H   H1341     1.0  0.97824  0.22993  0.60119  1.0000
  C   C840      1.0  0.67861  0.08288  0.61367  1.0000
  H   H1342     1.0  0.72711  0.03078  0.62012  1.0000
  H   H1343     1.0  0.90676  0.47946  0.72513  1.0000
  S   S355      1.0  0.90948  0.23793  0.60834  1.0000
  C   C841      1.0  0.91598  0.35728  0.71344  1.0000
  C   C842      1.0  0.93527  0.34443  0.71387  1.0000
  C   C843      1.0  0.94381  0.33875  0.72948  1.0000
  C   C844      1.0  0.93343  0.34633  0.74465  1.0000
  C   C845      1.0  0.91443  0.35964  0.74413  1.0000
  C   C846      1.0  0.90560  0.36485  0.72861  1.0000
  H   H1344     1.0  0.94334  0.33843  0.70227  1.0000
  H   H1345     1.0  0.95844  0.32834  0.72981  1.0000
  H   H1346     1.0  0.90628  0.36551  0.75576  1.0000
  H   H1347     1.0  0.89067  0.37478  0.72836  1.0000
  C   C847      1.0  0.94287  0.44166  0.63270  1.0000
  C   C848      1.0  0.92302  0.44386  0.64229  1.0000
  H   H1348     1.0  0.96826  0.18555  0.60102  1.0000
  H   H1349     1.0  0.70119  0.00729  0.61965  1.0000
  H   H1350     1.0  0.57165  0.03122  0.77337  1.0000
  C   C849      1.0  0.95304  0.45935  0.62751  1.0000
  H   H1351     1.0  0.91501  0.43036  0.64630  1.0000
  H   H1352     1.0  0.96816  0.37557  0.75321  1.0000
  H   H1353     1.0  0.70402  0.99138  0.60253  1.0000
  H   H1354     1.0  0.96835  0.45782  0.62002  1.0000
  C   C850      1.0  0.50219  0.05770  0.65757  1.0000
  C   C851      1.0  0.70695  0.00658  0.60575  1.0000
  C   C852      1.0  0.60176  0.08079  0.74792  1.0000
  C   C853      1.0  0.59427  0.09183  0.76197  1.0000
  C   C854      1.0  0.60475  0.08818  0.77659  1.0000
  C   C855      1.0  0.62296  0.07371  0.77711  1.0000
  C   C856      1.0  0.63049  0.06261  0.76307  1.0000
  C   C857      1.0  0.61968  0.06589  0.74860  1.0000
  H   H1355     1.0  0.58035  0.10332  0.76155  1.0000
  C   C858      1.0  0.96308  0.22516  0.60747  1.0000
  H   H1356     1.0  0.64446  0.05122  0.76355  1.0000
  H   H1357     1.0  0.62518  0.05693  0.73801  1.0000
  H   H1358     1.0  0.92523  0.29501  0.63616  1.0000
  C   C859      1.0  0.50675  0.03593  0.65911  1.0000
  H   H1359     1.0  0.92423  0.25789  0.63328  1.0000
  H   H1360     1.0  0.95424  0.22252  0.59717  1.0000
  C   C860      1.0  0.54255  0.03841  0.66347  1.0000
  C   C861      1.0  0.53813  0.06021  0.66139  1.0000
  C   C862      1.0  0.51790  0.06978  0.65848  1.0000
  H   H1361     1.0  0.70467  0.13552  0.62753  1.0000
  H   H1362     1.0  0.55811  0.03092  0.66563  1.0000
  H   H1363     1.0  0.51437  0.08663  0.65678  1.0000
  H   H1364     1.0  0.53072  0.00952  0.66334  1.0000
  H   H1365     1.0  0.75550  0.15592  0.61285  1.0000
  C   C863      1.0  0.59222  0.99312  0.67776  1.0000
  H   H1366     1.0  0.51159  0.11319  0.73002  1.0000
  H   H1367     1.0  0.68642  0.06867  0.72040  1.0000
  H   H1368     1.0  0.65988  0.06350  0.72492  1.0000
  H   H1369     1.0  0.52403  0.06633  0.73860  1.0000
  C   C864      1.0  0.66807  0.07894  0.63046  1.0000
  C   C865      1.0  0.67941  0.07372  0.64453  1.0000
  C   C866      1.0  0.94558  0.20134  0.62887  1.0000
  S   S356      1.0  0.49904  0.08530  0.76835  1.0000
  C   C867      1.0  0.90348  0.30159  0.59896  1.0000
  H   H1370     1.0  0.65116  0.08045  0.63254  1.0000
  H   H1371     1.0  0.69717  0.01926  0.59829  1.0000
  N   N85       1.0  0.86903  0.32446  0.66681  1.0000
  C   C868      1.0  0.87360  0.34278  0.65434  1.0000
  C   C869      1.0  0.84620  0.32407  0.66979  1.0000
  C   C870      1.0  0.87668  0.32583  0.68323  1.0000
  C   C871      1.0  0.87973  0.30524  0.65978  1.0000
  H   H1372     1.0  0.86664  0.35772  0.65938  1.0000
  H   H1373     1.0  0.86774  0.34259  0.64184  1.0000
  H   H1374     1.0  0.89072  0.34293  0.65134  1.0000
  H   H1375     1.0  0.84217  0.31049  0.67923  1.0000
  H   H1376     1.0  0.83774  0.33850  0.67495  1.0000
  H   H1377     1.0  0.84001  0.32296  0.65763  1.0000
  H   H1378     1.0  0.89387  0.32621  0.68144  1.0000
  H   H1379     1.0  0.87351  0.31232  0.69304  1.0000
  H   H1380     1.0  0.86924  0.34035  0.68878  1.0000
  H   H1381     1.0  0.87620  0.29097  0.66854  1.0000
  H   H1382     1.0  0.89701  0.30491  0.65787  1.0000
  H   H1383     1.0  0.87509  0.30419  0.64696  1.0000
  H   H1384     1.0  0.49572  0.09359  0.72921  1.0000
  H   H1385     1.0  0.70304  0.12688  0.60739  1.0000
  C   C872      1.0  0.91119  0.26459  0.60924  1.0000
  H   H1386     1.0  0.98457  0.38524  0.73441  1.0000
  C   C873      1.0  0.91325  0.46371  0.64628  1.0000
  H   H1387     1.0  0.72880  0.07372  0.62278  1.0000
  H   H1388     1.0  0.57401  0.99337  0.78618  1.0000
  H   H1389     1.0  0.58976  0.04683  0.77818  1.0000
  H   H1390     1.0  0.67257  0.06556  0.70315  1.0000
  H   H1391     1.0  0.93563  0.19831  0.61950  1.0000
  H   H1392     1.0  0.63114  0.09048  0.71550  1.0000
  N   N86       1.0  0.66339  0.09483  0.71341  1.0000
  N   N87       1.0  0.73139  0.13925  0.60842  1.0000
  H   H1393     1.0  0.63657  0.11560  0.70522  1.0000
  C   C874      1.0  0.53550  0.07592  0.73075  1.0000
  H   H1394     1.0  0.54239  0.08532  0.77237  1.0000
  C   C875      1.0  0.67868  0.10559  0.70103  1.0000
  H   H1395     1.0  0.69430  0.10307  0.70565  1.0000
  H   H1396     1.0  0.65553  0.11995  0.72905  1.0000
  C   C876      1.0  0.74278  0.11869  0.61436  1.0000
  H   H1397     1.0  0.64426  0.09318  0.69391  1.0000
  H   H1398     1.0  0.64928  0.09525  0.73974  1.0000
  H   H1399     1.0  0.67343  0.12271  0.69892  1.0000
  H   H1400     1.0  0.68077  0.09970  0.68826  1.0000
  C   C877      1.0  0.66101  0.10285  0.73022  1.0000
  C   C878      1.0  0.92344  0.48138  0.64107  1.0000
  N   N88       1.0  0.96615  0.20630  0.62014  1.0000
  H   H1401     1.0  0.67602  0.09990  0.73585  1.0000
  H   H1402     1.0  0.97692  0.35974  0.73629  1.0000
  S   S357      1.0  0.61486  0.99245  0.70403  1.0000
  C   C879      1.0  0.64297  0.09871  0.70672  1.0000
  C   C880      1.0  0.67090  0.07216  0.71557  1.0000
  C   C881      1.0  0.90393  0.28049  0.59680  1.0000
  C   C882      1.0  0.70137  0.07197  0.64157  1.0000
  H   H1403     1.0  0.89771  0.46535  0.65339  1.0000
  C   C883      1.0  0.70056  0.08123  0.61072  1.0000
  C   C884      1.0  0.74176  0.99191  0.61215  1.0000
  H   H1404     1.0  0.73535  0.15267  0.63073  1.0000
  C   C885      1.0  0.54259  0.10068  0.70558  1.0000
  H   H1405     1.0  0.71029  0.06787  0.65236  1.0000
  C   C886      1.0  0.71192  0.07541  0.62476  1.0000
  H   H1406     1.0  0.75870  0.99356  0.60986  1.0000
  C   C887      1.0  0.60958  0.00830  0.77246  1.0000
  H   H1407     1.0  0.73669  0.99197  0.62620  1.0000
  H   H1408     1.0  0.57584  0.99408  0.65592  1.0000
  H   H1409     1.0  0.54994  0.06527  0.72690  1.0000
  H   H1410     1.0  0.98496  0.33705  0.68244  1.0000
  H   H1411     1.0  0.95403  0.23865  0.61359  1.0000
  H   H1412     1.0  0.59892  0.09687  0.78736  1.0000
  H   H1413     1.0  0.55694  0.09041  0.70082  1.0000
  H   H1414     1.0  0.94720  0.18725  0.63858  1.0000
  H   H1415     1.0  0.54750  0.11129  0.71353  1.0000
  H   H1416     1.0  0.73837  0.10626  0.60805  1.0000
  H   H1417     1.0  0.98310  0.34760  0.77456  1.0000
  H   H1418     1.0  0.51461  0.08310  0.69303  1.0000
  H   H1419     1.0  0.73929  0.11448  0.62851  1.0000
  H   H1420     1.0  0.76003  0.11832  0.61122  1.0000
  C   C888      1.0  0.70865  0.13905  0.61335  1.0000
  H   H1421     1.0  0.50923  0.06459  0.71169  1.0000
  H   H1422     1.0  0.93666  0.21457  0.63545  1.0000
  C   C889      1.0  0.51074  0.09572  0.78309  1.0000
  H   H1423     1.0  0.53973  0.08619  0.73937  1.0000
  C   C890      1.0  0.52114  0.07419  0.70462  1.0000
  H   H1424     1.0  0.98089  0.41124  0.65566  1.0000
  N   N89       1.0  0.52678  0.08831  0.71561  1.0000
  H   H1425     1.0  0.66964  0.08735  0.60292  1.0000
  S   S358      1.0  0.77119  0.07257  0.60020  1.0000
  N   N90       1.0  0.59571  0.01427  0.78801  1.0000
  H   H1426     1.0  0.53504  0.06336  0.69983  1.0000
  H   H1427     1.0  0.50085  0.11216  0.71049  1.0000
  H   H1428     1.0  0.60047  0.00535  0.76245  1.0000
  C   C891      1.0  0.94350  0.47908  0.63186  1.0000
  C   C892      1.0  0.53255  0.09302  0.78248  1.0000
  H   H1429     1.0  0.93005  0.46682  0.78033  1.0000
  Fe  Fe177     1.0  0.93352  0.35585  0.78720  1.0000
  H   H1430     1.0  0.62067  0.99386  0.77555  1.0000
  H   H1431     1.0  0.99064  0.33155  0.75762  1.0000
  H   H1432     1.0  0.98143  0.19632  0.64281  1.0000
  C   C893      1.0  0.73252  0.02925  0.60629  1.0000
  S   S359      1.0  0.79985  0.12402  0.59152  1.0000
  C   C894      1.0  0.73835  0.15554  0.61643  1.0000
  H   H1433     1.0  0.72377  0.04241  0.59850  1.0000
  H   H1434     1.0  0.74935  0.03136  0.60381  1.0000
  H   H1435     1.0  0.97926  0.17389  0.62023  1.0000
  H   H1436     1.0  0.73012  0.17132  0.61224  1.0000
  H   H1437     1.0  0.99055  0.38449  0.63551  1.0000
  H   H1438     1.0  0.94283  0.48609  0.71260  1.0000
  S   S360      1.0  0.61647  0.05503  0.84479  1.0000
  Fe  Fe178     1.0  0.56909  0.09423  0.83056  1.0000
  S   S361      1.0  0.56899  0.07630  0.85677  1.0000
  S   S362      1.0  0.53972  0.11589  0.82579  1.0000
  Fe  Fe179     1.0  0.60113  0.08497  0.85548  1.0000
  S   S363      1.0  0.60510  0.09758  0.87991  1.0000
  Fe  Fe180     1.0  0.58398  0.04842  0.84367  1.0000
  S   S364      1.0  0.56927  0.01851  0.84802  1.0000
  H   H1439     1.0  0.73892  0.38522  0.95866  1.0000
  Fe  Fe181     1.0  0.60116  0.21393  0.94383  1.0000
  S   S365      1.0  0.59880  0.24866  0.93806  1.0000
  S   S366      1.0  0.58931  0.20172  0.97111  1.0000
  Fe  Fe182     1.0  0.61638  0.20739  0.90624  1.0000
  S   S367      1.0  0.61514  0.24208  0.89789  1.0000
  S   S368      1.0  0.62819  0.18757  0.88448  1.0000
  Fe  Fe183     1.0  0.62989  0.24295  0.92168  1.0000
  S   S369      1.0  0.65824  0.25750  0.92570  1.0000
  Fe  Fe184     1.0  0.58432  0.24439  0.91501  1.0000
  S   S370      1.0  0.55425  0.26473  0.90899  1.0000
  S   S371      1.0  0.63321  0.20803  0.92899  1.0000
  S   S372      1.0  0.58462  0.20992  0.92183  1.0000
  Fe  Fe185     1.0  0.75964  0.33983  0.92911  1.0000
  S   S373      1.0  0.72823  0.35965  0.93111  1.0000
  S   S374      1.0  0.76588  0.31810  0.95328  1.0000
  Fe  Fe186     1.0  0.77183  0.35777  0.89179  1.0000
  S   S375      1.0  0.74085  0.37877  0.89132  1.0000
  S   S376      1.0  0.79297  0.36273  0.86626  1.0000
  Fe  Fe187     1.0  0.74563  0.38559  0.91730  1.0000
  S   S377      1.0  0.74374  0.41592  0.92876  1.0000
  Fe  Fe188     1.0  0.72635  0.35065  0.90509  1.0000
  S   S378      1.0  0.69702  0.34160  0.89699  1.0000
  S   S379      1.0  0.77732  0.36618  0.91713  1.0000
  S   S380      1.0  0.75698  0.32927  0.90373  1.0000
  S   S381      1.0  0.90891  0.43133  0.79325  1.0000
  S   S382      1.0  0.92485  0.38446  0.82749  1.0000
  C   C895      1.0  0.79348  0.35405  0.97815  1.0000
  H   H1440     1.0  0.72955  0.47165  0.88093  1.0000
  S   S383      1.0  0.94067  0.33949  0.81319  1.0000
  C   C896      1.0  0.95505  0.31900  0.88403  1.0000
  Fe  Fe189     1.0  0.90998  0.35722  0.82366  1.0000
  S   S384      1.0  0.89205  0.34234  0.84803  1.0000
  Fe  Fe190     1.0  0.95492  0.36775  0.81537  1.0000
  H   H1441     1.0  0.72364  0.42193  0.96287  1.0000
  H   H1442     1.0  0.52930  0.04765  0.86702  1.0000
  H   H1443     1.0  0.87581  0.47850  0.85878  1.0000
  H   H1444     1.0  0.93402  0.31342  0.84842  1.0000
  H   H1445     1.0  0.56151  0.18414  0.86476  1.0000
  H   H1446     1.0  0.52496  0.07572  0.86421  1.0000
  C   C897      1.0  0.93651  0.45210  0.82874  1.0000
  C   C898      1.0  0.72232  0.41705  0.97704  1.0000
  C   C899      1.0  0.68816  0.20375  0.91489  1.0000
  H   H1447     1.0  0.93805  0.44814  0.84230  1.0000
  C   C900      1.0  0.77369  0.32986  0.96942  1.0000
  C   C901      1.0  0.78742  0.34471  0.96516  1.0000
  H   H1448     1.0  0.51950  0.15044  0.87814  1.0000
  C   C902      1.0  0.54438  0.15918  0.84829  1.0000
  C   C903      1.0  0.92557  0.44031  0.82070  1.0000
  H   H1449     1.0  0.79367  0.34871  0.95186  1.0000
  H   H1450     1.0  0.49731  0.12076  0.81876  1.0000
  C   C904      1.0  0.55857  0.13215  0.86932  1.0000
  C   C905      1.0  0.74390  0.44124  0.91727  1.0000
  C   C906      1.0  0.73575  0.44689  0.90161  1.0000
  C   C907      1.0  0.75959  0.40616  0.97554  1.0000
  C   C908      1.0  0.94278  0.47446  0.80188  1.0000
  H   H1451     1.0  0.61392  0.00232  0.84321  1.0000
  C   C909      1.0  0.75188  0.45628  0.92441  1.0000
  H   H1452     1.0  0.72885  0.43566  0.89632  1.0000
  S   S385      1.0  0.58124  0.06596  0.81750  1.0000
  H   H1453     1.0  0.78739  0.45686  0.86416  1.0000
  H   H1454     1.0  0.75794  0.45215  0.93665  1.0000
  C   C910      1.0  0.82059  0.35703  0.86178  1.0000
  C   C911      1.0  0.83307  0.34639  0.87412  1.0000
  C   C912      1.0  0.85495  0.34206  0.86976  1.0000
  C   C913      1.0  0.86456  0.34864  0.85316  1.0000
  C   C914      1.0  0.85210  0.35965  0.84096  1.0000
  C   C915      1.0  0.83023  0.36365  0.84522  1.0000
  H   H1455     1.0  0.82585  0.34115  0.88689  1.0000
  H   H1456     1.0  0.86445  0.33346  0.87927  1.0000
  H   H1457     1.0  0.85926  0.36468  0.82812  1.0000
  H   H1458     1.0  0.82070  0.37177  0.83555  1.0000
  C   C916      1.0  0.66920  0.28062  0.91699  1.0000
  C   C917      1.0  0.68505  0.28608  0.92498  1.0000
  C   C918      1.0  0.69399  0.30445  0.91883  1.0000
  C   C919      1.0  0.68707  0.31769  0.90463  1.0000
  C   C920      1.0  0.67141  0.31205  0.89646  1.0000
  C   C921      1.0  0.66269  0.29350  0.90247  1.0000
  H   H1459     1.0  0.69040  0.27615  0.93612  1.0000
  H   H1460     1.0  0.70607  0.30851  0.92521  1.0000
  H   H1461     1.0  0.66620  0.32204  0.88531  1.0000
  H   H1462     1.0  0.65113  0.28909  0.89579  1.0000
  H   H1463     1.0  0.96585  0.32906  0.88716  1.0000
  C   C922      1.0  0.62650  0.20713  0.98112  1.0000
  H   H1464     1.0  0.67875  0.19063  0.91672  1.0000
  H   H1465     1.0  0.96202  0.30244  0.88717  1.0000
  H   H1466     1.0  0.71809  0.18995  0.89049  1.0000
  C   C923      1.0  0.53206  0.15997  0.87850  1.0000
  H   H1467     1.0  0.63233  0.20938  0.96757  1.0000
  H   H1468     1.0  0.92702  0.34929  0.87020  1.0000
  C   C924      1.0  0.94485  0.46937  0.81940  1.0000
  H   H1469     1.0  0.86642  0.46968  0.84119  1.0000
  C   C925      1.0  0.74424  0.48231  0.90004  1.0000
  C   C926      1.0  0.53119  0.22007  0.88997  1.0000
  C   C927      1.0  0.54484  0.23183  0.89507  1.0000
  C   C928      1.0  0.53698  0.25025  0.90223  1.0000
  C   C929      1.0  0.51530  0.25700  0.90401  1.0000
  C   C930      1.0  0.52249  0.05988  0.83470  1.0000
  H   H1470     1.0  0.53752  0.20589  0.88449  1.0000
  H   H1471     1.0  0.56151  0.22676  0.89320  1.0000
  C   C931      1.0  0.87881  0.47755  0.84469  1.0000
  H   H1472     1.0  0.54674  0.12220  0.86796  1.0000
  C   C932      1.0  0.61054  0.12313  0.88068  1.0000
  C   C933      1.0  0.60621  0.13148  0.89643  1.0000
  C   C934      1.0  0.61089  0.15146  0.89770  1.0000
  C   C935      1.0  0.62039  0.16312  0.88327  1.0000
  C   C936      1.0  0.62452  0.15485  0.86748  1.0000
  C   C937      1.0  0.61941  0.13506  0.86613  1.0000
  H   H1473     1.0  0.59941  0.12233  0.90778  1.0000
  H   H1474     1.0  0.60771  0.15757  0.90995  1.0000
  H   H1475     1.0  0.63193  0.16371  0.85626  1.0000
  H   H1476     1.0  0.62296  0.12878  0.85396  1.0000
  H   H1477     1.0  0.80509  0.44870  0.88009  1.0000
  H   H1478     1.0  0.50528  0.02865  0.85516  1.0000
  C   C938      1.0  0.52891  0.10947  0.80859  1.0000
  S   S386      1.0  0.63590  0.06882  0.79548  1.0000
  C   C939      1.0  0.92312  0.44563  0.80326  1.0000
  H   H1479     1.0  0.94337  0.29333  0.86465  1.0000
  N   N91       1.0  0.59916  0.31377  0.91592  1.0000
  C   C940      1.0  0.58964  0.33167  0.92523  1.0000
  C   C941      1.0  0.61402  0.29977  0.92629  1.0000
  C   C942      1.0  0.61041  0.32143  0.89915  1.0000
  C   C943      1.0  0.58262  0.30215  0.91302  1.0000
  H   H1480     1.0  0.57831  0.34256  0.91777  1.0000
  H   H1481     1.0  0.60178  0.34070  0.92763  1.0000
  H   H1482     1.0  0.58102  0.32638  0.93793  1.0000
  H   H1483     1.0  0.62098  0.28580  0.91986  1.0000
  H   H1484     1.0  0.62719  0.30769  0.92832  1.0000
  H   H1485     1.0  0.60624  0.29401  0.93920  1.0000
  H   H1486     1.0  0.61726  0.30833  0.89161  1.0000
  H   H1487     1.0  0.62350  0.32969  0.90084  1.0000
  H   H1488     1.0  0.59977  0.33244  0.89114  1.0000
  H   H1489     1.0  0.58925  0.28861  0.90589  1.0000
  H   H1490     1.0  0.57092  0.31212  0.90534  1.0000
  H   H1491     1.0  0.57395  0.29577  0.92536  1.0000
  C   C944      1.0  0.60519  0.99044  0.84098  1.0000
  H   H1492     1.0  0.53621  0.15745  0.89187  1.0000
  H   H1493     1.0  0.57263  0.00142  0.80707  1.0000
  H   H1494     1.0  0.57012  0.03801  0.79472  1.0000
  C   C945      1.0  0.56702  0.16710  0.86724  1.0000
  H   H1495     1.0  0.61974  0.00415  0.80457  1.0000
  C   C946      1.0  0.50720  0.11296  0.80871  1.0000
  Fe  Fe191     1.0  0.61281  0.07419  0.81904  1.0000
  H   H1496     1.0  0.66092  0.20801  0.89201  1.0000
  N   N92       1.0  0.55051  0.15460  0.86584  1.0000
  N   N93       1.0  0.69138  0.21277  0.89660  1.0000
  C   C947      1.0  0.67089  0.22064  0.89051  1.0000
  C   C948      1.0  0.70378  0.23018  0.89484  1.0000
  H   H1497     1.0  0.67262  0.22717  0.87667  1.0000
  H   H1498     1.0  0.66213  0.23322  0.89787  1.0000
  H   H1499     1.0  0.69571  0.24265  0.90269  1.0000
  H   H1500     1.0  0.70629  0.23758  0.88125  1.0000
  H   H1501     1.0  0.71939  0.22484  0.89925  1.0000
  H   H1502     1.0  0.69344  0.18326  0.88712  1.0000
  C   C949      1.0  0.50155  0.24509  0.89898  1.0000
  N   N94       1.0  0.95159  0.32368  0.86575  1.0000
  H   H1503     1.0  0.94007  0.32174  0.89270  1.0000
  C   C950      1.0  0.94239  0.34576  0.86220  1.0000
  C   C951      1.0  0.93707  0.31016  0.86210  1.0000
  C   C952      1.0  0.97178  0.31993  0.85464  1.0000
  H   H1504     1.0  0.53309  0.04477  0.83589  1.0000
  H   H1505     1.0  0.70642  0.41259  0.98120  1.0000
  H   H1506     1.0  0.57211  0.16393  0.88032  1.0000
  H   H1507     1.0  0.50062  0.09517  0.84552  1.0000
  H   H1508     1.0  0.93948  0.34955  0.84859  1.0000
  C   C953      1.0  0.50953  0.22654  0.89196  1.0000
  H   H1509     1.0  0.77264  0.40463  0.86392  1.0000
  H   H1510     1.0  0.92153  0.31291  0.87005  1.0000
  C   C954      1.0  0.54161  0.09970  0.79536  1.0000
  H   H1511     1.0  0.96972  0.32354  0.84074  1.0000
  H   H1512     1.0  0.97927  0.30343  0.85688  1.0000
  H   H1513     1.0  0.59861  0.02261  0.81273  1.0000
  N   N95       1.0  0.73881  0.39958  0.98146  1.0000
  H   H1514     1.0  0.72110  0.37634  0.97677  1.0000
  S   S387      1.0  0.98335  0.36691  0.82888  1.0000
  H   H1515     1.0  0.81067  0.40218  0.85717  1.0000
  H   H1516     1.0  0.55773  0.15467  0.83841  1.0000
  S   S388      1.0  0.90144  0.37113  0.79733  1.0000
  H   H1517     1.0  0.98300  0.33012  0.85689  1.0000
  H   H1518     1.0  0.77237  0.39359  0.97920  1.0000
  C   C955      1.0  0.73595  0.46734  0.89302  1.0000
  H   H1519     1.0  0.89399  0.46727  0.84212  1.0000
  S   S389      1.0  0.49330  0.21096  0.88520  1.0000
  H   H1520     1.0  0.80432  0.36532  0.97478  1.0000
  C   C956      1.0  0.73673  0.38151  0.97293  1.0000
  C   C957      1.0  0.49480  0.04371  0.85275  1.0000
  Fe  Fe192     1.0  0.91879  0.39709  0.80068  1.0000
  C   C958      1.0  0.79038  0.44581  0.87593  1.0000
  H   H1521     1.0  0.77751  0.44995  0.88625  1.0000
  C   C959      1.0  0.60853  0.01821  0.80077  1.0000
  H   H1522     1.0  0.95300  0.35659  0.86439  1.0000
  N   N96       1.0  0.50663  0.06164  0.85002  1.0000
  H   H1523     1.0  0.70540  0.20275  0.87230  1.0000
  H   H1524     1.0  0.78019  0.41309  0.89910  1.0000
  H   H1525     1.0  0.61782  0.03114  0.79567  1.0000
  H   H1526     1.0  0.53157  0.15038  0.84693  1.0000
  H   H1527     1.0  0.70329  0.19767  0.91994  1.0000
  H   H1528     1.0  0.53244  0.07252  0.83288  1.0000
  H   H1529     1.0  0.75819  0.42441  0.87605  1.0000
  C   C960      1.0  0.70262  0.19647  0.88617  1.0000
  H   H1530     1.0  0.80814  0.41205  0.89468  1.0000
  H   H1531     1.0  0.50911  0.27129  0.90946  1.0000
  N   N97       1.0  0.79155  0.42386  0.87289  1.0000
  C   C961      1.0  0.79397  0.41001  0.88921  1.0000
  C   C962      1.0  0.51712  0.06161  0.86533  1.0000
  H   H1532     1.0  0.56312  0.12801  0.88255  1.0000
  C   C963      1.0  0.93175  0.46273  0.79385  1.0000
  S   S390      1.0  0.60034  0.10453  0.82970  1.0000
  H   H1533     1.0  0.67967  0.21562  0.92314  1.0000
  H   H1534     1.0  0.53865  0.17608  0.84506  1.0000
  C   C964      1.0  0.77216  0.42100  0.86650  1.0000
  H   H1535     1.0  0.82470  0.41982  0.86450  1.0000
  H   H1536     1.0  0.76962  0.43137  0.85431  1.0000
  H   H1537     1.0  0.52512  0.17663  0.87585  1.0000
  C   C965      1.0  0.75214  0.47668  0.91582  1.0000
  C   C966      1.0  0.80969  0.41853  0.85995  1.0000
  H   H1538     1.0  0.79554  0.39332  0.88725  1.0000
  H   H1539     1.0  0.80853  0.42884  0.84753  1.0000
  H   H1540     1.0  0.57276  0.12768  0.86021  1.0000
  H   H1541     1.0  0.91848  0.42752  0.82815  1.0000
  H   H1542     1.0  0.58116  0.16345  0.85786  1.0000
  C   C967      1.0  0.58332  0.99430  0.84268  1.0000
  H   H1543     1.0  0.55842  0.09746  0.79496  1.0000
  H   H1544     1.0  0.76209  0.41006  0.96128  1.0000
  H   H1545     1.0  0.51510  0.06106  0.82272  1.0000
  H   H1546     1.0  0.50575  0.06161  0.87728  1.0000
  C   C968      1.0  0.76598  0.32448  0.98676  1.0000
  C   C969      1.0  0.49812  0.10575  0.79618  1.0000
  C   C970      1.0  0.58356  0.99716  0.79552  1.0000
  C   C971      1.0  0.49218  0.08135  0.84734  1.0000
  H   H1547     1.0  0.52835  0.21311  0.97261  1.0000
  H   H1548     1.0  0.74863  0.36795  0.97628  1.0000
  C   C972      1.0  0.60590  0.20328  0.98636  1.0000
  H   H1549     1.0  0.55275  0.22568  0.98874  1.0000
  S   S391      1.0  0.95587  0.48578  0.83005  1.0000
  C   C973      1.0  0.51623  0.21464  0.98404  1.0000
  H   H1550     1.0  0.50701  0.23048  0.98221  1.0000
  H   H1551     1.0  0.65587  0.20993  0.98934  1.0000
  H   H1552     1.0  0.76149  0.42012  0.98135  1.0000
  H   H1553     1.0  0.72340  0.43096  0.98326  1.0000
  H   H1554     1.0  0.50530  0.20317  0.98402  1.0000
  H   H1555     1.0  0.75543  0.31292  0.99011  1.0000
  Fe  Fe193     1.0  0.60506  0.72485  0.05460  1.0000
  S   S392      1.0  0.60861  0.68976  0.05805  1.0000
  S   S393      1.0  0.60022  0.74452  0.02913  1.0000
  Fe  Fe194     1.0  0.60432  0.72811  0.09305  1.0000
  S   S394      1.0  0.60725  0.69308  0.09917  1.0000
  S   S395      1.0  0.60243  0.74352  0.11758  1.0000
  Fe  Fe195     1.0  0.63187  0.69140  0.07618  1.0000
  S   S396      1.0  0.66536  0.67494  0.07843  1.0000
  Fe  Fe196     1.0  0.58383  0.69449  0.08072  1.0000
  S   S397      1.0  0.55509  0.67842  0.08914  1.0000
  S   S398      1.0  0.63013  0.72653  0.07083  1.0000
  S   S399      1.0  0.57897  0.72942  0.07637  1.0000
  H   H1556     1.0  0.57729  0.71481  0.00521  1.0000
  Fe  Fe197     1.0  0.59387  0.84919  0.16030  1.0000
  S   S400      1.0  0.56341  0.86996  0.16648  1.0000
  S   S401      1.0  0.59978  0.83692  0.13409  1.0000
  H   H1557     1.0  0.67035  0.72044  0.13952  1.0000
  C   C974      1.0  0.63452  0.70728  0.99539  1.0000
  H   H1558     1.0  0.88510  0.62884  0.15939  1.0000
  Fe  Fe198     1.0  0.58206  0.89134  0.17556  1.0000
  H   H1559     1.0  0.85060  0.50996  0.10070  1.0000
  H   H1560     1.0  0.99029  0.48729  0.14594  1.0000
  S   S402      1.0  0.61273  0.87244  0.16697  1.0000
  H   H1561     1.0  0.51520  0.82874  0.11129  1.0000
  Fe  Fe199     1.0  0.74225  0.56497  0.07842  1.0000
  S   S403      1.0  0.76901  0.58353  0.07155  1.0000
  S   S404      1.0  0.70769  0.57930  0.08226  1.0000
  Fe  Fe200     1.0  0.77139  0.52324  0.07357  1.0000
  S   S405      1.0  0.79979  0.53967  0.06568  1.0000
  Fe  Fe201     1.0  0.78739  0.55781  0.08791  1.0000
  S   S406      1.0  0.80448  0.56100  0.11051  1.0000
  Fe  Fe202     1.0  0.77879  0.56341  0.05003  1.0000
  S   S407      1.0  0.78576  0.57868  0.02243  1.0000
  S   S408      1.0  0.75966  0.54046  0.09644  1.0000
  S   S409      1.0  0.75142  0.54575  0.05632  1.0000
  Fe  Fe203     1.0  0.92305  0.51172  0.17777  1.0000
  S   S410      1.0  0.93917  0.51432  0.15069  1.0000
  C   C975      1.0  0.50676  0.67761  0.05272  1.0000
  C   C976      1.0  0.61304  0.97214  0.18268  1.0000
  S   S411      1.0  0.93679  0.56432  0.15306  1.0000
  C   C977      1.0  0.52617  0.84055  0.10809  1.0000
  Fe  Fe204     1.0  0.91573  0.54327  0.14622  1.0000
  S   S412      1.0  0.90091  0.55099  0.12122  1.0000
  Fe  Fe205     1.0  0.95868  0.53492  0.15985  1.0000
  H   H1562     1.0  0.59760  0.75996  0.99361  1.0000
  S   S413      1.0  0.89815  0.53887  0.17279  1.0000
  C   C978      1.0  0.57850  0.96268  0.18270  1.0000
  H   H1563     1.0  0.54460  0.87237  0.11267  1.0000
  H   H1564     1.0  0.55938  0.81482  0.11855  1.0000
  H   H1565     1.0  0.64674  0.67601  0.11578  1.0000
  H   H1566     1.0  0.88519  0.57566  0.14875  1.0000
  H   H1567     1.0  0.63195  0.72032  0.14174  1.0000
  H   H1568     1.0  0.51500  0.72016  0.06940  1.0000
  C   C979      1.0  0.83149  0.55745  0.11308  1.0000
  C   C980      1.0  0.84732  0.55691  0.09909  1.0000
  C   C981      1.0  0.86850  0.55447  0.10185  1.0000
  C   C982      1.0  0.87414  0.55211  0.11859  1.0000
  C   C983      1.0  0.85831  0.55215  0.13260  1.0000
  C   C984      1.0  0.83713  0.55512  0.12981  1.0000
  H   H1569     1.0  0.84324  0.55881  0.08613  1.0000
  H   H1570     1.0  0.88060  0.55461  0.09091  1.0000
  H   H1571     1.0  0.86232  0.55020  0.14556  1.0000
  H   H1572     1.0  0.82500  0.55548  0.14073  1.0000
  C   C985      1.0  0.77909  0.56694  0.00562  1.0000
  C   C986      1.0  0.77300  0.54707  0.00872  1.0000
  C   C987      1.0  0.54768  0.82105  0.12894  1.0000
  H   H1573     1.0  0.77263  0.53849  0.02149  1.0000
  C   C988      1.0  0.60784  0.74519  0.99412  1.0000
  H   H1574     1.0  0.79463  0.50424  0.11225  1.0000
  C   C989      1.0  0.82610  0.50442  0.13091  1.0000
  C   C990      1.0  0.50650  0.80848  0.17317  1.0000
  H   H1575     1.0  0.72401  0.61801  0.00253  1.0000
  C   C991      1.0  0.86767  0.60798  0.12818  1.0000
  C   C992      1.0  0.51891  0.90572  0.18657  1.0000
  H   H1576     1.0  0.87608  0.64218  0.13973  1.0000
  H   H1577     1.0  0.52857  0.84958  0.14888  1.0000
  C   C993      1.0  0.58742  0.94326  0.17742  1.0000
  C   C994      1.0  0.49888  0.74780  0.10329  1.0000
  H   H1578     1.0  0.86772  0.62188  0.11822  1.0000
  H   H1579     1.0  0.54191  0.72537  0.99618  1.0000
  C   C995      1.0  0.62193  0.95249  0.17787  1.0000
  C   C996      1.0  0.60919  0.93811  0.17520  1.0000
  H   H1580     1.0  0.59505  0.69485  0.99530  1.0000
  H   H1581     1.0  0.89044  0.59047  0.16459  1.0000
  H   H1582     1.0  0.50830  0.73762  0.11275  1.0000
  H   H1583     1.0  0.61624  0.92322  0.17107  1.0000
  C   C997      1.0  0.67647  0.64813  0.08007  1.0000
  C   C998      1.0  0.69797  0.64288  0.08153  1.0000
  C   C999      1.0  0.70767  0.62192  0.08269  1.0000
  C   C1000     1.0  0.69600  0.60588  0.08222  1.0000
  C   C1001     1.0  0.67442  0.61111  0.08102  1.0000
  C   C1002     1.0  0.66471  0.63210  0.07991  1.0000
  H   H1584     1.0  0.70721  0.65513  0.08180  1.0000
  H   H1585     1.0  0.72417  0.61819  0.08398  1.0000
  H   H1586     1.0  0.66518  0.59885  0.08078  1.0000
  H   H1587     1.0  0.64813  0.63584  0.07889  1.0000
  C   C1003     1.0  0.60164  0.76971  0.12169  1.0000
  C   C1004     1.0  0.60467  0.78613  0.10852  1.0000
  C   C1005     1.0  0.60440  0.80651  0.11257  1.0000
  C   C1006     1.0  0.60097  0.81076  0.12978  1.0000
  C   C1007     1.0  0.59777  0.79437  0.14293  1.0000
  C   C1008     1.0  0.59820  0.77399  0.13889  1.0000
  H   H1588     1.0  0.60742  0.78311  0.09524  1.0000
  H   H1589     1.0  0.60688  0.81906  0.10229  1.0000
  H   H1590     1.0  0.59498  0.79737  0.15621  1.0000
  H   H1591     1.0  0.59577  0.76145  0.14919  1.0000
  C   C1009     1.0  0.51674  0.67365  0.08151  1.0000
  C   C1010     1.0  0.53687  0.67819  0.07478  1.0000
  C   C1011     1.0  0.54188  0.68265  0.05694  1.0000
  C   C1012     1.0  0.52696  0.68200  0.04593  1.0000
  H   H1592     1.0  0.51283  0.67003  0.09528  1.0000
  H   H1593     1.0  0.55737  0.68615  0.05166  1.0000
  H   H1594     1.0  0.53714  0.69871  0.00036  1.0000
  C   C1013     1.0  0.61240  0.73445  0.01013  1.0000
  C   C1014     1.0  0.62591  0.71554  0.01071  1.0000
  H   H1595     1.0  0.91432  0.60877  0.14216  1.0000
  H   H1596     1.0  0.62971  0.70730  0.02297  1.0000
  H   H1597     1.0  0.85121  0.60724  0.13415  1.0000
  S   S414      1.0  0.49631  0.80012  0.15660  1.0000
  S   S415      1.0  0.78087  0.48805  0.07503  1.0000
  N   N98       1.0  0.72462  0.61154  0.02988  1.0000
  C   C1015     1.0  0.70330  0.62268  0.03410  1.0000
  C   C1016     1.0  0.72365  0.58902  0.03045  1.0000
  C   C1017     1.0  0.73800  0.61448  0.04258  1.0000
  C   C1018     1.0  0.73366  0.61991  0.01249  1.0000
  C   C1019     1.0  0.76781  0.53797  0.99520  1.0000
  H   H1598     1.0  0.69281  0.62117  0.02464  1.0000
  H   H1599     1.0  0.70343  0.63963  0.03441  1.0000
  C   C1020     1.0  0.53615  0.81833  0.18354  1.0000
  S   S416      1.0  0.57096  0.92625  0.17306  1.0000
  H   H1600     1.0  0.87277  0.59397  0.12132  1.0000
  H   H1601     1.0  0.75455  0.60759  0.03911  1.0000
  H   H1602     1.0  0.55624  0.82160  0.14000  1.0000
  H   H1603     1.0  0.73782  0.63128  0.04363  1.0000
  H   H1604     1.0  0.74977  0.61168  0.00904  1.0000
  H   H1605     1.0  0.73482  0.63682  0.01174  1.0000
  H   H1606     1.0  0.51557  0.89473  0.15601  1.0000
  N   N99       1.0  0.49600  0.73631  0.08926  1.0000
  H   H1607     1.0  0.86395  0.59004  0.16107  1.0000
  N   N100      1.0  0.82680  0.49335  0.11580  1.0000
  H   H1608     1.0  0.64487  0.69258  0.99593  1.0000
  H   H1609     1.0  0.71697  0.58221  0.04348  1.0000
  C   C1021     1.0  0.57819  0.70018  0.99930  1.0000
  C   C1022     1.0  0.59123  0.97712  0.18528  1.0000
  H   H1610     1.0  0.53106  0.68488  0.03216  1.0000
  H   H1611     1.0  0.53651  0.80954  0.13314  1.0000
  H   H1612     1.0  0.59225  0.98234  0.14806  1.0000
  H   H1613     1.0  0.69600  0.61635  0.04701  1.0000
  H   H1614     1.0  0.73952  0.58012  0.02752  1.0000
  H   H1615     1.0  0.85858  0.62887  0.15575  1.0000
  C   C1023     1.0  0.88021  0.59045  0.15450  1.0000
  C   C1024     1.0  0.51664  0.72895  0.08003  1.0000
  H   H1616     1.0  0.56165  0.96650  0.18488  1.0000
  H   H1617     1.0  0.50901  0.83871  0.14092  1.0000
  H   H1618     1.0  0.98940  0.57127  0.15853  1.0000
  C   C1025     1.0  0.52114  0.84923  0.13717  1.0000
  C   C1026     1.0  0.50498  0.88807  0.16707  1.0000
  H   H1619     1.0  0.81493  0.51921  0.13007  1.0000
  C   C1027     1.0  0.90338  0.60824  0.13274  1.0000
  H   H1620     1.0  0.53867  0.79838  0.16373  1.0000
  Fe  Fe206     1.0  0.92082  0.55746  0.18003  1.0000
  N   N101      1.0  0.88156  0.60870  0.14118  1.0000
  H   H1621     1.0  0.90502  0.62168  0.12248  1.0000
  H   H1622     1.0  0.76335  0.52246  0.99776  1.0000
  C   C1028     1.0  0.87503  0.62803  0.14935  1.0000
  H   H1623     1.0  0.63879  0.94852  0.17586  1.0000
  H   H1624     1.0  0.50713  0.76149  0.09823  1.0000
  H   H1625     1.0  0.71376  0.58607  0.02104  1.0000
  C   C1029     1.0  0.49296  0.81923  0.18534  1.0000
  H   H1626     1.0  0.73268  0.60671  0.05555  1.0000
  H   H1627     1.0  0.90882  0.59369  0.12658  1.0000
  H   H1628     1.0  0.51292  0.87249  0.17218  1.0000
  H   H1629     1.0  0.84175  0.50851  0.13197  1.0000
  H   H1630     1.0  0.53765  0.83588  0.09698  1.0000
  H   H1631     1.0  0.51293  0.86514  0.13332  1.0000
  H   H1632     1.0  0.65183  0.73208  0.11393  1.0000
  H   H1633     1.0  0.55286  0.81798  0.18272  1.0000
  C   C1030     1.0  0.52813  0.80722  0.17279  1.0000
  C   C1031     1.0  0.50162  0.67373  0.07056  1.0000
  H   H1634     1.0  0.62218  0.70143  0.13212  1.0000
  N   N102      1.0  0.49954  0.90207  0.18059  1.0000
  H   H1635     1.0  0.55954  0.85898  0.12931  1.0000
  C   C1032     1.0  0.65464  0.71556  0.11119  1.0000
  H   H1636     1.0  0.52668  0.71833  0.08881  1.0000
  H   H1637     1.0  0.82423  0.52147  0.09798  1.0000
  N   N103      1.0  0.65558  0.70071  0.12712  1.0000
  C   C1033     1.0  0.63552  0.70401  0.13848  1.0000
  C   C1034     1.0  0.67281  0.70425  0.13604  1.0000
  H   H1638     1.0  0.63562  0.69323  0.15072  1.0000
  H   H1639     1.0  0.64157  0.71352  0.10440  1.0000
  H   H1640     1.0  0.66924  0.71322  0.10201  1.0000
  H   H1641     1.0  0.68813  0.70200  0.12774  1.0000
  H   H1642     1.0  0.67403  0.69328  0.14812  1.0000
  H   H1643     1.0  0.51689  0.85579  0.10383  1.0000
  H   H1644     1.0  0.52533  0.74214  0.07432  1.0000
  C   C1035     1.0  0.65935  0.67910  0.12273  1.0000
  H   H1645     1.0  0.67430  0.67609  0.11406  1.0000
  H   H1646     1.0  0.66004  0.66739  0.13440  1.0000
  H   H1647     1.0  0.56502  0.85103  0.10828  1.0000
  S   S417      1.0  0.59250  0.83028  0.18653  1.0000
  C   C1036     1.0  0.55210  0.85676  0.11806  1.0000
  N   N104      1.0  0.53678  0.84190  0.12305  1.0000
  H   H1648     1.0  0.49794  0.69618  0.99615  1.0000
  H   H1649     1.0  0.52952  0.91298  0.17582  1.0000
  H   H1650     1.0  0.83537  0.49846  0.08835  1.0000
  H   H1651     1.0  0.57239  0.68821  0.00961  1.0000
  C   C1037     1.0  0.83467  0.50634  0.10001  1.0000
  H   H1652     1.0  0.82109  0.49469  0.14312  1.0000
  C   C1038     1.0  0.80551  0.48936  0.11433  1.0000
  H   H1653     1.0  0.49489  0.70668  0.10508  1.0000
  H   H1654     1.0  0.56281  0.98108  0.13234  1.0000
  H   H1655     1.0  0.49756  0.92961  0.16199  1.0000
  S   S418      1.0  0.94418  0.52978  0.18734  1.0000
  H   H1656     1.0  0.89865  0.49554  0.16159  1.0000
  H   H1657     1.0  0.66341  0.92779  0.31656  1.0000
  H   H1658     1.0  0.88780  0.71773  0.35042  1.0000
  H   H1659     1.0  0.86400  0.92059  0.36657  1.0000
  H   H1660     1.0  0.49532  0.97433  0.31739  1.0000
  H   H1661     1.0  0.50997  0.95447  0.36105  1.0000
  Fe  Fe207     1.0  0.58558  0.88850  0.32176  1.0000
  S   S419      1.0  0.59638  0.88519  0.29405  1.0000
  S   S420      1.0  0.55112  0.89620  0.33167  1.0000
  Fe  Fe208     1.0  0.63032  0.87638  0.33180  1.0000
  S   S421      1.0  0.64438  0.87122  0.30472  1.0000
  S   S422      1.0  0.64652  0.87419  0.35583  1.0000
  Fe  Fe209     1.0  0.62336  0.90078  0.29707  1.0000
  S   S423      1.0  0.63478  0.92377  0.27523  1.0000
  Fe  Fe210     1.0  0.61603  0.85598  0.30395  1.0000
  S   S424      1.0  0.61229  0.82914  0.29041  1.0000
  S   S425      1.0  0.61094  0.90724  0.32402  1.0000
  S   S426      1.0  0.60372  0.85822  0.33177  1.0000
  H   H1662     1.0  0.85847  0.68392  0.38408  1.0000
  S   S427      1.0  0.63537  0.85026  0.20979  1.0000
  H   H1663     1.0  0.87179  0.90810  0.34739  1.0000
  S   S428      1.0  0.93867  0.72621  0.36436  1.0000
  S   S429      1.0  0.94734  0.67336  0.34932  1.0000
  H   H1664     1.0  0.65688  0.95956  0.33179  1.0000
  H   H1665     1.0  0.63003  0.89255  0.24815  1.0000
  H   H1666     1.0  0.91132  0.53772  0.21821  1.0000
  Fe  Fe211     1.0  0.94403  0.56125  0.31990  1.0000
  S   S430      1.0  0.97568  0.55904  0.30416  1.0000
  S   S431      1.0  0.93689  0.57957  0.34302  1.0000
  Fe  Fe212     1.0  0.93074  0.52757  0.30223  1.0000
  S   S432      1.0  0.96139  0.52309  0.28541  1.0000
  S   S433      1.0  0.90850  0.50710  0.29656  1.0000
  Fe  Fe213     1.0  0.97553  0.52447  0.30907  1.0000
  H   H1667     1.0  0.72118  0.85283  0.33549  1.0000
  Fe  Fe214     1.0  0.95841  0.55790  0.28187  1.0000
  S   S434      1.0  0.96946  0.57250  0.25519  1.0000
  S   S435      1.0  0.94522  0.52624  0.32643  1.0000
  S   S436      1.0  0.92644  0.56276  0.29703  1.0000
  C   C1039     1.0  0.95199  0.57418  0.23996  1.0000
  C   C1040     1.0  0.95989  0.56982  0.22324  1.0000
  C   C1041     1.0  0.94650  0.57181  0.21061  1.0000
  C   C1042     1.0  0.92512  0.57850  0.21454  1.0000
  C   C1043     1.0  0.91713  0.58296  0.23125  1.0000
  C   C1044     1.0  0.93051  0.58055  0.24402  1.0000
  H   H1668     1.0  0.90773  0.70174  0.36159  1.0000
  H   H1669     1.0  0.92183  0.48682  0.24531  1.0000
  H   H1670     1.0  0.90058  0.58820  0.23435  1.0000
  H   H1671     1.0  0.92433  0.58416  0.25687  1.0000
  H   H1672     1.0  0.51899  0.80029  0.25464  1.0000
  H   H1673     1.0  0.81514  0.90369  0.35818  1.0000
  C   C1045     1.0  0.66680  0.91855  0.32904  1.0000
  H   H1674     1.0  0.92886  0.50177  0.22488  1.0000
  H   H1675     1.0  0.50888  0.88830  0.34428  1.0000
  C   C1046     1.0  0.50819  0.80997  0.24601  1.0000
  H   H1676     1.0  0.64567  0.94468  0.35075  1.0000
  C   C1047     1.0  0.94517  0.64697  0.34799  1.0000
  C   C1048     1.0  0.94176  0.63251  0.36260  1.0000
  C   C1049     1.0  0.93928  0.61195  0.36081  1.0000
  C   C1050     1.0  0.94040  0.60555  0.34445  1.0000
  C   C1051     1.0  0.94397  0.61998  0.32982  1.0000
  C   C1052     1.0  0.94626  0.64060  0.33162  1.0000
  H   H1677     1.0  0.89324  0.50153  0.26596  1.0000
  H   H1678     1.0  0.93652  0.60088  0.37220  1.0000
  H   H1679     1.0  0.94461  0.61534  0.31717  1.0000
  H   H1680     1.0  0.94868  0.65175  0.32023  1.0000
  H   H1681     1.0  0.55453  0.78216  0.33874  1.0000
  C   C1053     1.0  0.61826  0.83547  0.26800  1.0000
  C   C1054     1.0  0.63599  0.84492  0.26129  1.0000
  C   C1055     1.0  0.64126  0.84909  0.24340  1.0000
  C   C1056     1.0  0.62835  0.84468  0.23214  1.0000
  C   C1057     1.0  0.61018  0.83591  0.23884  1.0000
  C   C1058     1.0  0.60536  0.83094  0.25675  1.0000
  H   H1682     1.0  0.64605  0.84838  0.26988  1.0000
  H   H1683     1.0  0.65537  0.85577  0.23827  1.0000
  H   H1684     1.0  0.60020  0.83242  0.23020  1.0000
  H   H1685     1.0  0.59161  0.82369  0.26187  1.0000
  C   C1059     1.0  0.53340  0.88399  0.32308  1.0000
  C   C1060     1.0  0.53907  0.87580  0.30745  1.0000
  C   C1061     1.0  0.52526  0.86522  0.30119  1.0000
  C   C1062     1.0  0.50547  0.86304  0.31036  1.0000
  H   H1686     1.0  0.62192  0.93986  0.24157  1.0000
  C   C1063     1.0  0.51338  0.88226  0.33206  1.0000
  H   H1687     1.0  0.55423  0.87735  0.30024  1.0000
  H   H1688     1.0  0.53006  0.85850  0.28929  1.0000
  H   H1689     1.0  0.85166  0.88159  0.39018  1.0000
  C   C1064     1.0  0.49938  0.87193  0.32567  1.0000
  H   H1690     1.0  0.70714  0.92369  0.32699  1.0000
  C   C1065     1.0  0.67694  0.95800  0.28454  1.0000
  C   C1066     1.0  0.66755  0.94336  0.27825  1.0000
  C   C1067     1.0  0.64621  0.94228  0.28297  1.0000
  C   C1068     1.0  0.63417  0.95604  0.29376  1.0000
  S   S437      1.0  0.57969  0.87541  0.20261  1.0000
  C   C1069     1.0  0.86621  0.90533  0.36141  1.0000
  H   H1691     1.0  0.67688  0.93261  0.27000  1.0000
  H   H1692     1.0  0.61765  0.95518  0.29743  1.0000
  N   N105      1.0  0.90591  0.51832  0.24232  1.0000
  Fe  Fe215     1.0  0.94624  0.69155  0.37209  1.0000
  H   H1693     1.0  0.55729  0.83919  0.32887  1.0000
  H   H1694     1.0  0.63259  0.94219  0.21920  1.0000
  H   H1695     1.0  0.57623  0.79466  0.34149  1.0000
  H   H1696     1.0  0.49435  0.87720  0.20100  1.0000
  H   H1697     1.0  0.97635  0.56471  0.22005  1.0000
  H   H1698     1.0  0.82672  0.92557  0.36132  1.0000
  C   C1070     1.0  0.70169  0.86292  0.37610  1.0000
  C   C1071     1.0  0.68025  0.86724  0.37404  1.0000
  C   C1072     1.0  0.67349  0.86675  0.35804  1.0000
  C   C1073     1.0  0.68838  0.86158  0.34414  1.0000
  H   H1699     1.0  0.53153  0.79784  0.31662  1.0000
  H   H1700     1.0  0.56826  0.78130  0.30763  1.0000
  H   H1701     1.0  0.51766  0.83180  0.26983  1.0000
  H   H1702     1.0  0.68343  0.86106  0.33178  1.0000
  S   S438      1.0  0.74377  0.85185  0.36407  1.0000
  C   C1074     1.0  0.57344  0.79666  0.30771  1.0000
  H   H1703     1.0  0.56763  0.83813  0.30658  1.0000
  C   C1075     1.0  0.61470  0.90005  0.24403  1.0000
  H   H1704     1.0  0.82508  0.88575  0.38610  1.0000
  C   C1076     1.0  0.66066  0.94924  0.34369  1.0000
  S   S439      1.0  0.90828  0.58049  0.19876  1.0000
  C   C1077     1.0  0.69539  0.93737  0.33015  1.0000
  H   H1705     1.0  0.51943  0.96328  0.30605  1.0000
  N   N106      1.0  0.55967  0.80901  0.32027  1.0000
  C   C1078     1.0  0.62856  0.90356  0.21390  1.0000
  C   C1079     1.0  0.89233  0.66580  0.36483  1.0000
  H   H1706     1.0  0.68670  0.92639  0.36453  1.0000
  C   C1080     1.0  0.50762  0.93634  0.33336  1.0000
  S   S440      1.0  0.79088  0.86967  0.37622  1.0000
  Fe  Fe216     1.0  0.56341  0.85273  0.19306  1.0000
  H   H1707     1.0  0.83570  0.86827  0.35989  1.0000
  H   H1708     1.0  0.98552  0.62666  0.31040  1.0000
  N   N107      1.0  0.84660  0.89602  0.36458  1.0000
  H   H1709     1.0  0.69249  0.94721  0.31781  1.0000
  N   N108      1.0  0.88082  0.68704  0.36126  1.0000
  C   C1081     1.0  0.86528  0.68676  0.34953  1.0000
  C   C1082     1.0  0.89575  0.70142  0.35309  1.0000
  H   H1710     1.0  0.91453  0.54088  0.25621  1.0000
  H   H1711     1.0  0.51110  0.92468  0.34466  1.0000
  H   H1712     1.0  0.51402  0.92879  0.32160  1.0000
  H   H1713     1.0  0.90056  0.65987  0.35276  1.0000
  H   H1714     1.0  0.85634  0.70258  0.34658  1.0000
  C   C1083     1.0  0.88814  0.51382  0.25554  1.0000
  H   H1715     1.0  0.87890  0.89492  0.36771  1.0000
  H   H1716     1.0  0.88170  0.65447  0.37121  1.0000
  H   H1717     1.0  0.49881  0.79941  0.24163  1.0000
  C   C1084     1.0  0.53961  0.95020  0.33376  1.0000
  H   H1718     1.0  0.86235  0.86454  0.36382  1.0000
  H   H1719     1.0  0.90419  0.49213  0.22931  1.0000
  H   H1720     1.0  0.63218  0.91435  0.20200  1.0000
  H   H1721     1.0  0.86159  0.71044  0.37540  1.0000
  H   H1722     1.0  0.70255  0.94673  0.33773  1.0000
  C   C1085     1.0  0.92154  0.52657  0.25022  1.0000
  C   C1086     1.0  0.56726  0.82920  0.31969  1.0000
  S   S441      1.0  0.97393  0.69495  0.38474  1.0000
  H   H1723     1.0  0.64357  0.89423  0.21728  1.0000
  Fe  Fe217     1.0  0.96482  0.72942  0.37889  1.0000
  H   H1724     1.0  0.85380  0.67598  0.35526  1.0000
  H   H1725     1.0  0.92793  0.51500  0.26061  1.0000
  C   C1087     1.0  0.66488  0.97196  0.29512  1.0000
  C   C1088     1.0  0.50755  0.84039  0.26020  1.0000
  H   H1726     1.0  0.52733  0.82254  0.32484  1.0000
  H   H1727     1.0  0.65183  0.91360  0.33574  1.0000
  C   C1089     1.0  0.91566  0.49890  0.23517  1.0000
  H   H1728     1.0  0.87571  0.50823  0.24994  1.0000
  C   C1090     1.0  0.71659  0.85771  0.36221  1.0000
  H   H1729     1.0  0.57382  0.80513  0.29440  1.0000
  H   H1730     1.0  0.60610  0.88733  0.24216  1.0000
  H   H1731     1.0  0.54723  0.94265  0.32225  1.0000
  H   H1732     1.0  0.58995  0.79373  0.31061  1.0000
  C   C1091     1.0  0.89828  0.53394  0.22835  1.0000
  H   H1733     1.0  0.95285  0.56861  0.19770  1.0000
  H   H1734     1.0  0.59842  0.93701  0.21210  1.0000
  C   C1092     1.0  0.56009  0.79755  0.33779  1.0000
  C   C1093     1.0  0.70978  0.85699  0.34627  1.0000
  C   C1094     1.0  0.50714  0.96525  0.34911  1.0000
  N   N109      1.0  0.51674  0.95554  0.33355  1.0000
  H   H1735     1.0  0.54716  0.96424  0.33393  1.0000
  H   H1736     1.0  0.94090  0.63716  0.37528  1.0000
  C   C1095     1.0  0.59681  0.92531  0.22374  1.0000
  S   S442      1.0  0.84121  0.83458  0.38993  1.0000
  C   C1096     1.0  0.68051  0.91759  0.35588  1.0000
  H   H1737     1.0  0.66688  0.95881  0.35173  1.0000
  H   H1738     1.0  0.79769  0.96530  0.37991  1.0000
  H   H1739     1.0  0.67754  0.90410  0.32617  1.0000
  H   H1740     1.0  0.69247  0.90385  0.35333  1.0000
  H   H1741     1.0  0.58721  0.91385  0.22101  1.0000
  C   C1097     1.0  0.88404  0.78213  0.38730  1.0000
  H   H1742     1.0  0.58353  0.82682  0.32297  1.0000
  H   H1743     1.0  0.53721  0.82100  0.30267  1.0000
  S   S443      1.0  0.53230  0.84586  0.20705  1.0000
  H   H1744     1.0  0.69355  0.95852  0.28116  1.0000
  C   C1098     1.0  0.52253  0.83001  0.19509  1.0000
  H   H1745     1.0  0.61895  0.89247  0.21064  1.0000
  C   C1099     1.0  0.53801  0.81270  0.31592  1.0000
  N   N110      1.0  0.61751  0.91494  0.22818  1.0000
  C   C1100     1.0  0.62994  0.93084  0.23100  1.0000
  H   H1746     1.0  0.90435  0.69648  0.34078  1.0000
  H   H1747     1.0  0.64551  0.92349  0.23472  1.0000
  N   N111      1.0  0.67584  0.93071  0.33968  1.0000
  C   C1101     1.0  0.87003  0.69424  0.37757  1.0000
  H   H1748     1.0  0.51894  0.98498  0.31772  1.0000
  H   H1749     1.0  0.51549  0.91629  0.19674  1.0000
  H   H1750     1.0  0.54990  0.80657  0.34754  1.0000
  H   H1751     1.0  0.88097  0.52791  0.26180  1.0000
  H   H1752     1.0  0.88133  0.69454  0.38675  1.0000
  C   C1102     1.0  0.64345  0.97110  0.29965  1.0000
  H   H1753     1.0  0.54339  0.93894  0.34524  1.0000
  H   H1754     1.0  0.85521  0.87770  0.34345  1.0000
  C   C1103     1.0  0.50095  0.82999  0.19630  1.0000
  H   H1755     1.0  0.89081  0.54884  0.23323  1.0000
  H   H1756     1.0  0.58786  0.93365  0.23440  1.0000
  H   H1757     1.0  0.90085  0.77858  0.38426  1.0000
  H   H1758     1.0  0.66625  0.91152  0.36306  1.0000
  H   H1759     1.0  0.98657  0.60207  0.30265  1.0000
  H   H1760     1.0  0.51790  0.84725  0.24903  1.0000
  C   C1104     1.0  0.83015  0.91031  0.35608  1.0000
  H   H1761     1.0  0.60593  0.90798  0.25499  1.0000
  H   H1762     1.0  0.88662  0.52818  0.22195  1.0000
  C   C1105     1.0  0.85017  0.87581  0.35757  1.0000
  H   H1763     1.0  0.98599  0.60816  0.34026  1.0000
  H   H1764     1.0  0.98686  0.52979  0.34092  1.0000
  H   H1765     1.0  0.83470  0.91340  0.34194  1.0000
  H   H1766     1.0  0.90453  0.66555  0.37335  1.0000
  H   H1767     1.0  0.51351  0.97980  0.34981  1.0000
  C   C1106     1.0  0.51245  0.97021  0.31799  1.0000
  H   H1768     1.0  0.51796  0.81661  0.23441  1.0000
  H   H1769     1.0  0.66886  0.87117  0.38488  1.0000
  S   S444      1.0  0.78765  0.92382  0.38669  1.0000
  H   H1770     1.0  0.88386  0.81552  0.38323  1.0000
  H   H1771     1.0  0.93492  0.53072  0.24054  1.0000
  H   H1772     1.0  0.66344  0.98028  0.25227  1.0000
  Fe  Fe218     1.0  0.76098  0.85657  0.38601  1.0000
  Fe  Fe219     1.0  0.91810  0.72682  0.38971  1.0000
  H   H1773     1.0  0.83683  0.90752  0.38910  1.0000
  C   C1107     1.0  0.83986  0.89262  0.38332  1.0000
  H   H1774     1.0  0.91949  0.48914  0.33033  1.0000
  C   C1108     1.0  0.87436  0.80306  0.38673  1.0000
  H   H1775     1.0  0.87298  0.68148  0.33707  1.0000
  H   H1776     1.0  0.70667  0.86337  0.38846  1.0000
  Fe  Fe220     1.0  0.60895  0.85490  0.19368  1.0000
  H   H1777     1.0  0.63408  0.98175  0.30796  1.0000
  H   H1778     1.0  0.98723  0.58367  0.33224  1.0000
  H   H1779     1.0  0.49762  0.85355  0.26628  1.0000
  N   N112      1.0  0.49456  0.82659  0.25479  1.0000
  H   H1780     1.0  0.49184  0.80784  0.27956  1.0000
  H   H1781     1.0  0.68084  0.98614  0.23295  1.0000
  C   C1109     1.0  0.85252  0.80798  0.39060  1.0000
  H   H1782     1.0  0.52782  0.89085  0.19203  1.0000
  Fe  Fe221     1.0  0.78466  0.91856  0.54806  1.0000
  S   S445      1.0  0.75014  0.92249  0.54792  1.0000
  S   S446      1.0  0.79855  0.94885  0.54088  1.0000
  Fe  Fe222     1.0  0.78835  0.87082  0.55155  1.0000
  S   S447      1.0  0.75342  0.87180  0.55176  1.0000
  H   H1783     1.0  0.93104  0.62389  0.56565  1.0000
  Fe  Fe223     1.0  0.75642  0.89796  0.53029  1.0000
  S   S448      1.0  0.73866  0.90566  0.50727  1.0000
  C   C1110     1.0  0.92881  0.65459  0.57336  1.0000
  S   S449      1.0  0.79120  0.89558  0.52865  1.0000
  Fe  Fe224     1.0  0.76892  0.85524  0.42302  1.0000
  S   S450      1.0  0.79894  0.86882  0.41598  1.0000
  S   S451      1.0  0.75918  0.84342  0.45091  1.0000
  H   H1784     1.0  0.81506  0.86187  0.49302  1.0000
  C   C1111     1.0  0.85009  0.77081  0.39560  1.0000
  S   S452      1.0  0.77741  0.83143  0.40423  1.0000
  S   S453      1.0  0.75054  0.87934  0.40539  1.0000
  Fe  Fe225     1.0  0.95827  0.73662  0.53351  1.0000
  S   S454      1.0  0.94533  0.70666  0.53396  1.0000
  Fe  Fe226     1.0  0.91487  0.76130  0.54401  1.0000
  S   S455      1.0  0.89874  0.73302  0.54597  1.0000
  S   S456      1.0  0.90159  0.79515  0.54788  1.0000
  Fe  Fe227     1.0  0.92616  0.71496  0.55866  1.0000
  Fe  Fe228     1.0  0.91929  0.72686  0.52113  1.0000
  S   S457      1.0  0.90471  0.72014  0.49869  1.0000
  S   S458      1.0  0.93385  0.75612  0.51846  1.0000
  Fe  Fe229     1.0  0.95125  0.69867  0.40875  1.0000
  H   H1785     1.0  0.93152  0.82350  0.54650  1.0000
  S   S459      1.0  0.96261  0.68597  0.43425  1.0000
  H   H1786     1.0  0.98259  0.71830  0.58464  1.0000
  H   H1787     1.0  0.78337  0.94806  0.44322  1.0000
  C   C1112     1.0  0.92122  0.71000  0.48123  1.0000
  C   C1113     1.0  0.94300  0.70647  0.48077  1.0000
  C   C1114     1.0  0.95565  0.69889  0.46637  1.0000
  C   C1115     1.0  0.94661  0.69544  0.45220  1.0000
  C   C1116     1.0  0.92485  0.69913  0.45263  1.0000
  C   C1117     1.0  0.91221  0.70595  0.46726  1.0000
  H   H1788     1.0  0.95007  0.70943  0.49153  1.0000
  H   H1789     1.0  0.97247  0.69589  0.46614  1.0000
  H   H1790     1.0  0.91777  0.69608  0.44190  1.0000
  H   H1791     1.0  0.89538  0.70795  0.46786  1.0000
  H   H1792     1.0  0.87879  0.55385  0.57851  1.0000
  C   C1118     1.0  0.80480  0.82892  0.48087  1.0000
  C   C1119     1.0  0.78990  0.94155  0.40077  1.0000
  C   C1120     1.0  0.66774  0.90551  0.56118  1.0000
  C   C1121     1.0  0.78666  0.95180  0.42940  1.0000
  H   H1793     1.0  0.83966  0.82865  0.49518  1.0000
  H   H1794     1.0  0.69333  0.87272  0.55031  1.0000
  C   C1122     1.0  0.87484  0.80667  0.54879  1.0000
  C   C1123     1.0  0.86967  0.82835  0.54932  1.0000
  C   C1124     1.0  0.84865  0.83809  0.55017  1.0000
  S   S460      1.0  0.78426  0.89373  0.57116  1.0000
  H   H1795     1.0  0.84494  0.85476  0.55053  1.0000
  C   C1125     1.0  0.74510  0.88837  0.49164  1.0000
  C   C1126     1.0  0.75006  0.89610  0.47426  1.0000
  C   C1127     1.0  0.75445  0.88248  0.46157  1.0000
  C   C1128     1.0  0.75326  0.86120  0.46620  1.0000
  C   C1129     1.0  0.74789  0.85359  0.48354  1.0000
  C   C1130     1.0  0.74411  0.86707  0.49627  1.0000
  H   H1796     1.0  0.75062  0.91262  0.47060  1.0000
  H   H1797     1.0  0.75853  0.88847  0.44821  1.0000
  H   H1798     1.0  0.74662  0.83719  0.48710  1.0000
  H   H1799     1.0  0.73988  0.86108  0.50960  1.0000
  H   H1800     1.0  0.96756  0.80025  0.52380  1.0000
  S   S461      1.0  0.94073  0.74393  0.55887  1.0000
  H   H1801     1.0  0.66004  0.89128  0.56224  1.0000
  C   C1131     1.0  0.79627  0.96704  0.55574  1.0000
  H   H1802     1.0  0.65548  0.91936  0.55974  1.0000
  H   H1803     1.0  0.74728  0.96746  0.41524  1.0000
  H   H1804     1.0  0.67370  0.90533  0.57368  1.0000
  H   H1805     1.0  0.98667  0.74822  0.56059  1.0000
  C   C1132     1.0  0.83252  0.82620  0.55068  1.0000
  H   H1806     1.0  0.71179  0.86360  0.58847  1.0000
  H   H1807     1.0  0.90537  0.55904  0.57456  1.0000
  H   H1808     1.0  0.82841  0.82317  0.51707  1.0000
  H   H1809     1.0  0.70802  0.88692  0.56083  1.0000
  S   S462      1.0  0.80575  0.83748  0.55107  1.0000
  H   H1810     1.0  0.98359  0.81727  0.56210  1.0000
  C   C1133     1.0  0.96102  0.79247  0.53645  1.0000
  H   H1811     1.0  0.81676  0.83680  0.47189  1.0000
  H   H1812     1.0  0.71314  0.88683  0.53793  1.0000
  H   H1813     1.0  0.89884  0.53578  0.56826  1.0000
  H   H1814     1.0  0.68366  0.93943  0.54451  1.0000
  C   C1134     1.0  0.79278  0.97570  0.58497  1.0000
  H   H1815     1.0  0.78740  0.86145  0.49786  1.0000
  H   H1816     1.0  0.78929  0.83608  0.47700  1.0000
  C   C1135     1.0  0.93047  0.63262  0.57634  1.0000
  H   H1817     1.0  0.80178  0.97811  0.50828  1.0000
  H   H1818     1.0  0.82539  0.79515  0.55055  1.0000
  C   C1136     1.0  0.85872  0.79484  0.54911  1.0000
  H   H1819     1.0  0.78244  0.92131  0.42415  1.0000
  S   S463      1.0  0.94357  0.73347  0.40357  1.0000
  C   C1137     1.0  0.79079  0.97192  0.42232  1.0000
  H   H1820     1.0  0.80699  0.81225  0.47870  1.0000
  C   C1138     1.0  0.98778  0.66534  0.58898  1.0000
  C   C1139     1.0  0.79317  0.96101  0.57353  1.0000
  C   C1140     1.0  0.83772  0.80454  0.55013  1.0000
  H   H1821     1.0  0.80364  0.85553  0.51485  1.0000
  H   H1822     1.0  0.96206  0.77837  0.57013  1.0000
  C   C1141     1.0  0.82688  0.82135  0.50358  1.0000
  C   C1142     1.0  0.67636  0.90673  0.53027  1.0000
  H   H1823     1.0  0.77376  0.82795  0.50755  1.0000
  N   N113      1.0  0.80606  0.83111  0.49900  1.0000
  H   H1824     1.0  0.66451  0.92076  0.52798  1.0000
  H   H1825     1.0  0.97042  0.77678  0.53862  1.0000
  C   C1143     1.0  0.95256  0.79383  0.56707  1.0000
  Fe  Fe230     1.0  0.80642  0.84668  0.39599  1.0000
  H   H1826     1.0  0.92811  0.66263  0.56046  1.0000
  H   H1827     1.0  0.82963  0.80432  0.50256  1.0000
  H   H1828     1.0  0.88197  0.83768  0.54912  1.0000
  C   C1144     1.0  0.78614  0.93663  0.41864  1.0000
  H   H1829     1.0  0.86239  0.77816  0.54880  1.0000
  H   H1830     1.0  0.99096  0.67811  0.55481  1.0000
  C   C1145     1.0  0.78969  0.82071  0.51039  1.0000
  H   H1831     1.0  0.98977  0.81651  0.53927  1.0000
  H   H1832     1.0  0.93217  0.53714  0.59088  1.0000
  Fe  Fe231     1.0  0.74955  0.89629  0.56957  1.0000
  C   C1146     1.0  0.73845  0.97015  0.40392  1.0000
  C   C1147     1.0  0.70050  0.88728  0.54904  1.0000
  N   N114      1.0  0.88307  0.76235  0.44332  1.0000
  C   C1148     1.0  0.88633  0.76221  0.46143  1.0000
  C   C1149     1.0  0.87247  0.78310  0.43681  1.0000
  C   C1150     1.0  0.86997  0.74625  0.44223  1.0000
  C   C1151     1.0  0.90353  0.75782  0.43276  1.0000
  H   H1833     1.0  0.89452  0.74690  0.46671  1.0000
  H   H1834     1.0  0.87125  0.76513  0.46990  1.0000
  H   H1835     1.0  0.89612  0.77419  0.46274  1.0000
  H   H1836     1.0  0.85694  0.78700  0.44444  1.0000
  H   H1837     1.0  0.88200  0.79563  0.43720  1.0000
  H   H1838     1.0  0.86967  0.78371  0.42322  1.0000
  H   H1839     1.0  0.85457  0.74878  0.45036  1.0000
  H   H1840     1.0  0.87779  0.73032  0.44650  1.0000
  H   H1841     1.0  0.86686  0.74628  0.42877  1.0000
  H   H1842     1.0  0.91389  0.76966  0.43312  1.0000
  H   H1843     1.0  0.90162  0.75765  0.41903  1.0000
  H   H1844     1.0  0.91199  0.74227  0.43736  1.0000
  C   C1152     1.0  0.98286  0.80807  0.55150  1.0000
  H   H1845     1.0  0.79040  0.82186  0.52419  1.0000
  C   C1153     1.0  0.69498  0.92487  0.54617  1.0000
  H   H1846     1.0  0.79138  0.80384  0.50896  1.0000
  C   C1154     1.0  0.80291  0.85347  0.50125  1.0000
  H   H1847     1.0  0.70183  0.92473  0.55831  1.0000
  H   H1848     1.0  0.70794  0.92579  0.53532  1.0000
  N   N115      1.0  0.96113  0.80495  0.55055  1.0000
  C   C1155     1.0  0.98297  0.68975  0.56343  1.0000
  H   H1849     1.0  0.94772  0.83529  0.55755  1.0000
  C   C1156     1.0  0.92761  0.66608  0.58714  1.0000
  C   C1157     1.0  0.94805  0.82541  0.54718  1.0000
  H   H1850     1.0  0.93624  0.79100  0.56675  1.0000
  N   N116      1.0  0.68485  0.90611  0.54667  1.0000
  H   H1851     1.0  0.95386  0.83419  0.53474  1.0000
  H   H1852     1.0  0.96599  0.68840  0.56521  1.0000
  H   H1853     1.0  0.79174  0.94491  0.57845  1.0000
  H   H1854     1.0  0.68902  0.90719  0.51911  1.0000
  H   H1855     1.0  0.95211  0.80294  0.57797  1.0000
  H   H1856     1.0  0.66876  0.89269  0.53016  1.0000
  H   H1857     1.0  0.94485  0.79006  0.53523  1.0000
  H   H1858     1.0  0.98663  0.74763  0.40454  1.0000
  C   C1158     1.0  0.79517  0.97659  0.40448  1.0000
  S   S464      1.0  0.88327  0.73929  0.39331  1.0000
  C   C1159     1.0  0.89537  0.54637  0.57843  1.0000
  H   H1859     1.0  0.98490  0.70555  0.55650  1.0000
  S   S465      1.0  0.92552  0.69373  0.58422  1.0000
  C   C1160     1.0  0.87191  0.76590  0.39172  1.0000
  H   H1860     1.0  0.92525  0.51373  0.58524  1.0000
  H   H1861     1.0  0.80622  0.97969  0.46958  1.0000
  H   H1862     1.0  0.84056  0.75837  0.39905  1.0000
  Fe  Fe232     1.0  0.78160  0.89081  0.39670  1.0000
  C   C1161     1.0  0.79466  0.96146  0.39374  1.0000
  H   H1863     1.0  0.72518  0.96092  0.40718  1.0000
  S   S466      1.0  0.72305  0.90478  0.59072  1.0000
  H   H1864     1.0  0.78452  0.96824  0.49689  1.0000
  H   H1865     1.0  0.82361  0.79530  0.39805  1.0000
  C   C1162     1.0  0.84043  0.79174  0.39508  1.0000
  H   H1866     1.0  0.74910  0.96350  0.39310  1.0000
  S   S467      1.0  0.92424  0.69188  0.39683  1.0000
  C   C1163     1.0  0.78740  0.98251  0.50178  1.0000
  H   H1867     1.0  0.88842  0.50710  0.59099  1.0000
  C   C1164     1.0  0.98047  0.70232  0.59096  1.0000
  H   H1868     1.0  0.97511  0.59863  0.74943  1.0000
  S   S468      1.0  0.93276  0.59426  0.59631  1.0000
  Fe  Fe233     1.0  0.61329  0.87843  0.63696  1.0000
  S   S469      1.0  0.61452  0.89464  0.65994  1.0000
  S   S470      1.0  0.64202  0.86206  0.62161  1.0000
  Fe  Fe234     1.0  0.56492  0.88597  0.64080  1.0000
  S   S471      1.0  0.56277  0.90225  0.66404  1.0000
  S   S472      1.0  0.53499  0.88989  0.62881  1.0000
  Fe  Fe235     1.0  0.58894  0.91805  0.64931  1.0000
  S   S473      1.0  0.58322  0.95284  0.64681  1.0000
  Fe  Fe236     1.0  0.58812  0.87721  0.67254  1.0000
  S   S474      1.0  0.58342  0.86090  0.69974  1.0000
  S   S475      1.0  0.58985  0.90344  0.62538  1.0000
  S   S476      1.0  0.58829  0.85923  0.65034  1.0000
  S   S477      1.0  0.62855  0.87926  0.76047  1.0000
  C   C1165     1.0  0.50091  0.86715  0.70664  1.0000
  S   S478      1.0  0.91036  0.50622  0.64560  1.0000
  Fe  Fe237     1.0  0.93839  0.57513  0.62207  1.0000
  S   S479      1.0  0.95929  0.58078  0.64055  1.0000
  H   H1869     1.0  0.66432  0.80482  0.68462  1.0000
  Fe  Fe238     1.0  0.92894  0.53329  0.64267  1.0000
  S   S480      1.0  0.94876  0.53555  0.66283  1.0000
  H   H1870     1.0  0.53024  0.94507  0.61871  1.0000
  Fe  Fe239     1.0  0.93483  0.56924  0.66134  1.0000
  S   S481      1.0  0.92275  0.58390  0.68567  1.0000
  Fe  Fe240     1.0  0.97159  0.54660  0.64081  1.0000
  S   S482      1.0  0.91269  0.56634  0.64289  1.0000
  S   S483      1.0  0.95301  0.54164  0.62057  1.0000
  H   H1871     1.0  0.49516  0.92918  0.78233  1.0000
  S   S484      1.0  0.95566  0.53226  0.75254  1.0000
  C   C1166     1.0  0.93349  0.57160  0.70433  1.0000
  C   C1167     1.0  0.95119  0.55646  0.70317  1.0000
  C   C1168     1.0  0.95815  0.54499  0.71814  1.0000
  C   C1169     1.0  0.94760  0.54868  0.73439  1.0000
  C   C1170     1.0  0.93052  0.56454  0.73567  1.0000
  C   C1171     1.0  0.92346  0.57597  0.72062  1.0000
  H   H1872     1.0  0.95942  0.55343  0.69073  1.0000
  H   H1873     1.0  0.97158  0.53295  0.71708  1.0000
  H   H1874     1.0  0.92236  0.56754  0.74819  1.0000
  H   H1875     1.0  0.90982  0.58778  0.72159  1.0000
  C   C1172     1.0  0.68091  0.86326  0.60287  1.0000
  C   C1173     1.0  0.66422  0.85258  0.66095  1.0000
  C   C1174     1.0  0.93044  0.63338  0.60678  1.0000
  C   C1175     1.0  0.53106  0.94486  0.63267  1.0000
  C   C1176     1.0  0.63927  0.84163  0.68500  1.0000
  H   H1876     1.0  0.53037  0.98358  0.61564  1.0000
  H   H1877     1.0  0.92757  0.66407  0.61458  1.0000
  H   H1878     1.0  0.93092  0.62538  0.61971  1.0000
  H   H1879     1.0  0.57239  0.90805  0.71929  1.0000
  Fe  Fe241     1.0  0.94755  0.54085  0.77963  1.0000
  H   H1880     1.0  0.96972  0.57232  0.75209  1.0000
  H   H1881     1.0  0.67260  0.85979  0.66928  1.0000
  C   C1177     1.0  0.59589  0.86676  0.71636  1.0000
  C   C1178     1.0  0.61290  0.87797  0.71291  1.0000
  C   C1179     1.0  0.62303  0.88143  0.72652  1.0000
  C   C1180     1.0  0.61571  0.87446  0.74366  1.0000
  C   C1181     1.0  0.59840  0.86371  0.74709  1.0000
  C   C1182     1.0  0.58870  0.85966  0.73347  1.0000
  H   H1882     1.0  0.61844  0.88370  0.69979  1.0000
  H   H1883     1.0  0.63644  0.88976  0.72381  1.0000
  H   H1884     1.0  0.59281  0.85802  0.76020  1.0000
  H   H1885     1.0  0.57556  0.85096  0.73622  1.0000
  C   C1183     1.0  0.59114  0.96309  0.66353  1.0000
  H   H1886     1.0  0.63092  0.83718  0.65384  1.0000
  C   C1184     1.0  0.89481  0.54979  0.60839  1.0000
  C   C1185     1.0  0.61043  0.95937  0.68801  1.0000
  C   C1186     1.0  0.60334  0.95048  0.67526  1.0000
  H   H1887     1.0  0.88834  0.50970  0.61326  1.0000
  H   H1888     1.0  0.60786  0.93407  0.67418  1.0000
  H   H1889     1.0  0.68281  0.81298  0.66668  1.0000
  C   C1187     1.0  0.50343  0.91595  0.77618  1.0000
  H   H1890     1.0  0.65227  0.86496  0.65564  1.0000
  C   C1188     1.0  0.51361  0.87642  0.63709  1.0000
  C   C1189     1.0  0.51626  0.85567  0.64485  1.0000
  Fe  Fe242     1.0  0.60916  0.88314  0.78625  1.0000
  C   C1190     1.0  0.88554  0.51858  0.60045  1.0000
  C   C1191     1.0  0.50309  0.88771  0.75959  1.0000
  H   H1891     1.0  0.53184  0.84761  0.64633  1.0000
  H   H1892     1.0  0.95156  0.49253  0.62782  1.0000
  H   H1893     1.0  0.51499  0.86607  0.69678  1.0000
  H   H1894     1.0  0.62062  0.94989  0.69663  1.0000
  H   H1895     1.0  0.49672  0.96910  0.62215  1.0000
  H   H1896     1.0  0.89700  0.54162  0.62148  1.0000
  H   H1897     1.0  0.52383  0.93116  0.63957  1.0000
  C   C1192     1.0  0.97852  0.58387  0.74347  1.0000
  H   H1898     1.0  0.79101  0.97077  0.59869  1.0000
  C   C1193     1.0  0.66437  0.87418  0.61297  1.0000
  C   C1194     1.0  0.66616  0.89422  0.61619  1.0000
  C   C1195     1.0  0.68434  0.90320  0.60940  1.0000
  H   H1899     1.0  0.90245  0.50321  0.73480  1.0000
  H   H1900     1.0  0.54790  0.94191  0.63450  1.0000
  H   H1901     1.0  0.65357  0.90280  0.62396  1.0000
  C   C1196     1.0  0.67104  0.81861  0.67730  1.0000
  H   H1902     1.0  0.50089  0.82876  0.65525  1.0000
  H   H1903     1.0  0.97196  0.58679  0.73097  1.0000
  C   C1197     1.0  0.70085  0.89235  0.59923  1.0000
  H   H1904     1.0  0.60178  0.91952  0.74280  1.0000
  H   H1905     1.0  0.92259  0.50432  0.68081  1.0000
  H   H1906     1.0  0.54855  0.91551  0.73291  1.0000
  C   C1198     1.0  0.93651  0.50300  0.71117  1.0000
  H   H1907     1.0  0.86871  0.52538  0.60139  1.0000
  H   H1908     1.0  0.90535  0.56203  0.60538  1.0000
  H   H1909     1.0  0.64675  0.84872  0.69405  1.0000
  N   N117      1.0  0.91442  0.50657  0.70789  1.0000
  H   H1910     1.0  0.67952  0.82491  0.68615  1.0000
  C   C1199     1.0  0.92852  0.65535  0.60383  1.0000
  H   H1911     1.0  0.51362  0.97776  0.66285  1.0000
  H   H1912     1.0  0.67557  0.84794  0.64973  1.0000
  C   C1200     1.0  0.60506  0.98077  0.68907  1.0000
  H   H1913     1.0  0.63660  0.81177  0.66551  1.0000
  H   H1914     1.0  0.98636  0.70015  0.60368  1.0000
  H   H1915     1.0  0.98671  0.56226  0.66466  1.0000
  H   H1916     1.0  0.74032  0.97629  0.60881  1.0000
  H   H1917     1.0  0.67971  0.84768  0.60041  1.0000
  C   C1201     1.0  0.90150  0.49658  0.72279  1.0000
  C   C1202     1.0  0.64374  0.82562  0.65887  1.0000
  C   C1203     1.0  0.91266  0.49747  0.69222  1.0000
  H   H1918     1.0  0.88472  0.49888  0.72075  1.0000
  H   H1919     1.0  0.53833  0.96111  0.66023  1.0000
  C   C1204     1.0  0.58536  0.98433  0.66493  1.0000
  C   C1205     1.0  0.52448  0.88148  0.76054  1.0000
  H   H1920     1.0  0.56849  0.92946  0.76074  1.0000
  C   C1206     1.0  0.52174  0.96324  0.65764  1.0000
  H   H1921     1.0  0.87844  0.55793  0.60903  1.0000
  H   H1922     1.0  0.68559  0.91870  0.61202  1.0000
  H   H1923     1.0  0.53255  0.86789  0.75479  1.0000
  H   H1924     1.0  0.89033  0.53264  0.70313  1.0000
  C   C1207     1.0  0.53513  0.89205  0.76994  1.0000
  H   H1925     1.0  0.92486  0.51668  0.60744  1.0000
  C   C1208     1.0  0.49875  0.84501  0.64982  1.0000
  H   H1926     1.0  0.63163  0.82852  0.69256  1.0000
  H   H1927     1.0  0.50448  0.85551  0.71796  1.0000
  C   C1209     1.0  0.90701  0.52926  0.70544  1.0000
  N   N118      1.0  0.52047  0.96452  0.63902  1.0000
  H   H1928     1.0  0.94664  0.51096  0.70047  1.0000
  H   H1929     1.0  0.57102  0.90166  0.74221  1.0000
  H   H1930     1.0  0.54904  0.95283  0.71950  1.0000
  H   H1931     1.0  0.57264  0.94441  0.70606  1.0000
  H   H1932     1.0  0.57216  0.96479  0.71902  1.0000
  H   H1933     1.0  0.60360  0.92475  0.71977  1.0000
  C   C1210     1.0  0.59615  0.93087  0.73195  1.0000
  H   H1934     1.0  0.55147  0.88688  0.77102  1.0000
  H   H1935     1.0  0.56897  0.95609  0.75128  1.0000
  H   H1936     1.0  0.89631  0.50038  0.68901  1.0000
  C   C1211     1.0  0.56384  0.94113  0.74976  1.0000
  C   C1212     1.0  0.52441  0.90891  0.77817  1.0000
  H   H1937     1.0  0.62649  0.85352  0.68033  1.0000
  H   H1938     1.0  0.93828  0.50911  0.72323  1.0000
  C   C1213     1.0  0.49825  0.96781  0.63609  1.0000
  H   H1939     1.0  0.60219  0.94578  0.73227  1.0000
  H   H1940     1.0  0.54641  0.94348  0.75117  1.0000
  C   C1214     1.0  0.56638  0.94969  0.71882  1.0000
  H   H1941     1.0  0.49973  0.83988  0.68508  1.0000
  H   H1942     1.0  0.90848  0.53672  0.71690  1.0000
  C   C1215     1.0  0.56592  0.91394  0.73179  1.0000
  H   H1943     1.0  0.65459  0.82085  0.64742  1.0000
  N   N119      1.0  0.57307  0.93392  0.73307  1.0000
  N   N120      1.0  0.65457  0.83461  0.67053  1.0000
  S   S485      1.0  0.59589  0.91643  0.78912  1.0000
  H   H1944     1.0  0.91622  0.53732  0.69419  1.0000
  H   H1945     1.0  0.51441  0.94989  0.66504  1.0000
  H   H1946     1.0  0.96332  0.70167  0.59349  1.0000
  H   H1947     1.0  0.49871  0.88285  0.71103  1.0000
  H   H1948     1.0  0.54754  0.98032  0.63190  1.0000
  C   C1216     1.0  0.53080  0.98221  0.62975  1.0000
  C   C1217     1.0  0.69907  0.87228  0.59601  1.0000
  C   C1218     1.0  0.49341  0.88658  0.63487  1.0000
  S   S486      1.0  0.94016  0.57201  0.78944  1.0000
  H   H1949     1.0  0.49186  0.87793  0.67427  1.0000
  H   H1950     1.0  0.97077  0.66395  0.59148  1.0000
  C   C1219     1.0  0.49278  0.90535  0.76693  1.0000
  C   C1220     1.0  0.92137  0.52521  0.59470  1.0000
  C   C1221     1.0  0.93123  0.62190  0.59306  1.0000
  N   N121      1.0  0.89925  0.53498  0.59547  1.0000
  Fe  Fe243     1.0  0.62396  0.68566  0.90771  1.0000
  S   S487      1.0  0.64224  0.71042  0.91121  1.0000
  S   S488      1.0  0.63975  0.65578  0.89674  1.0000
  Fe  Fe244     1.0  0.58242  0.71066  0.92210  1.0000
  S   S489      1.0  0.59850  0.73720  0.92659  1.0000
  S   S490      1.0  0.54783  0.71178  0.93265  1.0000
  Fe  Fe245     1.0  0.61646  0.73352  0.90025  1.0000
  S   S491      1.0  0.62840  0.75738  0.87829  1.0000
  Fe  Fe246     1.0  0.62266  0.71170  0.93688  1.0000
  S   S492      1.0  0.63912  0.70579  0.96072  1.0000
  S   S493      1.0  0.59897  0.70843  0.89521  1.0000
  S   S494      1.0  0.60558  0.68554  0.93402  1.0000
  Fe  Fe247     1.0  0.58868  0.86651  0.82200  1.0000
  H   H1951     1.0  0.83702  0.51451  0.97274  1.0000
  S   S495      1.0  0.57846  0.84192  0.84393  1.0000
  Fe  Fe248     1.0  0.60378  0.90928  0.81611  1.0000
  H   H1952     1.0  0.55530  0.98138  0.84134  1.0000
  S   S496      1.0  0.61868  0.93097  0.82891  1.0000
  C   C1222     1.0  0.77977  0.57771  0.98884  1.0000
  H   H1953     1.0  0.75838  0.48808  0.92144  1.0000
  H   H1954     1.0  0.63181  0.71814  0.86398  1.0000
  S   S497      1.0  0.57305  0.89878  0.82691  1.0000
  S   S498      1.0  0.62017  0.87682  0.81251  1.0000
  Fe  Fe249     1.0  0.75059  0.57927  0.90433  1.0000
  S   S499      1.0  0.77824  0.57477  0.91929  1.0000
  S   S500      1.0  0.73397  0.61297  0.90346  1.0000
  Fe  Fe250     1.0  0.75659  0.53285  0.90003  1.0000
  S   S501      1.0  0.78390  0.52523  0.91495  1.0000
  S   S502      1.0  0.74493  0.50762  0.88859  1.0000
  Fe  Fe251     1.0  0.76529  0.54650  0.93323  1.0000
  S   S503      1.0  0.76282  0.53575  0.96193  1.0000
  Fe  Fe252     1.0  0.79516  0.55403  0.89973  1.0000
  S   S504      1.0  0.83087  0.55023  0.89349  1.0000
  S   S505      1.0  0.73673  0.55181  0.91957  1.0000
  S   S506      1.0  0.76870  0.56077  0.88344  1.0000
  Fe  Fe253     1.0  0.96619  0.55981  0.80572  1.0000
  H   H1955     1.0  0.59400  0.98263  0.79971  1.0000
  H   H1956     1.0  0.82261  0.56701  0.94942  1.0000
  Fe  Fe254     1.0  0.91923  0.55645  0.81147  1.0000
  H   H1957     1.0  0.56502  0.72322  0.96024  1.0000
  S   S507      1.0  0.88476  0.56812  0.81983  1.0000
  Fe  Fe255     1.0  0.95111  0.51790  0.81566  1.0000
  H   H1958     1.0  0.51596  0.83943  0.80443  1.0000
  S   S508      1.0  0.94476  0.54703  0.82855  1.0000
  C   C1223     1.0  0.89631  0.50804  0.83959  1.0000
  H   H1959     1.0  0.67916  0.59575  0.93471  1.0000
  H   H1960     1.0  0.57414  0.94742  0.83319  1.0000
  C   C1224     1.0  0.52094  0.69158  0.89603  1.0000
  S   S509      1.0  0.53639  0.92081  0.79176  1.0000
  C   C1225     1.0  0.77445  0.56863  0.97529  1.0000
  H   H1961     1.0  0.82700  0.52013  0.92697  1.0000
  H   H1962     1.0  0.53293  0.87836  0.80948  1.0000
  H   H1963     1.0  0.77497  0.57708  0.96245  1.0000
  C   C1226     1.0  0.76863  0.54859  0.97843  1.0000
  C   C1227     1.0  0.84552  0.55548  0.87289  1.0000
  C   C1228     1.0  0.83592  0.56411  0.85829  1.0000
  C   C1229     1.0  0.84819  0.56819  0.84225  1.0000
  C   C1230     1.0  0.87016  0.56350  0.84054  1.0000
  C   C1231     1.0  0.87975  0.55479  0.85514  1.0000
  C   C1232     1.0  0.86750  0.55083  0.87120  1.0000
  H   H1964     1.0  0.81905  0.56786  0.85937  1.0000
  H   H1965     1.0  0.84059  0.57501  0.83107  1.0000
  H   H1966     1.0  0.89664  0.55135  0.85409  1.0000
  H   H1967     1.0  0.87512  0.54428  0.88241  1.0000
  H   H1968     1.0  0.83190  0.54209  0.97429  1.0000
  H   H1969     1.0  0.88327  0.51203  0.80824  1.0000
  H   H1970     1.0  0.85893  0.52746  0.83071  1.0000
  C   C1233     1.0  0.60474  0.95538  0.83383  1.0000
  C   C1234     1.0  0.49334  0.88111  0.82496  1.0000
  C   C1235     1.0  0.61582  0.97099  0.83673  1.0000
  C   C1236     1.0  0.50466  0.84598  0.83770  1.0000
  Fe  Fe256     1.0  0.56653  0.90310  0.79957  1.0000
  H   H1971     1.0  0.61273  0.74518  0.96650  1.0000
  C   C1237     1.0  0.58288  0.95933  0.83531  1.0000
  H   H1972     1.0  0.70579  0.58867  0.92595  1.0000
  H   H1973     1.0  0.81090  0.52819  0.97264  1.0000
  C   C1238     1.0  0.70330  0.61605  0.94887  1.0000
  H   H1974     1.0  0.71531  0.61930  0.93766  1.0000
  C   C1239     1.0  0.66572  0.64368  0.89933  1.0000
  C   C1240     1.0  0.67969  0.65372  0.90583  1.0000
  C   C1241     1.0  0.70053  0.64418  0.90672  1.0000
  C   C1242     1.0  0.70756  0.62426  0.90162  1.0000
  C   C1243     1.0  0.69348  0.61400  0.89547  1.0000
  C   C1244     1.0  0.67275  0.62378  0.89417  1.0000
  H   H1975     1.0  0.67454  0.66894  0.90999  1.0000
  H   H1976     1.0  0.71127  0.65228  0.91149  1.0000
  H   H1977     1.0  0.69867  0.59873  0.89139  1.0000
  H   H1978     1.0  0.66211  0.61588  0.88908  1.0000
  H   H1979     1.0  0.82157  0.55813  0.92918  1.0000
  H   H1980     1.0  0.85604  0.51456  0.85231  1.0000
  H   H1981     1.0  0.57374  0.73462  0.97667  1.0000
  H   H1982     1.0  0.50717  0.85157  0.84975  1.0000
  S   S510      1.0  0.92459  0.52642  0.79986  1.0000
  C   C1245     1.0  0.61424  0.78089  0.86899  1.0000
  C   C1246     1.0  0.62450  0.79345  0.85539  1.0000
  C   C1247     1.0  0.61384  0.81210  0.84750  1.0000
  C   C1248     1.0  0.59273  0.81843  0.85315  1.0000
  C   C1249     1.0  0.58253  0.80598  0.86683  1.0000
  C   C1250     1.0  0.59317  0.78731  0.87469  1.0000
  H   H1983     1.0  0.64079  0.78866  0.85087  1.0000
  H   H1984     1.0  0.62192  0.82144  0.83698  1.0000
  H   H1985     1.0  0.56622  0.81071  0.87135  1.0000
  H   H1986     1.0  0.58505  0.77786  0.88512  1.0000
  C   C1251     1.0  0.50803  0.71209  0.92511  1.0000
  C   C1252     1.0  0.52953  0.70656  0.91999  1.0000
  C   C1253     1.0  0.53594  0.69639  0.90535  1.0000
  C   C1254     1.0  0.68647  0.58968  0.96806  1.0000
  H   H1987     1.0  0.55244  0.69199  0.90132  1.0000
  H   H1988     1.0  0.70793  0.62204  0.95998  1.0000
  C   C1255     1.0  0.63868  0.70264  0.85988  1.0000
  C   C1256     1.0  0.85912  0.51183  0.83854  1.0000
  H   H1989     1.0  0.50666  0.86546  0.79533  1.0000
  H   H1990     1.0  0.68823  0.62545  0.94569  1.0000
  N   N122      1.0  0.66172  0.70079  0.85606  1.0000
  H   H1991     1.0  0.66108  0.73302  0.84546  1.0000
  H   H1992     1.0  0.69139  0.59469  0.97950  1.0000
  H   H1993     1.0  0.50432  0.69005  0.96509  1.0000
  H   H1994     1.0  0.73428  0.58453  0.94399  1.0000
  H   H1995     1.0  0.89398  0.50971  0.85355  1.0000
  H   H1996     1.0  0.68465  0.71630  0.83873  1.0000
  H   H1997     1.0  0.66090  0.71552  0.82999  1.0000
  H   H1998     1.0  0.66668  0.69143  0.88241  1.0000
  C   C1257     1.0  0.57423  0.71971  0.97132  1.0000
  C   C1258     1.0  0.66737  0.71710  0.84190  1.0000
  N   N123      1.0  0.70165  0.59351  0.95253  1.0000
  H   H1999     1.0  0.52605  0.68358  0.88478  1.0000
  H   H2000     1.0  0.68795  0.70237  0.86917  1.0000
  H   H2001     1.0  0.66440  0.71916  0.87581  1.0000
  H   H2002     1.0  0.66376  0.67711  0.83944  1.0000
  H   H2003     1.0  0.80796  0.51565  0.94552  1.0000
  H   H2004     1.0  0.58478  0.67816  0.97257  1.0000
  H   H2005     1.0  0.63386  0.69048  0.87043  1.0000
  H   H2006     1.0  0.68752  0.67779  0.84824  1.0000
  H   H2007     1.0  0.72829  0.58611  0.96664  1.0000
  C   C1259     1.0  0.72240  0.58166  0.95541  1.0000
  C   C1260     1.0  0.67060  0.70359  0.87153  1.0000
  H   H2008     1.0  0.80179  0.55322  0.94697  1.0000
  C   C1261     1.0  0.67014  0.67986  0.85105  1.0000
  N   N124      1.0  0.61292  0.87445  0.87169  1.0000
  C   C1262     1.0  0.59336  0.88734  0.86695  1.0000
  C   C1263     1.0  0.62451  0.88690  0.88011  1.0000
  C   C1264     1.0  0.62597  0.86783  0.85601  1.0000
  C   C1265     1.0  0.60783  0.85578  0.88357  1.0000
  H   H2009     1.0  0.58406  0.87827  0.86086  1.0000
  H   H2010     1.0  0.59666  0.90134  0.85765  1.0000
  H   H2011     1.0  0.58326  0.89299  0.87841  1.0000
  H   H2012     1.0  0.63947  0.87774  0.88373  1.0000
  H   H2013     1.0  0.62842  0.90115  0.87137  1.0000
  H   H2014     1.0  0.61514  0.89219  0.89201  1.0000
  H   H2015     1.0  0.61761  0.85851  0.84929  1.0000
  H   H2016     1.0  0.64082  0.85793  0.85904  1.0000
  H   H2017     1.0  0.63017  0.88157  0.84678  1.0000
  H   H2018     1.0  0.59902  0.84615  0.87749  1.0000
  H   H2019     1.0  0.59797  0.86013  0.89558  1.0000
  H   H2020     1.0  0.62223  0.84554  0.88728  1.0000
  N   N125      1.0  0.83128  0.53390  0.94901  1.0000
  C   C1266     1.0  0.81878  0.55398  0.94341  1.0000
  C   C1267     1.0  0.85368  0.53515  0.94322  1.0000
  C   C1268     1.0  0.82481  0.51707  0.94131  1.0000
  C   C1269     1.0  0.82769  0.52947  0.96800  1.0000
  H   H2021     1.0  0.87118  0.48867  0.81210  1.0000
  H   H2022     1.0  0.50298  0.72019  0.93629  1.0000
  H   H2023     1.0  0.86365  0.52025  0.94715  1.0000
  C   C1270     1.0  0.62940  0.71766  0.97943  1.0000
  H   H2024     1.0  0.84584  0.50483  0.83558  1.0000
  N   N126      1.0  0.56607  0.70356  0.98451  1.0000
  H   H2025     1.0  0.53298  0.87268  0.83234  1.0000
  S   S511      1.0  0.97459  0.52963  0.79466  1.0000
  N   N127      1.0  0.50813  0.86181  0.82259  1.0000
  C   C1271     1.0  0.52982  0.86647  0.82076  1.0000
  H   H2026     1.0  0.59073  0.71456  0.96604  1.0000
  H   H2027     1.0  0.49567  0.88790  0.83650  1.0000
  H   H2028     1.0  0.68491  0.57278  0.97115  1.0000
  H   H2029     1.0  0.66598  0.66731  0.86159  1.0000
  H   H2030     1.0  0.69250  0.56978  0.94016  1.0000
  H   H2031     1.0  0.63137  0.70081  0.84846  1.0000
  C   C1272     1.0  0.56808  0.68386  0.97695  1.0000
  H   H2032     1.0  0.72194  0.56451  0.95781  1.0000
  C   C1273     1.0  0.69439  0.58661  0.93775  1.0000
  C   C1274     1.0  0.54382  0.71053  0.99039  1.0000
  H   H2033     1.0  0.56184  0.67132  0.98642  1.0000
  N   N128      1.0  0.87935  0.49847  0.83475  1.0000
  C   C1275     1.0  0.61632  0.73683  0.97879  1.0000
  H   H2034     1.0  0.85903  0.54782  0.94869  1.0000
  H   H2035     1.0  0.83402  0.50166  0.94509  1.0000
  H   H2036     1.0  0.63273  0.96802  0.83573  1.0000
  H   H2037     1.0  0.85670  0.53852  0.92890  1.0000
  C   C1276     1.0  0.49945  0.69713  0.90111  1.0000
  H   H2038     1.0  0.89712  0.52388  0.83241  1.0000
  H   H2039     1.0  0.78449  0.59310  0.98634  1.0000
  H   H2040     1.0  0.91185  0.49854  0.83674  1.0000
  H   H2041     1.0  0.49538  0.89330  0.81364  1.0000
  H   H2042     1.0  0.67065  0.59837  0.96623  1.0000
  H   H2043     1.0  0.51555  0.83120  0.83628  1.0000
  H   H2044     1.0  0.55954  0.68601  0.96547  1.0000
  C   C1277     1.0  0.88327  0.49647  0.81615  1.0000
  H   H2045     1.0  0.54146  0.85225  0.81903  1.0000
  C   C1278     1.0  0.57223  0.97859  0.83997  1.0000
  H   H2046     1.0  0.53433  0.71337  0.97946  1.0000
  S   S512      1.0  0.57909  0.87007  0.79536  1.0000
  C   C1279     1.0  0.50472  0.85368  0.80691  1.0000
  H   H2047     1.0  0.94975  0.48741  0.79446  1.0000
  H   H2048     1.0  0.89872  0.48705  0.81275  1.0000
  C   C1280     1.0  0.49302  0.70749  0.91567  1.0000
