data_image0
_chemical_formula_structural       HCSFeNHCH4C2H5CNH2CHC2HCSFeHC2H2SCHCH3C2HS2FeCH3CHS2FeH4SC2HCHCH2C4FeSFeSHCSH2CHCNH4C2H6CH8CNC6HSC2H7CH4CNSFeHS2FeSFeH3SC2HCSHSH3FeHCFeS2Fe2CSCS3HCH3CHCH2CHNH4SCHCH2FeSH2FeC3HCSCFeSH5C2HCH2C2SH2C2H4CHNC2HFeSC2HC2HC2H2SCH3CH5C2H4CH2C2HCH2CH4CH5CHNS3FeC2H3C3HSFe2S2C2SFeHSC2H2CH6CHCNSC3HCH2SHCHCH5CH2NHCH2CNSFeSFeSHC3HSCH3CH4FeHSH5CH3CH2CSCH2SH2C2FeHSHCSH2CHCSC2HCFeHCH5SCSH3CFeC2NH2CHCHSHC3HCSCH2SC2H3NHCH2CH4FeCHCH4CHCNCHNH2S2FeSFe2S3HCH3FeH2C2H2CH3C2H2CH2CHC2SH3C2NC2H3CH2FeSFeSC3H3CFeHCSCHCSCNCHCNC3H2CHC2H2CH4CHCH6C2H2CSCH2S2H5FeH2CHC2H2C3SH6C3HSH2NH2CHSCH2CHCH9CHFeS2FeSC3H2C2FeSHSH2CHFeH3CHC2S2HCHSC3H4C2SNC2HC2HCH9C2FeHCH3SH2CH2CH2SFeSC2H2CHFeSFeS2CHCSFeSFeHCSH3CH3SFeHSHC2HSC4H2C2HCH4CFeH2CHSNFeHCH3CH3CSHCNCHCSCHSH2CH2FeCHCHCSHC2H4C4SCHS2FeHNH2CH2SCFeH4CSFeSFeCHCFeHSCH2CHCH2C2SNCH3SC2H2CH9CH2CH2CHNS2C5H2CFeH2CSH2NH3CHCH6CH2S2CNCHFeH2C2HCHCHCSFeHCH3CSCH2CH2CHCHNCHSH2CH2FeSFeS3Fe2S3H2SH6C6FeH2C2SNHCH2CHCH2CHCHSFeCH2SFeHSHCHSFeH2NCHCH4SC6H4CH2SH3FeH3CH5Fe2S3FeSC2SFeHSC6H2CHNH2CH2CH2CH2C2H3CH4CNS2CFeH4CH2C2HS2CHC3HNC5HNCHCHCH2C2H5SHFeCH3SHC3H3SHCH3SCH4CHCHC2NSH2S2C2FeHSFeH2CHFeSHC3HC2FeSFeSFeS2NSH4CH7SHCH3CHCHSC3HFeCH2SCH2SFeH4CSHFeHSFe2S2HC3H4NC3HC3H2SHC2SH3S2H2FeH2C3HNC4H5CHCH2CH2CH4CSCNHSFeH6CHCH2NH2C2SH5CNC2SCHCH4CH2CS2CH2C3H4CHSHCHSFeNHC2H2CH6FeS2FeSFeS2C2HCHCHNC2HCH5CH2CH3CNH3CH3CH2FeSH3CSCHC4HCSH2SHFe2H4SCHCH2NHC2HSH2CH2SCNC2HCHC4SH5FeSH5CHCHFeH2FeC2H2NH2CSHC3HSH2CH2C4HCHSC3H3CHFeNC2H3C2HC2SCH2NFe2S3C2HSCH2C2H3CH3C2H3CH4CH4CH8C3HNHFeH2SNCHSHSHCHC4SCH3CHCFeCH3SCSFeCH4CHCH2CSCSH2C2S2H2FeCH5CHCH3FeNCH2FeH4CH2SH4CHCHCH4SHCHS3CHNH2C2FeHSHC2H2C2HC3HCH2NHCH2CH3S2CH2CH2CSFeCFeSHC2HSH2CNH2CHFeH2CSH2CH3FeHC2H5CS2FeSFeSFeSHSHC2SHFeH4CSC2SC2HCH2NCH4CHCH4C2HCH2SC4H2S2FeHCH4CH2CNC2H5FeSFeHSHC2SFeHSCHCHCNCHCHFe2S3C3HCH2SNCH5CH3C2FeH4C3SCHNCHCH6SHC3SFeHCHCSCH4CFeHSCHCHCHNCH2C3H7CHFeS2NC2H4C2H8SHCH3C3SC3H2FeH3NH2C2H2SC2HS2CHCHS2C2HCH2SFeHFeCFeH4C2SCHCHCNH
_chemical_formula_sum              "H1024 C640 S256 Fe128 N64"
_cell_length_a       56.9471
_cell_length_b       57.416
_cell_length_c       33.1472
_cell_angle_alpha    89.3335
_cell_angle_beta     89.7525
_cell_angle_gamma    85.0654

_space_group_name_H-M_alt    "P 1"
_space_group_IT_number       1

loop_
  _space_group_symop_operation_xyz
  'x, y, z'

loop_
  _atom_site_type_symbol
  _atom_site_label
  _atom_site_symmetry_multiplicity
  _atom_site_fract_x
  _atom_site_fract_y
  _atom_site_fract_z
  _atom_site_occupancy
  H   H1        1.0  0.11326  0.30502  0.32238  1.0000
  C   C1        1.0  0.10740  0.32137  0.33667  1.0000
  S   S1        1.0  0.30654  0.18668  0.26909  1.0000
  Fe  Fe1       1.0  0.30925  0.16161  0.32127  1.0000
  N   N1        1.0  0.30180  0.09337  0.22990  1.0000
  H   H2        1.0  0.29840  0.26961  0.23660  1.0000
  C   C2        1.0  0.26072  0.24560  0.22610  1.0000
  H   H3        1.0  0.27734  0.28282  0.15294  1.0000
  H   H4        1.0  0.31179  0.26361  0.18836  1.0000
  H   H5        1.0  0.25782  0.25882  0.25030  1.0000
  H   H6        1.0  0.30834  0.24019  0.22370  1.0000
  C   C3        1.0  0.27885  0.23620  0.16174  1.0000
  C   C4        1.0  0.26598  0.27625  0.17730  1.0000
  H   H7        1.0  0.26844  0.22906  0.24046  1.0000
  H   H8        1.0  0.24309  0.24235  0.21411  1.0000
  H   H9        1.0  0.26149  0.23265  0.14902  1.0000
  H   H10       1.0  0.26393  0.28990  0.20098  1.0000
  H   H11       1.0  0.28962  0.24231  0.13626  1.0000
  C   C5        1.0  0.29971  0.25692  0.21137  1.0000
  N   N2        1.0  0.27632  0.25373  0.19412  1.0000
  H   H12       1.0  0.28767  0.21926  0.17286  1.0000
  H   H13       1.0  0.24828  0.27451  0.16412  1.0000
  C   C6        1.0  0.25020  0.24585  0.33314  1.0000
  H   H14       1.0  0.29563  0.29199  0.32034  1.0000
  C   C7        1.0  0.29049  0.25524  0.32166  1.0000
  C   C8        1.0  0.27406  0.23861  0.32619  1.0000
  H   H15       1.0  0.27972  0.22018  0.32459  1.0000
  C   C9        1.0  0.28676  0.11415  0.24315  1.0000
  S   S2        1.0  0.32031  0.24675  0.31226  1.0000
  Fe  Fe2       1.0  0.32874  0.20793  0.30752  1.0000
  H   H16       1.0  0.27931  0.12462  0.21704  1.0000
  C   C10       1.0  0.28300  0.27906  0.32406  1.0000
  C   C11       1.0  0.25921  0.28628  0.33136  1.0000
  H   H17       1.0  0.27184  0.10921  0.26239  1.0000
  H   H18       1.0  0.29695  0.12592  0.26136  1.0000
  S   S3        1.0  0.27990  0.14031  0.33934  1.0000
  C   C12       1.0  0.32213  0.10093  0.20684  1.0000
  H   H19       1.0  0.25356  0.30472  0.33278  1.0000
  C   C13       1.0  0.24280  0.26969  0.33615  1.0000
  H   H20       1.0  0.33500  0.15743  0.10091  1.0000
  H   H21       1.0  0.31635  0.11203  0.18032  1.0000
  H   H22       1.0  0.33321  0.11155  0.22572  1.0000
  C   C14       1.0  0.33594  0.22123  0.13748  1.0000
  C   C15       1.0  0.33519  0.17522  0.11123  1.0000
  H   H23       1.0  0.23754  0.23295  0.33674  1.0000
  S   S4        1.0  0.21315  0.27841  0.34683  1.0000
  S   S5        1.0  0.34184  0.14153  0.29859  1.0000
  Fe  Fe3       1.0  0.34101  0.16857  0.24959  1.0000
  C   C16       1.0  0.34011  0.17952  0.15167  1.0000
  H   H24       1.0  0.27034  0.09188  0.34319  1.0000
  H   H25       1.0  0.32009  0.09014  0.28670  1.0000
  H   H26       1.0  0.33673  0.23899  0.14741  1.0000
  C   C17       1.0  0.34069  0.20255  0.16473  1.0000
  H   H27       1.0  0.34496  0.20595  0.19576  1.0000
  S   S6        1.0  0.34486  0.15606  0.18584  1.0000
  S   S7        1.0  0.36348  0.19203  0.28331  1.0000
  Fe  Fe4       1.0  0.36128  0.16633  0.33467  1.0000
  H   H28       1.0  0.40286  0.19475  0.34660  1.0000
  H   H29       1.0  0.39460  0.10148  0.33816  1.0000
  H   H30       1.0  0.09443  0.30794  0.42177  1.0000
  H   H31       1.0  0.08743  0.33311  0.54253  1.0000
  S   S8        1.0  0.18359  0.31737  0.43022  1.0000
  C   C18       1.0  0.17967  0.33786  0.54533  1.0000
  C   C19       1.0  0.10362  0.31204  0.45013  1.0000
  H   H32       1.0  0.11115  0.31166  0.53017  1.0000
  C   C20       1.0  0.12370  0.33415  0.35662  1.0000
  H   H33       1.0  0.11591  0.32553  0.44260  1.0000
  C   C21       1.0  0.09969  0.32678  0.51796  1.0000
  H   H34       1.0  0.14207  0.32759  0.35777  1.0000
  H   H35       1.0  0.11459  0.29601  0.45983  1.0000
  C   C22       1.0  0.20439  0.31470  0.59271  1.0000
  C   C23       1.0  0.32610  0.09967  0.40685  1.0000
  C   C24       1.0  0.20120  0.32545  0.55479  1.0000
  C   C25       1.0  0.29371  0.11631  0.36546  1.0000
  Fe  Fe5       1.0  0.21275  0.33527  0.45825  1.0000
  S   S9        1.0  0.22474  0.32442  0.52055  1.0000
  Fe  Fe6       1.0  0.20780  0.31353  0.37660  1.0000
  S   S10       1.0  0.23787  0.32900  0.40659  1.0000
  H   H36       1.0  0.31993  0.13625  0.39201  1.0000
  C   C26       1.0  0.31383  0.11909  0.38838  1.0000
  S   S11       1.0  0.32847  0.18430  0.36191  1.0000
  H   H37       1.0  0.23322  0.28016  0.42836  1.0000
  H   H38       1.0  0.23276  0.24944  0.42092  1.0000
  C   C27       1.0  0.23572  0.26288  0.44389  1.0000
  H   H39       1.0  0.27564  0.27700  0.41334  1.0000
  C   C28       1.0  0.27755  0.26000  0.43008  1.0000
  N   N3        1.0  0.25944  0.25903  0.46199  1.0000
  H   H40       1.0  0.24890  0.27752  0.51609  1.0000
  H   H41       1.0  0.26082  0.29514  0.47743  1.0000
  H   H42       1.0  0.27971  0.23227  0.49589  1.0000
  H   H43       1.0  0.22157  0.26251  0.46709  1.0000
  C   C29       1.0  0.26197  0.23584  0.48210  1.0000
  C   C30       1.0  0.26250  0.27743  0.49183  1.0000
  H   H44       1.0  0.29570  0.25787  0.44265  1.0000
  H   H45       1.0  0.27622  0.24591  0.40771  1.0000
  H   H46       1.0  0.24859  0.23458  0.50646  1.0000
  H   H47       1.0  0.28010  0.27509  0.50642  1.0000
  H   H48       1.0  0.25962  0.22160  0.46028  1.0000
  H   H49       1.0  0.34151  0.10195  0.42483  1.0000
  C   C31       1.0  0.28589  0.09407  0.36091  1.0000
  H   H50       1.0  0.41348  0.09320  0.42546  1.0000
  H   H51       1.0  0.42467  0.10013  0.35394  1.0000
  H   H52       1.0  0.43360  0.11998  0.55181  1.0000
  H   H53       1.0  0.46001  0.13517  0.54992  1.0000
  H   H54       1.0  0.44025  0.21383  0.35281  1.0000
  H   H55       1.0  0.45916  0.10756  0.52561  1.0000
  H   H56       1.0  0.44325  0.23407  0.54410  1.0000
  H   H57       1.0  0.42485  0.17682  0.51087  1.0000
  C   C32       1.0  0.43198  0.23487  0.51662  1.0000
  N   N4        1.0  0.43275  0.21191  0.49669  1.0000
  C   C33       1.0  0.41689  0.16238  0.37422  1.0000
  C   C34       1.0  0.43685  0.15016  0.39113  1.0000
  C   C35       1.0  0.45804  0.16075  0.39383  1.0000
  C   C36       1.0  0.45923  0.18388  0.38095  1.0000
  C   C37       1.0  0.43937  0.19600  0.36332  1.0000
  C   C38       1.0  0.41821  0.18524  0.35981  1.0000
  H   H58       1.0  0.43601  0.13240  0.40187  1.0000
  S   S12       1.0  0.39048  0.14879  0.37294  1.0000
  C   C39       1.0  0.42436  0.19435  0.52505  1.0000
  C   C40       1.0  0.45722  0.20463  0.48456  1.0000
  H   H59       1.0  0.45834  0.18771  0.46842  1.0000
  H   H60       1.0  0.46090  0.09504  0.43143  1.0000
  H   H61       1.0  0.43556  0.19254  0.55261  1.0000
  H   H62       1.0  0.40591  0.19926  0.53491  1.0000
  H   H63       1.0  0.41376  0.24100  0.52616  1.0000
  H   H64       1.0  0.43844  0.24846  0.49611  1.0000
  H   H65       1.0  0.39905  0.21970  0.46803  1.0000
  C   C41       1.0  0.41761  0.21365  0.46045  1.0000
  H   H66       1.0  0.41742  0.19643  0.44534  1.0000
  H   H67       1.0  0.46441  0.21768  0.46377  1.0000
  H   H68       1.0  0.42405  0.22606  0.43766  1.0000
  H   H69       1.0  0.38339  0.09669  0.40911  1.0000
  C   C42       1.0  0.45319  0.11762  0.55280  1.0000
  N   N5        1.0  0.46163  0.10546  0.59025  1.0000
  S   S13       1.0  0.54805  0.15421  0.52319  1.0000
  Fe  Fe7       1.0  0.53622  0.13724  0.46746  1.0000
  H   H70       1.0  0.49037  0.25625  0.59122  1.0000
  S   S14       1.0  0.48895  0.17119  0.58109  1.0000
  S   S15       1.0  0.48480  0.19831  0.38914  1.0000
  Fe  Fe8       1.0  0.50967  0.18125  0.43555  1.0000
  S   S16       1.0  0.51982  0.20272  0.48789  1.0000
  Fe  Fe9       1.0  0.51160  0.17183  0.52572  1.0000
  H   H71       1.0  0.58276  0.26244  0.58012  1.0000
  H   H72       1.0  0.49531  0.11978  0.58815  1.0000
  H   H73       1.0  0.49449  0.09233  0.56340  1.0000
  S   S17       1.0  0.54650  0.16497  0.42443  1.0000
  C   C43       1.0  0.48919  0.21897  0.58485  1.0000
  C   C44       1.0  0.49802  0.09635  0.44280  1.0000
  H   H74       1.0  0.46906  0.20246  0.51113  1.0000
  C   C45       1.0  0.48768  0.10257  0.58989  1.0000
  S   S18       1.0  0.49883  0.15187  0.47440  1.0000
  H   H75       1.0  0.58294  0.24577  0.53416  1.0000
  S   S19       1.0  0.54469  0.09885  0.46017  1.0000
  H   H76       1.0  0.57662  0.20967  0.41004  1.0000
  H   H77       1.0  0.50233  0.21772  0.56140  1.0000
  H   H78       1.0  0.47353  0.15081  0.40518  1.0000
  Fe  Fe10      1.0  0.55546  0.18345  0.48095  1.0000
  H   H79       1.0  0.50002  0.11014  0.42082  1.0000
  C   C46       1.0  0.41049  0.08924  0.34427  1.0000
  Fe  Fe11      1.0  0.15514  0.32649  0.71339  1.0000
  S   S20       1.0  0.14035  0.29834  0.75065  1.0000
  S   S21       1.0  0.17127  0.31681  0.82664  1.0000
  Fe  Fe12      1.0  0.17706  0.29204  0.77505  1.0000
  Fe  Fe13      1.0  0.13579  0.32566  0.79864  1.0000
  C   C47       1.0  0.18628  0.31684  0.62156  1.0000
  S   S22       1.0  0.19246  0.31801  0.73364  1.0000
  C   C48       1.0  0.16509  0.32998  0.61272  1.0000
  S   S23       1.0  0.10219  0.33207  0.83414  1.0000
  S   S24       1.0  0.19676  0.25656  0.77922  1.0000
  S   S25       1.0  0.14330  0.33517  0.64985  1.0000
  H   H80       1.0  0.18876  0.30832  0.65058  1.0000
  C   C49       1.0  0.20215  0.24539  0.82807  1.0000
  H   H81       1.0  0.10216  0.33844  0.74831  1.0000
  H   H82       1.0  0.23011  0.22052  0.80806  1.0000
  H   H83       1.0  0.26747  0.31357  0.79237  1.0000
  C   C50       1.0  0.25169  0.31237  0.81196  1.0000
  H   H84       1.0  0.23652  0.30950  0.79208  1.0000
  C   C51       1.0  0.22048  0.22787  0.83382  1.0000
  H   H85       1.0  0.27684  0.27051  0.80306  1.0000
  H   H86       1.0  0.24575  0.26709  0.80143  1.0000
  C   C52       1.0  0.26050  0.27080  0.82167  1.0000
  H   H87       1.0  0.24768  0.32968  0.82650  1.0000
  N   N6        1.0  0.25562  0.29339  0.84233  1.0000
  H   H88       1.0  0.22094  0.30489  0.59993  1.0000
  H   H89       1.0  0.21866  0.28980  0.84899  1.0000
  H   H90       1.0  0.26308  0.25601  0.84374  1.0000
  H   H91       1.0  0.36413  0.21509  0.82099  1.0000
  S   S26       1.0  0.43101  0.18068  0.76381  1.0000
  C   C53       1.0  0.44914  0.15877  0.78813  1.0000
  H   H92       1.0  0.42964  0.13101  0.76625  1.0000
  C   C54       1.0  0.44404  0.13550  0.78504  1.0000
  H   H93       1.0  0.45599  0.18518  0.64313  1.0000
  H   H94       1.0  0.44417  0.22362  0.67297  1.0000
  Fe  Fe14      1.0  0.44513  0.21540  0.77212  1.0000
  S   S27       1.0  0.42357  0.24782  0.75203  1.0000
  H   H95       1.0  0.34672  0.26138  0.79316  1.0000
  H   H96       1.0  0.38655  0.27545  0.79284  1.0000
  Fe  Fe15      1.0  0.43687  0.26354  0.80850  1.0000
  C   C55       1.0  0.35502  0.26518  0.82137  1.0000
  C   C56       1.0  0.45663  0.22241  0.64820  1.0000
  C   C57       1.0  0.37766  0.27286  0.82117  1.0000
  H   H97       1.0  0.45338  0.10006  0.80380  1.0000
  C   C58       1.0  0.45734  0.11799  0.80670  1.0000
  S   S28       1.0  0.45499  0.22988  0.83139  1.0000
  C   C59       1.0  0.46330  0.20064  0.63122  1.0000
  Fe  Fe16      1.0  0.45755  0.25731  0.72463  1.0000
  S   S29       1.0  0.46132  0.26861  0.66030  1.0000
  H   H98       1.0  0.46018  0.13711  0.62470  1.0000
  H   H99       1.0  0.45945  0.11081  0.65440  1.0000
  H   H100      1.0  0.40363  0.16108  0.83664  1.0000
  H   H101      1.0  0.43381  0.12202  0.62683  1.0000
  H   H102      1.0  0.37909  0.19000  0.79701  1.0000
  C   C60       1.0  0.45340  0.11946  0.62557  1.0000
  C   C61       1.0  0.46799  0.16445  0.81204  1.0000
  H   H103      1.0  0.39557  0.21309  0.81424  1.0000
  C   C62       1.0  0.38037  0.20281  0.82170  1.0000
  H   H104      1.0  0.36018  0.16453  0.84770  1.0000
  H   H105      1.0  0.47229  0.18234  0.81400  1.0000
  C   C63       1.0  0.46657  0.24243  0.63412  1.0000
  C   C64       1.0  0.47542  0.12375  0.83222  1.0000
  S   S30       1.0  0.46865  0.27655  0.77879  1.0000
  H   H106      1.0  0.54224  0.10101  0.88358  1.0000
  H   H107      1.0  0.53624  0.18754  0.60398  1.0000
  C   C65       1.0  0.47982  0.19885  0.59993  1.0000
  C   C66       1.0  0.48105  0.14694  0.83432  1.0000
  H   H108      1.0  0.58028  0.20249  0.67955  1.0000
  H   H109      1.0  0.51655  0.21466  0.65520  1.0000
  H   H110      1.0  0.51505  0.17237  0.66273  1.0000
  H   H111      1.0  0.54404  0.22755  0.65906  1.0000
  C   C67       1.0  0.53178  0.17188  0.68021  1.0000
  H   H112      1.0  0.56509  0.19181  0.72231  1.0000
  N   N7        1.0  0.54670  0.19015  0.66591  1.0000
  C   C68       1.0  0.56872  0.18888  0.68963  1.0000
  C   C69       1.0  0.53376  0.21335  0.67107  1.0000
  H   H113      1.0  0.52993  0.21698  0.70346  1.0000
  Fe  Fe17      1.0  0.48613  0.24192  0.79829  1.0000
  S   S31       1.0  0.47840  0.22372  0.74138  1.0000
  C   C70       1.0  0.54179  0.24528  0.78661  1.0000
  C   C71       1.0  0.53357  0.25738  0.75188  1.0000
  H   H114      1.0  0.51533  0.26405  0.74952  1.0000
  C   C72       1.0  0.55247  0.18657  0.62276  1.0000
  C   C73       1.0  0.54887  0.26049  0.71947  1.0000
  H   H115      1.0  0.54228  0.26948  0.69239  1.0000
  C   C74       1.0  0.56551  0.23684  0.78929  1.0000
  C   C75       1.0  0.57224  0.25085  0.72118  1.0000
  H   H116      1.0  0.52688  0.17433  0.71257  1.0000
  H   H117      1.0  0.57199  0.22766  0.81626  1.0000
  S   S32       1.0  0.52209  0.23956  0.82546  1.0000
  C   C76       1.0  0.58070  0.23950  0.75645  1.0000
  H   H118      1.0  0.56374  0.20009  0.61107  1.0000
  H   H119      1.0  0.49472  0.09328  0.61750  1.0000
  H   H120      1.0  0.54101  0.15411  0.67703  1.0000
  C   C77       1.0  0.48244  0.24081  0.60177  1.0000
  H   H121      1.0  0.56225  0.16920  0.61773  1.0000
  H   H122      1.0  0.53763  0.10940  0.83195  1.0000
  H   H123      1.0  0.57907  0.17161  0.68650  1.0000
  H   H124      1.0  0.50567  0.29176  0.83431  1.0000
  H   H125      1.0  0.17492  0.26769  0.85708  1.0000
  C   C78       1.0  0.18945  0.25452  0.86140  1.0000
  C   C79       1.0  0.19584  0.24680  0.90055  1.0000
  H   H126      1.0  0.18634  0.25421  0.92637  1.0000
  H   H127      1.0  0.18749  0.15319  0.95840  1.0000
  H   H128      1.0  0.20504  0.13970  0.89256  1.0000
  H   H129      1.0  0.20653  0.16126  0.99811  1.0000
  C   C80       1.0  0.20444  0.16070  0.96475  1.0000
  H   H130      1.0  0.20284  0.17914  0.95353  1.0000
  H   H131      1.0  0.20942  0.11405  0.95352  1.0000
  C   C81       1.0  0.32993  0.19393  0.08425  1.0000
  C   C82       1.0  0.22571  0.12255  0.96074  1.0000
  H   H132      1.0  0.22793  0.12163  0.99412  1.0000
  C   C83       1.0  0.22152  0.14740  0.90139  1.0000
  H   H133      1.0  0.27296  0.31475  0.88389  1.0000
  H   H134      1.0  0.29241  0.29813  0.84987  1.0000
  C   C84       1.0  0.27591  0.29779  0.86798  1.0000
  H   H135      1.0  0.23026  0.30917  0.88432  1.0000
  H   H136      1.0  0.33190  0.10065  0.03918  1.0000
  H   H137      1.0  0.22058  0.16564  0.88919  1.0000
  H   H138      1.0  0.24085  0.11169  0.94734  1.0000
  C   C85       1.0  0.23431  0.29257  0.86770  1.0000
  H   H139      1.0  0.27925  0.28376  0.89124  1.0000
  H   H140      1.0  0.23651  0.13728  0.88611  1.0000
  H   H141      1.0  0.23635  0.27801  0.89029  1.0000
  H   H142      1.0  0.26224  0.14741  0.94187  1.0000
  H   H143      1.0  0.24952  0.15735  0.98898  1.0000
  C   C86       1.0  0.24665  0.15728  0.95580  1.0000
  H   H144      1.0  0.24635  0.17569  0.94492  1.0000
  N   N8        1.0  0.22456  0.14696  0.94566  1.0000
  S   S33       1.0  0.32008  0.24057  0.06571  1.0000
  S   S34       1.0  0.28438  0.19778  0.00632  1.0000
  S   S35       1.0  0.28630  0.20193  0.90801  1.0000
  Fe  Fe18      1.0  0.30873  0.18459  0.95662  1.0000
  C   C87       1.0  0.30595  0.12884  0.97470  1.0000
  C   C88       1.0  0.29599  0.13566  0.01181  1.0000
  H   H145      1.0  0.30037  0.15168  0.02554  1.0000
  H   H146      1.0  0.27258  0.12706  0.06003  1.0000
  H   H147      1.0  0.24119  0.20694  0.87683  1.0000
  C   C89       1.0  0.28054  0.12158  0.03159  1.0000
  C   C90       1.0  0.30124  0.10744  0.95818  1.0000
  C   C91       1.0  0.27544  0.10043  0.01464  1.0000
  H   H148      1.0  0.30889  0.10209  0.92943  1.0000
  S   S36       1.0  0.32323  0.14743  0.94783  1.0000
  Fe  Fe19      1.0  0.30719  0.22772  0.00676  1.0000
  Fe  Fe20      1.0  0.26423  0.21813  0.95788  1.0000
  S   S37       1.0  0.22464  0.22234  0.95523  1.0000
  S   S38       1.0  0.28454  0.24969  0.96293  1.0000
  C   C92       1.0  0.21505  0.23018  0.90630  1.0000
  C   C93       1.0  0.22700  0.22039  0.87283  1.0000
  S   S39       1.0  0.31666  0.24910  0.85733  1.0000
  Fe  Fe21      1.0  0.30795  0.23213  0.91592  1.0000
  H   H149      1.0  0.32601  0.19046  0.05320  1.0000
  S   S40       1.0  0.33284  0.21324  0.95988  1.0000
  C   C94       1.0  0.28609  0.09319  0.97824  1.0000
  C   C95       1.0  0.32973  0.21699  0.09757  1.0000
  H   H150      1.0  0.35047  0.09565  0.97144  1.0000
  H   H151      1.0  0.42085  0.18356  0.85407  1.0000
  C   C96       1.0  0.40477  0.17439  0.86058  1.0000
  H   H152      1.0  0.34608  0.19018  0.87100  1.0000
  H   H153      1.0  0.37420  0.10592  0.02979  1.0000
  H   H154      1.0  0.40753  0.16489  0.88985  1.0000
  H   H155      1.0  0.40111  0.21920  0.88621  1.0000
  H   H156      1.0  0.36994  0.22094  0.89483  1.0000
  H   H157      1.0  0.38886  0.20033  0.92314  1.0000
  C   C97       1.0  0.38602  0.20861  0.89282  1.0000
  H   H158      1.0  0.36402  0.16929  0.90063  1.0000
  C   C98       1.0  0.36254  0.17817  0.87056  1.0000
  N   N9        1.0  0.38343  0.19097  0.86142  1.0000
  S   S41       1.0  0.41789  0.28449  0.85703  1.0000
  C   C99       1.0  0.37673  0.27483  0.89410  1.0000
  C   C100      1.0  0.38865  0.27740  0.85749  1.0000
  C   C101      1.0  0.34355  0.26155  0.85795  1.0000
  H   H159      1.0  0.38522  0.27839  0.92225  1.0000
  C   C102      1.0  0.35417  0.26673  0.89437  1.0000
  H   H160      1.0  0.34521  0.26409  0.92271  1.0000
  H   H161      1.0  0.45522  0.31157  0.90065  1.0000
  S   S42       1.0  0.49043  0.10208  0.86229  1.0000
  H   H162      1.0  0.51317  0.29037  0.94562  1.0000
  C   C103      1.0  0.49819  0.30246  0.93447  1.0000
  H   H163      1.0  0.48351  0.30187  0.95670  1.0000
  C   C104      1.0  0.55096  0.10117  0.85342  1.0000
  H   H164      1.0  0.56563  0.11272  0.85513  1.0000
  H   H165      1.0  0.50397  0.32049  0.93442  1.0000
  H   H166      1.0  0.47780  0.26637  0.86520  1.0000
  H   H167      1.0  0.46791  0.27045  0.91602  1.0000
  H   H168      1.0  0.46466  0.30765  0.84966  1.0000
  C   C105      1.0  0.48325  0.27184  0.89544  1.0000
  H   H169      1.0  0.49783  0.25889  0.90540  1.0000
  H   H170      1.0  0.47561  0.33052  0.87879  1.0000
  N   N10       1.0  0.49073  0.29583  0.89385  1.0000
  H   H171      1.0  0.52588  0.28425  0.87426  1.0000
  C   C106      1.0  0.51067  0.29674  0.86528  1.0000
  H   H172      1.0  0.49516  0.15144  0.85373  1.0000
  H   H173      1.0  0.51694  0.31453  0.86329  1.0000
  C   C107      1.0  0.47076  0.31217  0.88022  1.0000
  N   N11       1.0  0.15421  0.41698  0.31239  1.0000
  S   S43       1.0  0.13512  0.46836  0.19306  1.0000
  Fe  Fe22      1.0  0.17151  0.54254  0.22600  1.0000
  S   S44       1.0  0.17433  0.52090  0.17008  1.0000
  Fe  Fe23      1.0  0.16200  0.49252  0.20956  1.0000
  S   S45       1.0  0.15550  0.51525  0.26332  1.0000
  H   H174      1.0  0.12572  0.51040  0.14479  1.0000
  C   C108      1.0  0.10909  0.48578  0.18276  1.0000
  C   C109      1.0  0.10946  0.50578  0.15827  1.0000
  C   C110      1.0  0.14022  0.43668  0.29236  1.0000
  H   H175      1.0  0.13885  0.43387  0.25931  1.0000
  S   S46       1.0  0.15323  0.57880  0.22624  1.0000
  C   C111      1.0  0.17837  0.41491  0.29555  1.0000
  H   H176      1.0  0.17838  0.41141  0.26263  1.0000
  H   H177      1.0  0.14194  0.39118  0.27280  1.0000
  H   H178      1.0  0.14839  0.45346  0.29634  1.0000
  C   C112      1.0  0.14303  0.39507  0.30550  1.0000
  H   H179      1.0  0.14851  0.44049  0.12465  1.0000
  H   H180      1.0  0.18715  0.43129  0.29987  1.0000
  H   H181      1.0  0.18964  0.40049  0.31045  1.0000
  H   H182      1.0  0.10801  0.55819  0.20838  1.0000
  Fe  Fe24      1.0  0.19261  0.50306  0.27979  1.0000
  H   H183      1.0  0.15308  0.37990  0.32041  1.0000
  S   S47       1.0  0.19782  0.47797  0.22870  1.0000
  H   H184      1.0  0.12482  0.39597  0.31817  1.0000
  H   H185      1.0  0.12197  0.43900  0.30470  1.0000
  H   H186      1.0  0.18577  0.45672  0.14424  1.0000
  H   H187      1.0  0.17853  0.56995  0.31191  1.0000
  H   H188      1.0  0.17967  0.54154  0.33511  1.0000
  C   C113      1.0  0.17944  0.56055  0.34146  1.0000
  H   H189      1.0  0.09355  0.53388  0.26119  1.0000
  H   H190      1.0  0.15314  0.48277  0.11681  1.0000
  H   H191      1.0  0.08885  0.53505  0.13119  1.0000
  C   C114      1.0  0.19219  0.45353  0.11283  1.0000
  H   H192      1.0  0.09564  0.58762  0.20038  1.0000
  H   H193      1.0  0.11344  0.56918  0.28145  1.0000
  C   C115      1.0  0.09620  0.57981  0.27917  1.0000
  S   S48       1.0  0.19349  0.34723  0.34750  1.0000
  C   C116      1.0  0.09129  0.56977  0.20948  1.0000
  H   H194      1.0  0.20186  0.43586  0.11219  1.0000
  H   H195      1.0  0.20522  0.46643  0.10608  1.0000
  S   S49       1.0  0.19923  0.49325  0.34470  1.0000
  H   H196      1.0  0.08780  0.46529  0.22070  1.0000
  H   H197      1.0  0.08814  0.58106  0.30983  1.0000
  C   C117      1.0  0.08858  0.51987  0.15080  1.0000
  C   C118      1.0  0.08803  0.48036  0.20085  1.0000
  Fe  Fe25      1.0  0.21006  0.50852  0.19403  1.0000
  H   H198      1.0  0.22200  0.56830  0.31158  1.0000
  S   S50       1.0  0.20835  0.53237  0.24730  1.0000
  H   H199      1.0  0.24945  0.42632  0.29438  1.0000
  C   C119      1.0  0.22817  0.45620  0.31718  1.0000
  S   S51       1.0  0.24271  0.50347  0.15610  1.0000
  H   H200      1.0  0.23272  0.46759  0.29269  1.0000
  H   H201      1.0  0.20395  0.58018  0.23299  1.0000
  C   C120      1.0  0.23777  0.43288  0.31829  1.0000
  H   H202      1.0  0.20507  0.52284  0.10349  1.0000
  C   C121      1.0  0.23812  0.50164  0.10406  1.0000
  S   S52       1.0  0.24272  0.38835  0.34842  1.0000
  C   C122      1.0  0.22195  0.55882  0.34108  1.0000
  C   C123      1.0  0.21302  0.46475  0.34790  1.0000
  H   H203      1.0  0.22344  0.53971  0.33473  1.0000
  C   C124      1.0  0.09225  0.36339  0.37412  1.0000
  Fe  Fe26      1.0  0.17235  0.35277  0.40425  1.0000
  H   H204      1.0  0.17715  0.34621  0.51605  1.0000
  C   C125      1.0  0.15524  0.42129  0.35620  1.0000
  H   H205      1.0  0.16261  0.43820  0.36246  1.0000
  H   H206      1.0  0.16285  0.56578  0.35809  1.0000
  H   H207      1.0  0.16653  0.40723  0.37199  1.0000
  H   H208      1.0  0.13744  0.42176  0.37038  1.0000
  H   H209      1.0  0.18504  0.55722  0.42170  1.0000
  S   S53       1.0  0.19945  0.37123  0.43725  1.0000
  C   C126      1.0  0.11600  0.35498  0.37588  1.0000
  S   S54       1.0  0.13548  0.37003  0.40432  1.0000
  H   H210      1.0  0.19641  0.45673  0.40429  1.0000
  H   H211      1.0  0.14525  0.35034  0.56743  1.0000
  H   H212      1.0  0.11127  0.34099  0.51088  1.0000
  C   C127      1.0  0.16165  0.34017  0.57436  1.0000
  Fe  Fe27      1.0  0.22159  0.36325  0.38225  1.0000
  C   C128      1.0  0.21705  0.42657  0.38081  1.0000
  C   C129      1.0  0.20791  0.45009  0.38023  1.0000
  N   N12       1.0  0.20044  0.56580  0.36463  1.0000
  H   H213      1.0  0.20208  0.53336  0.39802  1.0000
  H   H214      1.0  0.21284  0.41525  0.40553  1.0000
  C   C130      1.0  0.20109  0.55258  0.40322  1.0000
  H   H215      1.0  0.23816  0.56265  0.35749  1.0000
  C   C131      1.0  0.23190  0.41790  0.34968  1.0000
  H   H216      1.0  0.21672  0.55610  0.42150  1.0000
  S   S55       1.0  0.20933  0.36810  0.80338  1.0000
  H   H217      1.0  0.17390  0.39278  0.75386  1.0000
  C   C132      1.0  0.19548  0.39653  0.80599  1.0000
  C   C133      1.0  0.17807  0.40404  0.77806  1.0000
  C   C134      1.0  0.17122  0.44097  0.81269  1.0000
  H   H218      1.0  0.15250  0.43196  0.75962  1.0000
  C   C135      1.0  0.16612  0.42629  0.78113  1.0000
  S   S56       1.0  0.15432  0.46771  0.81794  1.0000
  C   C136      1.0  0.17940  0.38224  0.66380  1.0000
  H   H219      1.0  0.16948  0.39677  0.68021  1.0000
  H   H220      1.0  0.16966  0.37947  0.63541  1.0000
  S   S57       1.0  0.14755  0.35441  0.75944  1.0000
  C   C137      1.0  0.20132  0.41157  0.83660  1.0000
  C   C138      1.0  0.18905  0.43374  0.84016  1.0000
  H   H221      1.0  0.17866  0.36605  0.68242  1.0000
  H   H222      1.0  0.12831  0.37455  0.83873  1.0000
  H   H223      1.0  0.20745  0.36480  0.60410  1.0000
  N   N13       1.0  0.20400  0.38729  0.65554  1.0000
  H   H224      1.0  0.19486  0.42410  0.64654  1.0000
  C   C139      1.0  0.20405  0.40887  0.63078  1.0000
  H   H225      1.0  0.20805  0.40567  0.71097  1.0000
  H   H226      1.0  0.12768  0.40119  0.80966  1.0000
  C   C140      1.0  0.13032  0.39363  0.84053  1.0000
  H   H227      1.0  0.19494  0.40699  0.60145  1.0000
  H   H228      1.0  0.21634  0.35096  0.65108  1.0000
  H   H229      1.0  0.11416  0.43908  0.84145  1.0000
  H   H230      1.0  0.14887  0.39568  0.84935  1.0000
  Fe  Fe28      1.0  0.18354  0.34333  0.78310  1.0000
  C   C141      1.0  0.21623  0.36758  0.63340  1.0000
  H   H231      1.0  0.23512  0.39345  0.68910  1.0000
  C   C142      1.0  0.21628  0.39042  0.69406  1.0000
  H   H232      1.0  0.22234  0.41321  0.62394  1.0000
  H   H233      1.0  0.23486  0.37066  0.62656  1.0000
  H   H234      1.0  0.21581  0.37475  0.71413  1.0000
  H   H235      1.0  0.11504  0.37517  0.90928  1.0000
  C   C143      1.0  0.15577  0.43807  0.09361  1.0000
  H   H236      1.0  0.13566  0.39624  0.92063  1.0000
  C   C144      1.0  0.16018  0.47928  0.08603  1.0000
  N   N14       1.0  0.11344  0.40510  0.86955  1.0000
  C   C145      1.0  0.11693  0.43030  0.87142  1.0000
  H   H237      1.0  0.10452  0.43954  0.89309  1.0000
  N   N15       1.0  0.17250  0.45562  0.08372  1.0000
  H   H238      1.0  0.14504  0.48148  0.06483  1.0000
  H   H239      1.0  0.17215  0.49301  0.07862  1.0000
  S   S58       1.0  0.11521  0.46415  0.00469  1.0000
  S   S59       1.0  0.17967  0.51410  0.89072  1.0000
  Fe  Fe29      1.0  0.13733  0.48429  0.96284  1.0000
  S   S60       1.0  0.12477  0.50235  0.90570  1.0000
  Fe  Fe30      1.0  0.15746  0.48470  0.87810  1.0000
  Fe  Fe31      1.0  0.14796  0.53003  0.92380  1.0000
  S   S61       1.0  0.13661  0.56809  0.91453  1.0000
  S   S62       1.0  0.16828  0.46433  0.93386  1.0000
  S   S63       1.0  0.15775  0.51352  0.98374  1.0000
  H   H240      1.0  0.15978  0.56379  0.99227  1.0000
  C   C146      1.0  0.18172  0.45163  0.04242  1.0000
  H   H241      1.0  0.19157  0.43413  0.03965  1.0000
  H   H242      1.0  0.19397  0.46488  0.03344  1.0000
  H   H243      1.0  0.19354  0.44528  0.86391  1.0000
  Fe  Fe32      1.0  0.18776  0.49531  0.94929  1.0000
  H   H244      1.0  0.16715  0.45270  0.02006  1.0000
  H   H245      1.0  0.13515  0.43322  0.88103  1.0000
  C   C147      1.0  0.15375  0.58671  0.94080  1.0000
  C   C148      1.0  0.16317  0.58035  0.97866  1.0000
  H   H246      1.0  0.10500  0.40236  0.93250  1.0000
  H   H247      1.0  0.09089  0.42252  0.01006  1.0000
  C   C149      1.0  0.11747  0.39422  0.90982  1.0000
  H   H248      1.0  0.14048  0.43949  0.07258  1.0000
  H   H249      1.0  0.19801  0.51729  0.03076  1.0000
  H   H250      1.0  0.16434  0.41997  0.09177  1.0000
  C   C150      1.0  0.08912  0.40211  0.85639  1.0000
  C   C151      1.0  0.09048  0.45580  0.97926  1.0000
  H   H251      1.0  0.27097  0.48097  0.09440  1.0000
  H   H252      1.0  0.20741  0.55166  0.98143  1.0000
  C   C152      1.0  0.21766  0.51214  0.08589  1.0000
  H   H253      1.0  0.21499  0.40594  0.85804  1.0000
  H   H254      1.0  0.21839  0.53640  0.93754  1.0000
  C   C153      1.0  0.23716  0.58606  0.97640  1.0000
  H   H255      1.0  0.20533  0.56585  0.93275  1.0000
  C   C154      1.0  0.21679  0.55377  0.95228  1.0000
  C   C155      1.0  0.25233  0.56385  0.91913  1.0000
  S   S64       1.0  0.22521  0.49006  0.97051  1.0000
  H   H256      1.0  0.24546  0.54486  0.01571  1.0000
  H   H257      1.0  0.24200  0.57579  0.89773  1.0000
  H   H258      1.0  0.27001  0.57047  0.92251  1.0000
  C   C156      1.0  0.23015  0.49539  0.02157  1.0000
  C   C157      1.0  0.21369  0.50901  0.04462  1.0000
  N   N16       1.0  0.24014  0.56253  0.95844  1.0000
  C   C158      1.0  0.25501  0.48890  0.08054  1.0000
  C   C159      1.0  0.25103  0.48577  0.03938  1.0000
  H   H259      1.0  0.25683  0.52847  0.97317  1.0000
  H   H260      1.0  0.27201  0.55244  0.99130  1.0000
  H   H261      1.0  0.25486  0.54634  0.90482  1.0000
  C   C160      1.0  0.25427  0.54641  0.98583  1.0000
  H   H262      1.0  0.22788  0.58578  0.00602  1.0000
  H   H263      1.0  0.26396  0.47545  0.02155  1.0000
  Fe  Fe33      1.0  0.19347  0.68716  0.30929  1.0000
  S   S65       1.0  0.17887  0.70077  0.25063  1.0000
  Fe  Fe34      1.0  0.14505  0.70732  0.28373  1.0000
  S   S66       1.0  0.11342  0.69991  0.24780  1.0000
  C   C161      1.0  0.19799  0.63296  0.27912  1.0000
  C   C162      1.0  0.16000  0.62123  0.25805  1.0000
  C   C163      1.0  0.17359  0.63766  0.27543  1.0000
  H   H264      1.0  0.14105  0.62473  0.25633  1.0000
  H   H265      1.0  0.16509  0.65376  0.28669  1.0000
  H   H266      1.0  0.12615  0.66471  0.30927  1.0000
  C   C164      1.0  0.10967  0.66121  0.29605  1.0000
  Fe  Fe35      1.0  0.18668  0.73591  0.27178  1.0000
  H   H267      1.0  0.15195  0.74631  0.21612  1.0000
  C   C165      1.0  0.15954  0.74668  0.18634  1.0000
  S   S67       1.0  0.15143  0.74376  0.30093  1.0000
  C   C166      1.0  0.14642  0.74013  0.15348  1.0000
  H   H268      1.0  0.12900  0.73452  0.15840  1.0000
  C   C167      1.0  0.18233  0.75348  0.18071  1.0000
  S   S68       1.0  0.15880  0.69122  0.34181  1.0000
  C   C168      1.0  0.19184  0.75406  0.14167  1.0000
  N   N17       1.0  0.17748  0.81425  0.33501  1.0000
  C   C169      1.0  0.10040  0.67487  0.26371  1.0000
  H   H269      1.0  0.14423  0.79983  0.34386  1.0000
  C   C170      1.0  0.15234  0.81315  0.32489  1.0000
  N   N18       1.0  0.17798  0.66667  0.14019  1.0000
  C   C171      1.0  0.18829  0.65101  0.17240  1.0000
  C   C172      1.0  0.15609  0.74000  0.11471  1.0000
  C   C173      1.0  0.15380  0.67570  0.15171  1.0000
  H   H270      1.0  0.14233  0.66126  0.15731  1.0000
  H   H271      1.0  0.15013  0.80841  0.29273  1.0000
  C   C174      1.0  0.17082  0.60010  0.24393  1.0000
  H   H272      1.0  0.10326  0.63433  0.33974  1.0000
  C   C175      1.0  0.09067  0.71083  0.34973  1.0000
  C   C176      1.0  0.09683  0.64378  0.31302  1.0000
  H   H273      1.0  0.15369  0.68619  0.17974  1.0000
  H   H274      1.0  0.19296  0.69745  0.16154  1.0000
  C   C177      1.0  0.19265  0.68646  0.13411  1.0000
  H   H275      1.0  0.14546  0.68731  0.12769  1.0000
  H   H276      1.0  0.17753  0.63600  0.17802  1.0000
  H   H277      1.0  0.09923  0.72288  0.32882  1.0000
  H   H278      1.0  0.16631  0.63840  0.10547  1.0000
  C   C178      1.0  0.17721  0.65349  0.10226  1.0000
  H   H279      1.0  0.23196  0.77979  0.42111  1.0000
  C   C179      1.0  0.20894  0.61222  0.26354  1.0000
  H   H280      1.0  0.18947  0.66038  0.20137  1.0000
  H   H281      1.0  0.20646  0.64373  0.16454  1.0000
  H   H282      1.0  0.09186  0.71190  0.16976  1.0000
  H   H283      1.0  0.10003  0.59779  0.26986  1.0000
  H   H284      1.0  0.14205  0.83028  0.33003  1.0000
  H   H285      1.0  0.18580  0.69804  0.10894  1.0000
  C   C180      1.0  0.17876  0.74713  0.10860  1.0000
  C   C181      1.0  0.19041  0.79122  0.32782  1.0000
  H   H286      1.0  0.18980  0.78630  0.29547  1.0000
  H   H287      1.0  0.18640  0.82800  0.27689  1.0000
  C   C182      1.0  0.18754  0.83220  0.30951  1.0000
  S   S69       1.0  0.19923  0.75920  0.22313  1.0000
  C   C183      1.0  0.19537  0.59591  0.24562  1.0000
  H   H288      1.0  0.18275  0.77720  0.34572  1.0000
  H   H289      1.0  0.19850  0.60162  0.34429  1.0000
  S   S70       1.0  0.20514  0.72193  0.32791  1.0000
  S   S71       1.0  0.21464  0.65248  0.30452  1.0000
  H   H290      1.0  0.20930  0.79111  0.33641  1.0000
  H   H291      1.0  0.20646  0.83354  0.31671  1.0000
  H   H292      1.0  0.22789  0.60876  0.26549  1.0000
  H   H293      1.0  0.20951  0.75920  0.13715  1.0000
  H   H294      1.0  0.21119  0.68033  0.12650  1.0000
  Fe  Fe36      1.0  0.16889  0.72710  0.35578  1.0000
  H   H295      1.0  0.10456  0.69738  0.36038  1.0000
  H   H296      1.0  0.21505  0.59587  0.38956  1.0000
  C   C184      1.0  0.17957  0.82042  0.37790  1.0000
  H   H297      1.0  0.17046  0.83788  0.38426  1.0000
  C   C185      1.0  0.09655  0.73544  0.40663  1.0000
  C   C186      1.0  0.20016  0.76188  0.42062  1.0000
  H   H298      1.0  0.15197  0.77583  0.47924  1.0000
  H   H299      1.0  0.17772  0.80535  0.50362  1.0000
  C   C187      1.0  0.16944  0.77658  0.46662  1.0000
  C   C188      1.0  0.18386  0.79351  0.48004  1.0000
  C   C189      1.0  0.17729  0.76124  0.43595  1.0000
  S   S72       1.0  0.15758  0.74282  0.41520  1.0000
  H   H300      1.0  0.09559  0.82371  0.54402  1.0000
  H   H301      1.0  0.17154  0.80763  0.39794  1.0000
  H   H302      1.0  0.10534  0.74808  0.38721  1.0000
  H   H303      1.0  0.11076  0.72275  0.41880  1.0000
  H   H304      1.0  0.08838  0.74523  0.43263  1.0000
  H   H305      1.0  0.18338  0.59704  0.39076  1.0000
  C   C190      1.0  0.19928  0.59115  0.37276  1.0000
  C   C191      1.0  0.20611  0.79515  0.46279  1.0000
  C   C192      1.0  0.21459  0.77879  0.43409  1.0000
  H   H306      1.0  0.20662  0.74965  0.39788  1.0000
  S   S73       1.0  0.22214  0.81915  0.47306  1.0000
  H   H307      1.0  0.19832  0.82093  0.38702  1.0000
  H   H308      1.0  0.17842  0.77500  0.78882  1.0000
  N   N19       1.0  0.15612  0.77285  0.84119  1.0000
  H   H309      1.0  0.16103  0.73874  0.81457  1.0000
  H   H310      1.0  0.13570  0.77276  0.78680  1.0000
  C   C193      1.0  0.13459  0.78000  0.81782  1.0000
  H   H311      1.0  0.11863  0.77382  0.83262  1.0000
  S   S74       1.0  0.17652  0.82835  0.73311  1.0000
  C   C194      1.0  0.17681  0.78137  0.82039  1.0000
  H   H312      1.0  0.13181  0.79938  0.81475  1.0000
  H   H313      1.0  0.17570  0.80082  0.81883  1.0000
  C   C195      1.0  0.15920  0.74706  0.84469  1.0000
  H   H314      1.0  0.18957  0.82397  0.64920  1.0000
  C   C196      1.0  0.17392  0.83601  0.65138  1.0000
  H   H315      1.0  0.19345  0.77536  0.83621  1.0000
  H   H316      1.0  0.09028  0.59355  0.89825  1.0000
  H   H317      1.0  0.14392  0.73999  0.86029  1.0000
  H   H318      1.0  0.17527  0.74114  0.86244  1.0000
  H   H319      1.0  0.09385  0.59263  0.95187  1.0000
  H   H320      1.0  0.19518  0.64651  0.09260  1.0000
  H   H321      1.0  0.09952  0.65494  0.92471  1.0000
  H   H322      1.0  0.15252  0.80236  0.88108  1.0000
  H   H323      1.0  0.13814  0.77732  0.89822  1.0000
  C   C197      1.0  0.15390  0.78291  0.88201  1.0000
  H   H324      1.0  0.16948  0.77717  0.90074  1.0000
  Fe  Fe37      1.0  0.15067  0.70192  0.93606  1.0000
  S   S75       1.0  0.18796  0.68795  0.92436  1.0000
  S   S76       1.0  0.11998  0.70073  0.89416  1.0000
  Fe  Fe38      1.0  0.18690  0.67311  0.98727  1.0000
  S   S77       1.0  0.14871  0.68399  0.99598  1.0000
  C   C198      1.0  0.15771  0.60842  0.92378  1.0000
  C   C199      1.0  0.17092  0.62384  0.94459  1.0000
  C   C200      1.0  0.18060  0.61742  0.98216  1.0000
  H   H325      1.0  0.15081  0.61322  0.89421  1.0000
  H   H326      1.0  0.17398  0.64052  0.93106  1.0000
  C   C201      1.0  0.09511  0.70685  0.92466  1.0000
  C   C202      1.0  0.09772  0.71682  0.96240  1.0000
  Fe  Fe39      1.0  0.16073  0.71688  0.02112  1.0000
  S   S78       1.0  0.15978  0.73584  0.96163  1.0000
  H   H327      1.0  0.11449  0.72216  0.97166  1.0000
  S   S79       1.0  0.13977  0.72942  0.07528  1.0000
  H   H328      1.0  0.18627  0.74715  0.07856  1.0000
  H   H329      1.0  0.18093  0.80894  0.99140  1.0000
  C   C203      1.0  0.10145  0.63549  0.92413  1.0000
  H   H330      1.0  0.11361  0.62942  0.94904  1.0000
  Fe  Fe40      1.0  0.19713  0.72051  0.95544  1.0000
  H   H331      1.0  0.19728  0.76754  0.98822  1.0000
  H   H332      1.0  0.09083  0.72366  0.09607  1.0000
  H   H333      1.0  0.16967  0.66476  0.07712  1.0000
  C   C204      1.0  0.17673  0.59566  0.99926  1.0000
  H   H334      1.0  0.11028  0.63029  0.89520  1.0000
  C   C205      1.0  0.19179  0.80304  0.96601  1.0000
  C   C206      1.0  0.19577  0.81851  0.93427  1.0000
  S   S80       1.0  0.19814  0.63628  0.00709  1.0000
  S   S81       1.0  0.19917  0.70456  0.01786  1.0000
  H   H335      1.0  0.18396  0.59076  0.02858  1.0000
  C   C207      1.0  0.20101  0.77962  0.96422  1.0000
  H   H336      1.0  0.23072  0.78170  0.87521  1.0000
  S   S82       1.0  0.22339  0.74205  0.92560  1.0000
  C   C208      1.0  0.20993  0.81087  0.90163  1.0000
  C   C209      1.0  0.21477  0.77185  0.93119  1.0000
  C   C210      1.0  0.21986  0.78766  0.90056  1.0000
  H   H337      1.0  0.21332  0.82282  0.87730  1.0000
  H   H338      1.0  0.22657  0.59871  0.95653  1.0000
  H   H339      1.0  0.25440  0.59327  0.98156  1.0000
  H   H340      1.0  0.17802  0.84976  0.31422  1.0000
  C   C211      1.0  0.29616  0.98987  0.12798  1.0000
  C   C212      1.0  0.26338  0.96910  0.27159  1.0000
  S   S83       1.0  0.28672  0.02230  0.25303  1.0000
  N   N20       1.0  0.25231  0.95440  0.30188  1.0000
  C   C213      1.0  0.23070  0.94594  0.28488  1.0000
  C   C214      1.0  0.29077  0.00971  0.20510  1.0000
  H   H341      1.0  0.26159  0.92309  0.33667  1.0000
  C   C215      1.0  0.26904  0.93423  0.31293  1.0000
  C   C216      1.0  0.27775  0.01951  0.17244  1.0000
  H   H342      1.0  0.22193  0.93479  0.30710  1.0000
  C   C217      1.0  0.24617  0.96833  0.33824  1.0000
  H   H343      1.0  0.23386  0.98393  0.33107  1.0000
  H   H344      1.0  0.26534  0.03462  0.17680  1.0000
  H   H345      1.0  0.28573  0.94008  0.32507  1.0000
  H   H346      1.0  0.27380  0.92306  0.28643  1.0000
  H   H347      1.0  0.27977  0.97569  0.28349  1.0000
  H   H348      1.0  0.26828  0.95929  0.24358  1.0000
  H   H349      1.0  0.23468  0.93538  0.25734  1.0000
  H   H350      1.0  0.21772  0.96078  0.27630  1.0000
  H   H351      1.0  0.25147  0.98473  0.26275  1.0000
  C   C218      1.0  0.30908  0.97997  0.16072  1.0000
  C   C219      1.0  0.30659  0.99002  0.19910  1.0000
  Fe  Fe41      1.0  0.31187  0.00791  0.30116  1.0000
  H   H352      1.0  0.31690  0.98244  0.22384  1.0000
  C   C220      1.0  0.28073  0.00986  0.13389  1.0000
  H   H353      1.0  0.32220  0.06401  0.25665  1.0000
  H   H354      1.0  0.29881  0.06286  0.19392  1.0000
  H   H355      1.0  0.32119  0.96463  0.15626  1.0000
  S   S84       1.0  0.33237  0.97278  0.30309  1.0000
  H   H356      1.0  0.28126  0.08857  0.17666  1.0000
  H   H357      1.0  0.27090  0.01781  0.10889  1.0000
  C   C221      1.0  0.28798  0.07882  0.20406  1.0000
  H   H358      1.0  0.27255  0.07273  0.22067  1.0000
  H   H359      1.0  0.29547  0.07277  0.28282  1.0000
  C   C222      1.0  0.31034  0.07952  0.26559  1.0000
  H   H360      1.0  0.41604  0.08086  0.31527  1.0000
  H   H361      1.0  0.43157  0.94373  0.30204  1.0000
  S   S85       1.0  0.39851  0.98416  0.29595  1.0000
  Fe  Fe42      1.0  0.36256  0.99262  0.32205  1.0000
  S   S86       1.0  0.34294  0.02777  0.31466  1.0000
  C   C223      1.0  0.43290  0.95391  0.32909  1.0000
  C   C224      1.0  0.41888  0.97497  0.33344  1.0000
  H   H362      1.0  0.39042  0.04923  0.33301  1.0000
  H   H363      1.0  0.33366  0.08572  0.19568  1.0000
  C   C225      1.0  0.47591  0.08775  0.44865  1.0000
  H   H364      1.0  0.08913  0.88867  0.54142  1.0000
  Fe  Fe43      1.0  0.16006  0.87984  0.52483  1.0000
  S   S87       1.0  0.15497  0.90765  0.47704  1.0000
  Fe  Fe44      1.0  0.15718  0.87816  0.43323  1.0000
  S   S88       1.0  0.13217  0.87227  0.38272  1.0000
  S   S89       1.0  0.13599  0.88229  0.57892  1.0000
  C   C226      1.0  0.10406  0.88628  0.39178  1.0000
  H   H365      1.0  0.11693  0.91612  0.42044  1.0000
  C   C227      1.0  0.10154  0.90751  0.41225  1.0000
  S   S90       1.0  0.15892  0.85055  0.48134  1.0000
  Fe  Fe45      1.0  0.19799  0.85204  0.47741  1.0000
  S   S91       1.0  0.19636  0.87739  0.42519  1.0000
  Fe  Fe46      1.0  0.19454  0.90468  0.47333  1.0000
  H   H366      1.0  0.10760  0.88138  0.49873  1.0000
  C   C228      1.0  0.08955  0.88032  0.51128  1.0000
  S   S92       1.0  0.19952  0.87926  0.52534  1.0000
  H   H367      1.0  0.09923  0.84972  0.57225  1.0000
  H   H368      1.0  0.10257  0.84658  0.45957  1.0000
  H   H369      1.0  0.17412  0.84562  0.58818  1.0000
  C   C229      1.0  0.09978  0.84225  0.54141  1.0000
  H   H370      1.0  0.11830  0.84227  0.53068  1.0000
  H   H371      1.0  0.26212  0.97471  0.35209  1.0000
  H   H372      1.0  0.23764  0.95782  0.36175  1.0000
  S   S93       1.0  0.29962  0.00599  0.36553  1.0000
  Fe  Fe47      1.0  0.32307  0.97251  0.36885  1.0000
  H   H373      1.0  0.29301  0.05727  0.37363  1.0000
  S   S94       1.0  0.31464  0.93796  0.39579  1.0000
  H   H374      1.0  0.28521  0.90068  0.41241  1.0000
  C   C230      1.0  0.27587  0.91688  0.42204  1.0000
  C   C231      1.0  0.28651  0.93793  0.41796  1.0000
  H   H375      1.0  0.28267  0.97498  0.42860  1.0000
  S   S95       1.0  0.21208  0.93835  0.47032  1.0000
  C   C232      1.0  0.25299  0.91674  0.43813  1.0000
  C   C233      1.0  0.24084  0.93765  0.45064  1.0000
  C   C234      1.0  0.25167  0.95860  0.44711  1.0000
  C   C235      1.0  0.27443  0.95875  0.43078  1.0000
  H   H376      1.0  0.24481  0.90048  0.44106  1.0000
  H   H377      1.0  0.24240  0.97478  0.45707  1.0000
  C   C236      1.0  0.31885  0.07733  0.40104  1.0000
  C   C237      1.0  0.29877  0.07450  0.37799  1.0000
  H   H378      1.0  0.39817  0.92182  0.37996  1.0000
  C   C238      1.0  0.44810  0.94561  0.36022  1.0000
  H   H379      1.0  0.36956  0.06989  0.35760  1.0000
  H   H380      1.0  0.45848  0.92903  0.35718  1.0000
  H   H381      1.0  0.43264  0.08371  0.59249  1.0000
  H   H382      1.0  0.36884  0.93601  0.38363  1.0000
  C   C239      1.0  0.39884  0.08366  0.41354  1.0000
  Fe  Fe48      1.0  0.33261  0.02301  0.37918  1.0000
  H   H383      1.0  0.38657  0.89136  0.42827  1.0000
  H   H384      1.0  0.39397  0.95190  0.39348  1.0000
  C   C240      1.0  0.38669  0.93470  0.39756  1.0000
  H   H385      1.0  0.42390  0.04245  0.40642  1.0000
  S   S96       1.0  0.33580  0.05295  0.42058  1.0000
  N   N21       1.0  0.40561  0.07167  0.37546  1.0000
  Fe  Fe49      1.0  0.44827  0.98317  0.56934  1.0000
  H   H386      1.0  0.35750  0.90614  0.43213  1.0000
  C   C241      1.0  0.38611  0.05830  0.36195  1.0000
  H   H387      1.0  0.35246  0.94783  0.45078  1.0000
  H   H388      1.0  0.37784  0.96344  0.46046  1.0000
  H   H389      1.0  0.36963  0.94147  0.49550  1.0000
  C   C242      1.0  0.37077  0.94598  0.46285  1.0000
  H   H390      1.0  0.41004  0.92071  0.48984  1.0000
  H   H391      1.0  0.37464  0.89966  0.47688  1.0000
  H   H392      1.0  0.42208  0.91385  0.44062  1.0000
  C   C243      1.0  0.37572  0.90526  0.44472  1.0000
  S   S97       1.0  0.35515  0.98954  0.38805  1.0000
  H   H393      1.0  0.41750  0.94360  0.45622  1.0000
  C   C244      1.0  0.40985  0.92639  0.45763  1.0000
  N   N22       1.0  0.38577  0.92806  0.44071  1.0000
  C   C245      1.0  0.42066  0.98815  0.36833  1.0000
  H   H394      1.0  0.40990  0.00446  0.37166  1.0000
  C   C246      1.0  0.44984  0.95870  0.39525  1.0000
  S   S98       1.0  0.43349  0.99102  0.50773  1.0000
  C   C247      1.0  0.43649  0.98024  0.39883  1.0000
  H   H395      1.0  0.43824  0.99081  0.42507  1.0000
  S   S99       1.0  0.44609  0.05826  0.48369  1.0000
  H   H396      1.0  0.38216  0.04470  0.38463  1.0000
  H   H397      1.0  0.43206  0.04554  0.35433  1.0000
  C   C248      1.0  0.42687  0.05545  0.38211  1.0000
  H   H398      1.0  0.44212  0.06494  0.39154  1.0000
  H   H399      1.0  0.39405  0.07102  0.43733  1.0000
  Fe  Fe50      1.0  0.45492  0.02209  0.50849  1.0000
  C   C249      1.0  0.45227  0.08224  0.59267  1.0000
  H   H400      1.0  0.58369  0.02254  0.48476  1.0000
  C   C250      1.0  0.57825  0.96087  0.51978  1.0000
  H   H401      1.0  0.55252  0.02703  0.49305  1.0000
  C   C251      1.0  0.56069  0.99645  0.43351  1.0000
  S   S100      1.0  0.46765  0.94724  0.43515  1.0000
  H   H402      1.0  0.54595  0.99228  0.45383  1.0000
  C   C252      1.0  0.56698  0.03080  0.47186  1.0000
  C   C253      1.0  0.54084  0.03385  0.41462  1.0000
  H   H403      1.0  0.45823  0.07122  0.56653  1.0000
  H   H404      1.0  0.49103  0.04727  0.52175  1.0000
  H   H405      1.0  0.55733  0.98913  0.40334  1.0000
  H   H406      1.0  0.56819  0.05006  0.47138  1.0000
  C   C254      1.0  0.58284  0.02654  0.40455  1.0000
  C   C255      1.0  0.55683  0.97116  0.53516  1.0000
  C   C256      1.0  0.57764  0.00172  0.56493  1.0000
  C   C257      1.0  0.55659  0.99159  0.55781  1.0000
  S   S101      1.0  0.53031  0.00504  0.57726  1.0000
  C   C258      1.0  0.51488  0.06931  0.49347  1.0000
  H   H407      1.0  0.54203  0.05308  0.41206  1.0000
  S   S102      1.0  0.48772  0.00346  0.48294  1.0000
  S   S103      1.0  0.46575  0.01648  0.57267  1.0000
  Fe  Fe51      1.0  0.46737  0.97191  0.48699  1.0000
  H   H408      1.0  0.52543  0.03102  0.43434  1.0000
  N   N23       1.0  0.56282  0.02191  0.43110  1.0000
  H   H409      1.0  0.52963  0.06275  0.51201  1.0000
  H   H410      1.0  0.53698  0.02740  0.38403  1.0000
  C   C259      1.0  0.47341  0.06964  0.47650  1.0000
  H   H411      1.0  0.54059  0.96322  0.52977  1.0000
  H   H412      1.0  0.57750  0.01749  0.58255  1.0000
  S   S104      1.0  0.48070  0.96163  0.54902  1.0000
  C   C260      1.0  0.49289  0.06061  0.49909  1.0000
  Fe  Fe52      1.0  0.49723  0.99563  0.54739  1.0000
  H   H413      1.0  0.57852  0.94499  0.50244  1.0000
  H   H414      1.0  0.58034  0.02033  0.37332  1.0000
  H   H415      1.0  0.58528  0.04557  0.40255  1.0000
  H   H416      1.0  0.57714  0.98695  0.44544  1.0000
  C   C261      1.0  0.51750  0.08709  0.46520  1.0000
  S   S105      1.0  0.15584  0.89082  0.77092  1.0000
  Fe  Fe53      1.0  0.13344  0.88539  0.82540  1.0000
  S   S106      1.0  0.09472  0.89676  0.82627  1.0000
  Fe  Fe54      1.0  0.18288  0.90067  0.81498  1.0000
  C   C262      1.0  0.13401  0.86775  0.65717  1.0000
  H   H417      1.0  0.11878  0.88028  0.65969  1.0000
  C   C263      1.0  0.14285  0.85569  0.69160  1.0000
  Fe  Fe55      1.0  0.17052  0.85398  0.78352  1.0000
  H   H418      1.0  0.13410  0.85855  0.72035  1.0000
  S   S107      1.0  0.19983  0.86419  0.82284  1.0000
  C   C264      1.0  0.18027  0.90926  0.64185  1.0000
  H   H419      1.0  0.19095  0.87960  0.70330  1.0000
  H   H420      1.0  0.18639  0.92213  0.71872  1.0000
  C   C265      1.0  0.14554  0.86452  0.62004  1.0000
  H   H421      1.0  0.16485  0.90599  0.66124  1.0000
  C   C266      1.0  0.20593  0.88330  0.68322  1.0000
  H   H422      1.0  0.20735  0.86958  0.65968  1.0000
  H   H423      1.0  0.10504  0.85148  0.78988  1.0000
  C   C267      1.0  0.08707  0.85277  0.80059  1.0000
  C   C268      1.0  0.20573  0.94922  0.84216  1.0000
  S   S108      1.0  0.20700  0.92897  0.80276  1.0000
  N   N24       1.0  0.20245  0.90700  0.66510  1.0000
  C   C269      1.0  0.20120  0.92457  0.69745  1.0000
  H   H424      1.0  0.19854  0.94270  0.68509  1.0000
  H   H425      1.0  0.17684  0.92702  0.62819  1.0000
  H   H426      1.0  0.18082  0.89655  0.61670  1.0000
  S   S109      1.0  0.14630  0.84778  0.83511  1.0000
  C   C270      1.0  0.16524  0.84831  0.61690  1.0000
  C   C271      1.0  0.16317  0.84028  0.68899  1.0000
  H   H427      1.0  0.22026  0.92851  0.62340  1.0000
  H   H428      1.0  0.22221  0.88111  0.70182  1.0000
  C   C272      1.0  0.22239  0.91084  0.63780  1.0000
  H   H429      1.0  0.23945  0.90929  0.65432  1.0000
  H   H430      1.0  0.21762  0.92334  0.71579  1.0000
  H   H431      1.0  0.24202  0.95668  0.83570  1.0000
  H   H432      1.0  0.32968  0.98788  0.79622  1.0000
  H   H433      1.0  0.22380  0.89782  0.61302  1.0000
  H   H434      1.0  0.33334  0.01559  0.81836  1.0000
  H   H435      1.0  0.36417  0.96975  0.83441  1.0000
  H   H436      1.0  0.41554  0.01900  0.61053  1.0000
  H   H437      1.0  0.39187  0.98268  0.83197  1.0000
  C   C273      1.0  0.37239  0.98653  0.83060  1.0000
  H   H438      1.0  0.36307  0.96677  0.75956  1.0000
  H   H439      1.0  0.36713  0.99210  0.72871  1.0000
  C   C274      1.0  0.37186  0.98334  0.75809  1.0000
  H   H440      1.0  0.39124  0.97863  0.75758  1.0000
  H   H441      1.0  0.37056  0.03333  0.81202  1.0000
  C   C275      1.0  0.37654  0.02060  0.78848  1.0000
  H   H442      1.0  0.39595  0.01751  0.79151  1.0000
  N   N25       1.0  0.36496  0.99862  0.79251  1.0000
  S   S110      1.0  0.42904  0.96996  0.62260  1.0000
  S   S111      1.0  0.41874  0.05348  0.74412  1.0000
  C   C276      1.0  0.42724  0.00731  0.72443  1.0000
  C   C277      1.0  0.42112  0.03012  0.71056  1.0000
  C   C278      1.0  0.42824  0.98864  0.69756  1.0000
  C   C279      1.0  0.41656  0.03429  0.66957  1.0000
  C   C280      1.0  0.42437  0.99291  0.65647  1.0000
  H   H443      1.0  0.43272  0.97097  0.70838  1.0000
  H   H444      1.0  0.41171  0.05190  0.65878  1.0000
  C   C281      1.0  0.41864  0.01572  0.64237  1.0000
  Fe  Fe56      1.0  0.43950  0.04594  0.80080  1.0000
  H   H445      1.0  0.43098  0.00394  0.75583  1.0000
  H   H446      1.0  0.37284  0.02936  0.75875  1.0000
  C   C282      1.0  0.33909  0.00400  0.79277  1.0000
  S   S112      1.0  0.44359  0.01191  0.83498  1.0000
  H   H447      1.0  0.33286  0.01312  0.76449  1.0000
  H   H448      1.0  0.45813  0.07254  0.62064  1.0000
  N   N26       1.0  0.55943  0.07728  0.84087  1.0000
  H   H449      1.0  0.50057  0.96235  0.74640  1.0000
  H   H450      1.0  0.53266  0.98754  0.73341  1.0000
  H   H451      1.0  0.52713  0.95440  0.68746  1.0000
  C   C283      1.0  0.52044  0.99876  0.71379  1.0000
  H   H452      1.0  0.52611  0.97448  0.64542  1.0000
  C   C284      1.0  0.51521  0.96668  0.66915  1.0000
  H   H453      1.0  0.50245  0.95626  0.65346  1.0000
  H   H454      1.0  0.47593  0.96293  0.71245  1.0000
  H   H455      1.0  0.53127  0.00736  0.69087  1.0000
  H   H456      1.0  0.47412  0.99048  0.65306  1.0000
  H   H457      1.0  0.49702  0.00972  0.64590  1.0000
  H   H458      1.0  0.47674  0.01402  0.68748  1.0000
  C   C285      1.0  0.48700  0.00052  0.66917  1.0000
  H   H459      1.0  0.51172  0.01262  0.73334  1.0000
  H   H460      1.0  0.47928  0.98712  0.74539  1.0000
  S   S113      1.0  0.51129  0.99181  0.81779  1.0000
  S   S114      1.0  0.47808  0.04993  0.79789  1.0000
  C   C286      1.0  0.48904  0.97381  0.72599  1.0000
  N   N27       1.0  0.50293  0.98494  0.69455  1.0000
  C   C287      1.0  0.55899  0.99312  0.82316  1.0000
  H   H461      1.0  0.55959  0.98806  0.79185  1.0000
  Fe  Fe57      1.0  0.48196  0.01795  0.83713  1.0000
  H   H462      1.0  0.54509  0.04442  0.83020  1.0000
  H   H463      1.0  0.52562  0.06985  0.81800  1.0000
  C   C288      1.0  0.53741  0.99577  0.84369  1.0000
  C   C289      1.0  0.57985  0.99757  0.84281  1.0000
  H   H464      1.0  0.57660  0.06035  0.78981  1.0000
  C   C290      1.0  0.57039  0.07818  0.80041  1.0000
  H   H465      1.0  0.55767  0.08610  0.77769  1.0000
  C   C291      1.0  0.53937  0.06258  0.83954  1.0000
  H   H466      1.0  0.16912  0.94606  0.85551  1.0000
  C   C292      1.0  0.18500  0.95357  0.86453  1.0000
  S   S115      1.0  0.15905  0.89892  0.86876  1.0000
  Fe  Fe58      1.0  0.17399  0.86168  0.87347  1.0000
  H   H467      1.0  0.16872  0.97070  0.91632  1.0000
  C   C293      1.0  0.18470  0.96777  0.89864  1.0000
  H   H468      1.0  0.18605  0.92657  0.94504  1.0000
  H   H469      1.0  0.18156  0.89689  0.95830  1.0000
  H   H470      1.0  0.18720  0.91740  0.99693  1.0000
  C   C294      1.0  0.19197  0.91183  0.96571  1.0000
  S   S116      1.0  0.18229  0.84709  0.93523  1.0000
  C   C295      1.0  0.22595  0.95993  0.85303  1.0000
  H   H471      1.0  0.21765  0.91301  0.89796  1.0000
  H   H472      1.0  0.21350  0.88322  0.91074  1.0000
  C   C296      1.0  0.20514  0.97765  0.91059  1.0000
  H   H473      1.0  0.22600  0.94075  0.95184  1.0000
  H   H474      1.0  0.22664  0.93160  0.00348  1.0000
  C   C297      1.0  0.23067  0.92559  0.97220  1.0000
  H   H475      1.0  0.22065  0.89008  0.02110  1.0000
  C   C298      1.0  0.22458  0.88554  0.98909  1.0000
  H   H476      1.0  0.21500  0.86998  0.98200  1.0000
  N   N28       1.0  0.21757  0.90538  0.96164  1.0000
  C   C299      1.0  0.22300  0.89854  0.91953  1.0000
  H   H477      1.0  0.24216  0.89377  0.91507  1.0000
  S   S117      1.0  0.20510  0.99221  0.95681  1.0000
  H   H478      1.0  0.25006  0.92137  0.96980  1.0000
  H   H479      1.0  0.24376  0.88012  0.98663  1.0000
  C   C300      1.0  0.22569  0.97410  0.88735  1.0000
  H   H480      1.0  0.24150  0.98182  0.89632  1.0000
  H   H481      1.0  0.28223  0.07687  0.96492  1.0000
  Fe  Fe59      1.0  0.23943  0.00590  0.97405  1.0000
  S   S118      1.0  0.27479  0.98558  0.96847  1.0000
  Fe  Fe60      1.0  0.25973  0.04755  0.01215  1.0000
  S   S119      1.0  0.25106  0.03933  0.94838  1.0000
  S   S120      1.0  0.24437  0.01611  0.03841  1.0000
  S   S121      1.0  0.29663  0.03094  0.00962  1.0000
  Fe  Fe61      1.0  0.28696  0.01997  0.94783  1.0000
  Fe  Fe62      1.0  0.28083  0.99866  0.03103  1.0000
  S   S122      1.0  0.25528  0.08345  0.03835  1.0000
  S   S123      1.0  0.29929  0.97695  0.08016  1.0000
  S   S124      1.0  0.31042  0.02680  0.89526  1.0000
  H   H482      1.0  0.32150  0.07218  0.03537  1.0000
  H   H483      1.0  0.36715  0.99734  0.85726  1.0000
  S   S125      1.0  0.43312  0.06815  0.85554  1.0000
  H   H484      1.0  0.34756  0.05231  0.86463  1.0000
  H   H485      1.0  0.33727  0.00216  0.95875  1.0000
  H   H486      1.0  0.35020  0.03761  0.02180  1.0000
  H   H487      1.0  0.34021  0.06697  0.96829  1.0000
  H   H488      1.0  0.37100  0.07083  0.96205  1.0000
  H   H489      1.0  0.39478  0.08103  0.02030  1.0000
  C   C301      1.0  0.36439  0.04834  0.03210  1.0000
  C   C302      1.0  0.35487  0.07687  0.97933  1.0000
  C   C303      1.0  0.38786  0.02538  0.92925  1.0000
  C   C304      1.0  0.37279  0.01207  0.95157  1.0000
  C   C305      1.0  0.37876  0.03978  0.89773  1.0000
  C   C306      1.0  0.33978  0.02710  0.91018  1.0000
  Fe  Fe63      1.0  0.44044  0.03451  0.88989  1.0000
  H   H490      1.0  0.37977  0.00085  0.97595  1.0000
  H   H491      1.0  0.39014  0.05040  0.88084  1.0000
  C   C307      1.0  0.35468  0.04087  0.88859  1.0000
  C   C308      1.0  0.34874  0.01292  0.94206  1.0000
  S   S126      1.0  0.41777  0.02449  0.94193  1.0000
  N   N29       1.0  0.35849  0.07345  0.02319  1.0000
  H   H492      1.0  0.36681  0.04496  0.06500  1.0000
  C   C309      1.0  0.37806  0.08689  0.03625  1.0000
  H   H493      1.0  0.38132  0.08475  0.06923  1.0000
  H   H494      1.0  0.38101  0.04165  0.01668  1.0000
  C   C310      1.0  0.33671  0.08172  0.04497  1.0000
  H   H495      1.0  0.33865  0.07914  0.07813  1.0000
  C   C311      1.0  0.53684  0.00237  0.88420  1.0000
  H   H496      1.0  0.58427  0.04942  0.86074  1.0000
  H   H497      1.0  0.52030  0.00400  0.90044  1.0000
  C   C312      1.0  0.57931  0.00397  0.88342  1.0000
  H   H498      1.0  0.55729  0.01131  0.93554  1.0000
  C   C313      1.0  0.57704  0.06710  0.87014  1.0000
  H   H499      1.0  0.53065  0.06147  0.86960  1.0000
  S   S127      1.0  0.47944  0.03763  0.89526  1.0000
  Fe  Fe64      1.0  0.47236  0.06925  0.85557  1.0000
  C   C314      1.0  0.55780  0.00628  0.90416  1.0000
  H   H500      1.0  0.56919  0.06520  0.90071  1.0000
  H   H501      1.0  0.58594  0.08871  0.80047  1.0000
  S   S128      1.0  0.70304  0.10468  0.27585  1.0000
  Fe  Fe65      1.0  0.70734  0.13451  0.31697  1.0000
  H   H502      1.0  0.69731  0.22093  0.31855  1.0000
  S   S129      1.0  0.70993  0.17101  0.29406  1.0000
  H   H503      1.0  0.68640  0.25004  0.33095  1.0000
  C   C315      1.0  0.69706  0.23946  0.30840  1.0000
  H   H504      1.0  0.68744  0.24090  0.27921  1.0000
  S   S130      1.0  0.65136  0.20604  0.33546  1.0000
  Fe  Fe66      1.0  0.68358  0.18117  0.34258  1.0000
  H   H505      1.0  0.60116  0.21320  0.34844  1.0000
  H   H506      1.0  0.71027  0.28315  0.31344  1.0000
  N   N30       1.0  0.72123  0.24682  0.30457  1.0000
  C   C316      1.0  0.72017  0.27155  0.29137  1.0000
  H   H507      1.0  0.71120  0.27418  0.26168  1.0000
  C   C317      1.0  0.73316  0.24414  0.34409  1.0000
  H   H508      1.0  0.75178  0.24859  0.34215  1.0000
  H   H509      1.0  0.73504  0.21325  0.28286  1.0000
  H   H510      1.0  0.73817  0.27759  0.28817  1.0000
  H   H511      1.0  0.75316  0.23638  0.27194  1.0000
  S   S131      1.0  0.83514  0.14499  0.19859  1.0000
  C   C318      1.0  0.78652  0.17848  0.29474  1.0000
  C   C319      1.0  0.78165  0.15714  0.27807  1.0000
  C   C320      1.0  0.79627  0.14706  0.24763  1.0000
  C   C321      1.0  0.81559  0.15844  0.23379  1.0000
  C   C322      1.0  0.82001  0.18005  0.24976  1.0000
  C   C323      1.0  0.80558  0.18999  0.28039  1.0000
  H   H512      1.0  0.76680  0.14829  0.28891  1.0000
  H   H513      1.0  0.79276  0.13040  0.23509  1.0000
  H   H514      1.0  0.83456  0.18918  0.23854  1.0000
  H   H515      1.0  0.80927  0.20659  0.29303  1.0000
  C   C324      1.0  0.73450  0.23208  0.27444  1.0000
  H   H516      1.0  0.72636  0.23406  0.24401  1.0000
  H   H517      1.0  0.83805  0.12107  0.28795  1.0000
  S   S132      1.0  0.76944  0.19070  0.33432  1.0000
  H   H518      1.0  0.82156  0.11636  0.10520  1.0000
  H   H519      1.0  0.82699  0.15302  0.33560  1.0000
  H   H520      1.0  0.78372  0.09634  0.29396  1.0000
  Fe  Fe67      1.0  0.73669  0.17230  0.34331  1.0000
  H   H521      1.0  0.74499  0.08914  0.32457  1.0000
  H   H522      1.0  0.84169  0.13861  0.10742  1.0000
  H   H523      1.0  0.75025  0.09143  0.24981  1.0000
  C   C325      1.0  0.85688  0.12299  0.29491  1.0000
  H   H524      1.0  0.86684  0.10576  0.29031  1.0000
  H   H525      1.0  0.86711  0.11034  0.14910  1.0000
  H   H526      1.0  0.85201  0.16755  0.31899  1.0000
  H   H527      1.0  0.86336  0.13524  0.27201  1.0000
  H   H528      1.0  0.89243  0.14612  0.32135  1.0000
  Fe  Fe68      1.0  0.86680  0.16555  0.19411  1.0000
  Fe  Fe69      1.0  0.88979  0.21039  0.20842  1.0000
  S   S133      1.0  0.92428  0.19595  0.18240  1.0000
  S   S134      1.0  0.89943  0.14733  0.16751  1.0000
  S   S135      1.0  0.88503  0.17910  0.24779  1.0000
  Fe  Fe70      1.0  0.91789  0.16365  0.21788  1.0000
  S   S136      1.0  0.86808  0.19849  0.15758  1.0000
  C   C326      1.0  0.91915  0.10789  0.26238  1.0000
  C   C327      1.0  0.93915  0.11828  0.27546  1.0000
  S   S137      1.0  0.94618  0.14551  0.25642  1.0000
  Fe  Fe71      1.0  0.90230  0.18126  0.13460  1.0000
  H   H529      1.0  0.90784  0.11650  0.23967  1.0000
  S   S138      1.0  0.88713  0.24752  0.22945  1.0000
  C   C328      1.0  0.90808  0.25084  0.26709  1.0000
  C   C329      1.0  0.91506  0.23207  0.29276  1.0000
  C   C330      1.0  0.93271  0.23421  0.32138  1.0000
  C   C331      1.0  0.94412  0.25480  0.32347  1.0000
  C   C332      1.0  0.93679  0.27386  0.29855  1.0000
  C   C333      1.0  0.91857  0.27194  0.27061  1.0000
  H   H530      1.0  0.90679  0.21591  0.29068  1.0000
  H   H531      1.0  0.91313  0.28651  0.25082  1.0000
  C   C334      1.0  0.95380  0.10694  0.30460  1.0000
  H   H532      1.0  0.94550  0.28983  0.30012  1.0000
  N   N31       1.0  0.85985  0.13150  0.33633  1.0000
  H   H533      1.0  0.95819  0.19166  0.28729  1.0000
  H   H534      1.0  0.95661  0.22280  0.23733  1.0000
  C   C335      1.0  0.86285  0.09607  0.12864  1.0000
  H   H535      1.0  0.96927  0.11486  0.31475  1.0000
  H   H536      1.0  0.97084  0.18196  0.21665  1.0000
  C   C336      1.0  0.84613  0.15438  0.34091  1.0000
  H   H537      1.0  0.93788  0.21968  0.34139  1.0000
  H   H538      1.0  0.89585  0.11697  0.34161  1.0000
  C   C337      1.0  0.88509  0.13406  0.34377  1.0000
  H   H539      1.0  0.97593  0.23933  0.26581  1.0000
  H   H540      1.0  0.97730  0.20688  0.31892  1.0000
  C   C338      1.0  0.97696  0.19445  0.29343  1.0000
  C   C339      1.0  0.97550  0.22528  0.24304  1.0000
  H   H541      1.0  0.98566  0.17735  0.30379  1.0000
  H   H542      1.0  0.01317  0.22134  0.29174  1.0000
  H   H543      1.0  0.02339  0.19195  0.27831  1.0000
  C   C340      1.0  0.01299  0.20808  0.26741  1.0000
  H   H544      1.0  0.02232  0.21497  0.24084  1.0000
  H   H545      1.0  0.98306  0.23192  0.21459  1.0000
  H   H546      1.0  0.99782  0.19168  0.19722  1.0000
  H   H547      1.0  0.99830  0.16878  0.23497  1.0000
  C   C341      1.0  0.98901  0.18572  0.22503  1.0000
  N   N32       1.0  0.98862  0.20338  0.25719  1.0000
  S   S139      1.0  0.99352  0.31431  0.31050  1.0000
  S   S140      1.0  0.06296  0.31215  0.31449  1.0000
  C   C342      1.0  0.08343  0.32929  0.33638  1.0000
  Fe  Fe72      1.0  0.02740  0.31586  0.34455  1.0000
  H   H548      1.0  0.62481  0.08970  0.40230  1.0000
  H   H549      1.0  0.60056  0.27734  0.49663  1.0000
  H   H550      1.0  0.60024  0.29446  0.54178  1.0000
  H   H551      1.0  0.59691  0.23341  0.57858  1.0000
  C   C343      1.0  0.62945  0.26470  0.58466  1.0000
  H   H552      1.0  0.69922  0.09485  0.36056  1.0000
  H   H553      1.0  0.62730  0.28825  0.51419  1.0000
  C   C344      1.0  0.61078  0.28083  0.52417  1.0000
  C   C345      1.0  0.60625  0.13161  0.46956  1.0000
  H   H554      1.0  0.63328  0.22477  0.54063  1.0000
  S   S141      1.0  0.70153  0.13546  0.46729  1.0000
  S   S142      1.0  0.67837  0.14454  0.36075  1.0000
  C   C346      1.0  0.69597  0.16039  0.49664  1.0000
  H   H555      1.0  0.66346  0.19383  0.41797  1.0000
  C   C347      1.0  0.67734  0.16174  0.52431  1.0000
  C   C348      1.0  0.63083  0.19595  0.45087  1.0000
  C   C349      1.0  0.60945  0.20834  0.37699  1.0000
  H   H556      1.0  0.63922  0.19131  0.47942  1.0000
  N   N33       1.0  0.62054  0.12168  0.43557  1.0000
  C   C350      1.0  0.64459  0.19737  0.41597  1.0000
  C   C351      1.0  0.61480  0.09744  0.42853  1.0000
  C   C352      1.0  0.63399  0.20386  0.37903  1.0000
  C   C353      1.0  0.60633  0.20032  0.44879  1.0000
  C   C354      1.0  0.67323  0.18150  0.54850  1.0000
  H   H557      1.0  0.66601  0.14764  0.52686  1.0000
  N   N34       1.0  0.61597  0.25928  0.54845  1.0000
  C   C355      1.0  0.68737  0.20015  0.54426  1.0000
  H   H558      1.0  0.64758  0.24757  0.51590  1.0000
  C   C356      1.0  0.63001  0.24172  0.52403  1.0000
  H   H559      1.0  0.62083  0.23807  0.49557  1.0000
  C   C357      1.0  0.64582  0.12174  0.44538  1.0000
  H   H560      1.0  0.65089  0.13987  0.44963  1.0000
  H   H561      1.0  0.62584  0.12896  0.37251  1.0000
  C   C358      1.0  0.61531  0.13597  0.39877  1.0000
  C   C359      1.0  0.59558  0.20621  0.41177  1.0000
  H   H562      1.0  0.61010  0.14994  0.47560  1.0000
  H   H563      1.0  0.61955  0.15437  0.40291  1.0000
  H   H564      1.0  0.67915  0.11197  0.56296  1.0000
  H   H565      1.0  0.60981  0.12128  0.49783  1.0000
  H   H566      1.0  0.65897  0.18234  0.57006  1.0000
  S   S143      1.0  0.68265  0.22460  0.57506  1.0000
  H   H567      1.0  0.64641  0.27190  0.57652  1.0000
  Fe  Fe73      1.0  0.70755  0.14815  0.40439  1.0000
  C   C360      1.0  0.70569  0.19898  0.51601  1.0000
  H   H568      1.0  0.59634  0.13645  0.39056  1.0000
  H   H569      1.0  0.65719  0.11375  0.42095  1.0000
  H   H570      1.0  0.65045  0.11167  0.47355  1.0000
  S   S144      1.0  0.58950  0.19882  0.49296  1.0000
  H   H571      1.0  0.59569  0.09669  0.42213  1.0000
  C   C361      1.0  0.59362  0.24989  0.56083  1.0000
  C   C362      1.0  0.67814  0.11438  0.59623  1.0000
  C   C363      1.0  0.71242  0.13638  0.59863  1.0000
  H   H572      1.0  0.73368  0.22580  0.35541  1.0000
  H   H573      1.0  0.72393  0.25535  0.36741  1.0000
  H   H574      1.0  0.71844  0.09284  0.56883  1.0000
  S   S145      1.0  0.71056  0.18595  0.38972  1.0000
  H   H575      1.0  0.71494  0.13574  0.56531  1.0000
  C   C364      1.0  0.71018  0.17895  0.49257  1.0000
  H   H576      1.0  0.83238  0.11178  0.36039  1.0000
  H   H577      1.0  0.71680  0.21328  0.51303  1.0000
  H   H578      1.0  0.72501  0.17767  0.47201  1.0000
  S   S146      1.0  0.73640  0.13473  0.36238  1.0000
  C   C365      1.0  0.85125  0.11453  0.36562  1.0000
  H   H579      1.0  0.85282  0.12058  0.39719  1.0000
  H   H580      1.0  0.86152  0.09716  0.36347  1.0000
  H   H581      1.0  0.84796  0.16149  0.37171  1.0000
  H   H582      1.0  0.88795  0.14108  0.37433  1.0000
  C   C366      1.0  0.94785  0.31075  0.53874  1.0000
  H   H583      1.0  0.93165  0.30426  0.52845  1.0000
  C   C367      1.0  0.95009  0.31707  0.57911  1.0000
  H   H584      1.0  0.06190  0.33666  0.43921  1.0000
  C   C368      1.0  0.07151  0.30147  0.49245  1.0000
  C   C369      1.0  0.97124  0.32507  0.59231  1.0000
  N   N35       1.0  0.08666  0.32029  0.48183  1.0000
  S   S147      1.0  0.01150  0.32357  0.49168  1.0000
  H   H585      1.0  0.05879  0.30697  0.51688  1.0000
  H   H586      1.0  0.96522  0.30655  0.48119  1.0000
  S   S148      1.0  0.96922  0.25502  0.35388  1.0000
  S   S149      1.0  0.96716  0.31782  0.39940  1.0000
  C   C370      1.0  0.96680  0.31225  0.51182  1.0000
  C   C371      1.0  0.99003  0.32685  0.56533  1.0000
  Fe  Fe74      1.0  0.98429  0.28971  0.36014  1.0000
  H   H587      1.0  0.06087  0.29671  0.46609  1.0000
  S   S150      1.0  0.01942  0.28888  0.39072  1.0000
  Fe  Fe75      1.0  0.00304  0.31885  0.42631  1.0000
  H   H588      1.0  0.00627  0.33318  0.57584  1.0000
  H   H589      1.0  0.08207  0.28539  0.50307  1.0000
  C   C372      1.0  0.98786  0.32049  0.52502  1.0000
  H   H590      1.0  0.58707  0.13174  0.46321  1.0000
  Fe  Fe76      1.0  0.64106  0.17543  0.67433  1.0000
  S   S151      1.0  0.63237  0.13835  0.67001  1.0000
  H   H591      1.0  0.70111  0.16343  0.74443  1.0000
  C   C373      1.0  0.66593  0.12427  0.77558  1.0000
  C   C374      1.0  0.65643  0.13578  0.74119  1.0000
  C   C375      1.0  0.64494  0.12347  0.71212  1.0000
  H   H592      1.0  0.65787  0.15426  0.73754  1.0000
  C   C376      1.0  0.64378  0.09937  0.71673  1.0000
  C   C377      1.0  0.66432  0.10028  0.78074  1.0000
  Fe  Fe77      1.0  0.62212  0.22611  0.68279  1.0000
  S   S152      1.0  0.62797  0.20270  0.62958  1.0000
  Fe  Fe78      1.0  0.66837  0.20800  0.72168  1.0000
  S   S153      1.0  0.67861  0.18398  0.67068  1.0000
  Fe  Fe79      1.0  0.66463  0.21377  0.63123  1.0000
  S   S154      1.0  0.65808  0.23898  0.68162  1.0000
  S   S155      1.0  0.63141  0.19750  0.72818  1.0000
  N   N36       1.0  0.70182  0.11537  0.61391  1.0000
  S   S156      1.0  0.69258  0.21075  0.77429  1.0000
  H   H593      1.0  0.67413  0.13416  0.79829  1.0000
  H   H594      1.0  0.63532  0.08967  0.69392  1.0000
  H   H595      1.0  0.59892  0.23275  0.75850  1.0000
  H   H596      1.0  0.68817  0.13201  0.66780  1.0000
  C   C378      1.0  0.69972  0.11639  0.65834  1.0000
  H   H597      1.0  0.69170  0.10079  0.67083  1.0000
  H   H598      1.0  0.70110  0.15263  0.60546  1.0000
  H   H599      1.0  0.66660  0.13061  0.60235  1.0000
  H   H600      1.0  0.63408  0.24876  0.60309  1.0000
  H   H601      1.0  0.66907  0.09952  0.60903  1.0000
  H   H602      1.0  0.61920  0.27741  0.60450  1.0000
  H   H603      1.0  0.71391  0.12035  0.81505  1.0000
  S   S157      1.0  0.58982  0.25115  0.67770  1.0000
  H   H604      1.0  0.70783  0.15997  0.84173  1.0000
  C   C379      1.0  0.71701  0.09432  0.60229  1.0000
  H   H605      1.0  0.81792  0.09250  0.78637  1.0000
  H   H606      1.0  0.74470  0.11877  0.82660  1.0000
  H   H607      1.0  0.71715  0.11733  0.67293  1.0000
  C   C380      1.0  0.71736  0.16879  0.75650  1.0000
  H   H608      1.0  0.73511  0.09457  0.61461  1.0000
  C   C381      1.0  0.71805  0.19127  0.77218  1.0000
  H   H609      1.0  0.73669  0.13528  0.74720  1.0000
  S   S158      1.0  0.78238  0.13841  0.78261  1.0000
  C   C382      1.0  0.75923  0.18212  0.78962  1.0000
  C   C383      1.0  0.75836  0.15939  0.77541  1.0000
  C   C384      1.0  0.73748  0.15283  0.75828  1.0000
  H   H610      1.0  0.77531  0.18752  0.80207  1.0000
  Fe  Fe80      1.0  0.81372  0.15331  0.81092  1.0000
  C   C385      1.0  0.73902  0.19788  0.78864  1.0000
  H   H611      1.0  0.73965  0.21528  0.80061  1.0000
  H   H612      1.0  0.72996  0.13812  0.61237  1.0000
  S   S159      1.0  0.83636  0.12806  0.84890  1.0000
  C   C386      1.0  0.72707  0.11577  0.83920  1.0000
  H   H613      1.0  0.72668  0.09672  0.84549  1.0000
  H   H614      1.0  0.86224  0.23951  0.68185  1.0000
  S   S160      1.0  0.84393  0.16623  0.77592  1.0000
  Fe  Fe81      1.0  0.84521  0.19262  0.82506  1.0000
  H   H615      1.0  0.89833  0.24177  0.61249  1.0000
  H   H616      1.0  0.92680  0.24223  0.66933  1.0000
  H   H617      1.0  0.92549  0.27345  0.66376  1.0000
  H   H618      1.0  0.87024  0.25859  0.61562  1.0000
  C   C387      1.0  0.88911  0.25814  0.62445  1.0000
  S   S161      1.0  0.92668  0.31462  0.61321  1.0000
  H   H619      1.0  0.88687  0.29709  0.66891  1.0000
  Fe  Fe82      1.0  0.86658  0.14320  0.81787  1.0000
  H   H620      1.0  0.93413  0.21235  0.78971  1.0000
  S   S162      1.0  0.89686  0.12049  0.79272  1.0000
  Fe  Fe83      1.0  0.94038  0.31981  0.67550  1.0000
  Fe  Fe84      1.0  0.95254  0.29315  0.75331  1.0000
  S   S163      1.0  0.95331  0.25694  0.78004  1.0000
  S   S164      1.0  0.91994  0.31435  0.73218  1.0000
  H   H621      1.0  0.88320  0.24014  0.72185  1.0000
  C   C388      1.0  0.92488  0.24949  0.79275  1.0000
  C   C389      1.0  0.90663  0.26699  0.79891  1.0000
  C   C390      1.0  0.92009  0.22597  0.79456  1.0000
  H   H622      1.0  0.91028  0.28513  0.79880  1.0000
  H   H623      1.0  0.88091  0.28318  0.71641  1.0000
  H   H624      1.0  0.86028  0.28275  0.67577  1.0000
  H   H625      1.0  0.89024  0.22252  0.67850  1.0000
  N   N37       1.0  0.89172  0.25952  0.66869  1.0000
  C   C391      1.0  0.91702  0.25888  0.67880  1.0000
  C   C392      1.0  0.88139  0.23953  0.68846  1.0000
  C   C393      1.0  0.87940  0.28161  0.68307  1.0000
  H   H626      1.0  0.89333  0.20182  0.80227  1.0000
  C   C394      1.0  0.89699  0.22000  0.80163  1.0000
  C   C395      1.0  0.88359  0.26106  0.80587  1.0000
  C   C396      1.0  0.87870  0.23759  0.80707  1.0000
  H   H627      1.0  0.91965  0.26054  0.71179  1.0000
  H   H628      1.0  0.86952  0.27471  0.81036  1.0000
  S   S165      1.0  0.84961  0.23082  0.81534  1.0000
  H   H629      1.0  0.89674  0.27310  0.60885  1.0000
  C   C397      1.0  0.89609  0.09151  0.80929  1.0000
  C   C398      1.0  0.08429  0.33701  0.75825  1.0000
  S   S166      1.0  0.02162  0.33566  0.70419  1.0000
  H   H630      1.0  0.02800  0.23215  0.78454  1.0000
  H   H631      1.0  0.02656  0.28445  0.79953  1.0000
  H   H632      1.0  0.01330  0.29362  0.75231  1.0000
  S   S167      1.0  0.97150  0.29603  0.69455  1.0000
  S   S168      1.0  0.96895  0.32318  0.78135  1.0000
  H   H633      1.0  0.07098  0.26277  0.72359  1.0000
  H   H634      1.0  0.97323  0.32998  0.62334  1.0000
  Fe  Fe85      1.0  0.98487  0.32813  0.72032  1.0000
  H   H635      1.0  0.03759  0.24166  0.69535  1.0000
  H   H636      1.0  0.00287  0.26937  0.77954  1.0000
  C   C399      1.0  0.05715  0.27453  0.73865  1.0000
  C   C400      1.0  0.04308  0.33575  0.74168  1.0000
  C   C401      1.0  0.03778  0.33273  0.78259  1.0000
  H   H637      1.0  0.01987  0.33075  0.79197  1.0000
  N   N38       1.0  0.03625  0.26210  0.74944  1.0000
  C   C402      1.0  0.01900  0.27807  0.77122  1.0000
  C   C403      1.0  0.05585  0.33209  0.81144  1.0000
  C   C404      1.0  0.02527  0.25412  0.71229  1.0000
  C   C405      1.0  0.04345  0.24174  0.77562  1.0000
  H   H638      1.0  0.05636  0.22917  0.76011  1.0000
  H   H639      1.0  0.00904  0.24526  0.71927  1.0000
  H   H640      1.0  0.06523  0.28191  0.76572  1.0000
  H   H641      1.0  0.02006  0.26912  0.69161  1.0000
  H   H642      1.0  0.05243  0.28938  0.71745  1.0000
  C   C406      1.0  0.07918  0.33402  0.79912  1.0000
  H   H643      1.0  0.05188  0.24724  0.80383  1.0000
  C   C407      1.0  0.06629  0.33807  0.72970  1.0000
  H   H644      1.0  0.05190  0.32962  0.84309  1.0000
  H   H645      1.0  0.69823  0.10557  0.89949  1.0000
  C   C408      1.0  0.69864  0.12453  0.89228  1.0000
  H   H646      1.0  0.68428  0.12908  0.87010  1.0000
  H   H647      1.0  0.69416  0.13452  0.92022  1.0000
  C   C409      1.0  0.83705  0.12320  0.08992  1.0000
  H   H648      1.0  0.84611  0.09219  0.03069  1.0000
  H   H649      1.0  0.79836  0.09543  0.85310  1.0000
  H   H650      1.0  0.74131  0.10490  0.91465  1.0000
  H   H651      1.0  0.73852  0.15958  0.85385  1.0000
  C   C410      1.0  0.72117  0.15492  0.86548  1.0000
  S   S169      1.0  0.81279  0.18190  0.85659  1.0000
  C   C411      1.0  0.74032  0.12380  0.90622  1.0000
  N   N39       1.0  0.72179  0.12976  0.87581  1.0000
  H   H652      1.0  0.83043  0.17150  0.03747  1.0000
  S   S170      1.0  0.83032  0.15356  0.95769  1.0000
  Fe  Fe86      1.0  0.83794  0.15758  0.89171  1.0000
  H   H653      1.0  0.71671  0.16607  0.89211  1.0000
  H   H654      1.0  0.75801  0.12765  0.89462  1.0000
  H   H655      1.0  0.73697  0.13405  0.93427  1.0000
  H   H656      1.0  0.83133  0.12950  0.05934  1.0000
  H   H657      1.0  0.83015  0.22905  0.94578  1.0000
  H   H658      1.0  0.85621  0.24238  0.99893  1.0000
  C   C412      1.0  0.87672  0.15903  0.97393  1.0000
  H   H659      1.0  0.88751  0.24143  0.99046  1.0000
  C   C413      1.0  0.87784  0.11541  0.07005  1.0000
  H   H660      1.0  0.88030  0.26570  0.92768  1.0000
  H   H661      1.0  0.88550  0.21825  0.88652  1.0000
  N   N40       1.0  0.85711  0.10514  0.08762  1.0000
  H   H662      1.0  0.89341  0.10232  0.06844  1.0000
  H   H663      1.0  0.88302  0.13031  0.08821  1.0000
  C   C414      1.0  0.84846  0.16948  0.02676  1.0000
  C   C415      1.0  0.85345  0.16113  0.98799  1.0000
  S   S171      1.0  0.91292  0.18040  0.06926  1.0000
  H   H664      1.0  0.84228  0.21959  0.89815  1.0000
  H   H665      1.0  0.91303  0.16341  0.98810  1.0000
  H   H666      1.0  0.84903  0.26641  0.93654  1.0000
  H   H667      1.0  0.90443  0.22791  0.92482  1.0000
  H   H668      1.0  0.87421  0.12210  0.03886  1.0000
  C   C416      1.0  0.88796  0.21926  0.91971  1.0000
  N   N41       1.0  0.86741  0.23209  0.93914  1.0000
  C   C417      1.0  0.84597  0.22012  0.93103  1.0000
  C   C418      1.0  0.86437  0.25618  0.92257  1.0000
  S   S172      1.0  0.87043  0.17064  0.86428  1.0000
  C   C419      1.0  0.89499  0.16522  0.99884  1.0000
  H   H669      1.0  0.88061  0.10035  0.86712  1.0000
  C   C420      1.0  0.89002  0.17317  0.03798  1.0000
  H   H670      1.0  0.87350  0.21485  0.99648  1.0000
  H   H671      1.0  0.86124  0.25616  0.88939  1.0000
  H   H672      1.0  0.88074  0.15213  0.94427  1.0000
  H   H673      1.0  0.86267  0.18154  0.08169  1.0000
  C   C421      1.0  0.86673  0.17528  0.05182  1.0000
  H   H674      1.0  0.84778  0.20174  0.94222  1.0000
  H   H675      1.0  0.89087  0.20103  0.93158  1.0000
  C   C422      1.0  0.87131  0.23278  0.98316  1.0000
  S   S173      1.0  0.93008  0.55749  0.21406  1.0000
  S   S174      1.0  0.95311  0.49135  0.22541  1.0000
  C   C423      1.0  0.95335  0.42121  0.32387  1.0000
  H   H676      1.0  0.95232  0.45847  0.31268  1.0000
  H   H677      1.0  0.93438  0.42089  0.32358  1.0000
  C   C424      1.0  0.96774  0.40043  0.32999  1.0000
  C   C425      1.0  0.96345  0.44245  0.31759  1.0000
  C   C426      1.0  0.94101  0.40654  0.17483  1.0000
  H   H678      1.0  0.94198  0.42086  0.15208  1.0000
  H   H679      1.0  0.92527  0.41120  0.19407  1.0000
  H   H680      1.0  0.93951  0.50206  0.10543  1.0000
  H   H681      1.0  0.96864  0.43983  0.19884  1.0000
  C   C427      1.0  0.96621  0.42529  0.22038  1.0000
  H   H682      1.0  0.95074  0.43092  0.23956  1.0000
  S   S175      1.0  0.95476  0.37391  0.33596  1.0000
  H   H683      1.0  0.94544  0.38848  0.25001  1.0000
  C   C428      1.0  0.93209  0.58151  0.24583  1.0000
  H   H684      1.0  0.93788  0.39037  0.15823  1.0000
  S   S176      1.0  0.96683  0.45816  0.12050  1.0000
  Fe  Fe87      1.0  0.95965  0.52897  0.21311  1.0000
  N   N42       1.0  0.96275  0.40335  0.19922  1.0000
  H   H685      1.0  0.95791  0.36749  0.21448  1.0000
  C   C429      1.0  0.96060  0.38436  0.22919  1.0000
  C   C430      1.0  0.95338  0.58621  0.26376  1.0000
  H   H686      1.0  0.96393  0.57685  0.15933  1.0000
  H   H687      1.0  0.98518  0.41129  0.14954  1.0000
  C   C431      1.0  0.98319  0.39729  0.17258  1.0000
  H   H688      1.0  0.98128  0.38076  0.15620  1.0000
  H   H689      1.0  0.99989  0.39504  0.19010  1.0000
  H   H690      1.0  0.98208  0.42337  0.24000  1.0000
  H   H691      1.0  0.96896  0.57438  0.25963  1.0000
  H   H692      1.0  0.97667  0.38151  0.24828  1.0000
  H   H693      1.0  0.06390  0.53778  0.24262  1.0000
  Fe  Fe88      1.0  0.97311  0.48449  0.16776  1.0000
  S   S177      1.0  0.97681  0.52208  0.15294  1.0000
  S   S178      1.0  0.00105  0.46916  0.30999  1.0000
  Fe  Fe89      1.0  0.98879  0.48940  0.25444  1.0000
  S   S179      1.0  0.00812  0.47901  0.19766  1.0000
  Fe  Fe90      1.0  0.01028  0.51740  0.18797  1.0000
  S   S180      1.0  0.04186  0.53329  0.16221  1.0000
  S   S181      1.0  0.99371  0.52770  0.24717  1.0000
  C   C432      1.0  0.06756  0.51464  0.16939  1.0000
  C   C433      1.0  0.06744  0.49512  0.19496  1.0000
  H   H694      1.0  0.05178  0.49175  0.21145  1.0000
  C   C434      1.0  0.98797  0.44295  0.31799  1.0000
  H   H695      1.0  0.06978  0.54470  0.29383  1.0000
  C   C435      1.0  0.07683  0.54543  0.26250  1.0000
  H   H696      1.0  0.04532  0.57672  0.22674  1.0000
  N   N43       1.0  0.08045  0.56967  0.25007  1.0000
  C   C436      1.0  0.00230  0.42224  0.32475  1.0000
  C   C437      1.0  0.99223  0.40097  0.33012  1.0000
  H   H697      1.0  0.02128  0.42258  0.32498  1.0000
  C   C438      1.0  0.05743  0.58369  0.24905  1.0000
  H   H698      1.0  0.02911  0.49411  0.11789  1.0000
  H   H699      1.0  0.07922  0.56370  0.18633  1.0000
  H   H700      1.0  0.04848  0.58357  0.27899  1.0000
  H   H701      1.0  0.99290  0.58402  0.14476  1.0000
  H   H702      1.0  0.00351  0.38503  0.33363  1.0000
  C   C439      1.0  0.97226  0.37646  0.45012  1.0000
  H   H703      1.0  0.97342  0.37697  0.41662  1.0000
  H   H704      1.0  0.93831  0.34692  0.46085  1.0000
  C   C440      1.0  0.93258  0.36473  0.44904  1.0000
  H   H705      1.0  0.92907  0.38623  0.52052  1.0000
  H   H706      1.0  0.92091  0.41079  0.45847  1.0000
  H   H707      1.0  0.93943  0.40611  0.41473  1.0000
  C   C441      1.0  0.93928  0.40568  0.44841  1.0000
  N   N44       1.0  0.94783  0.38228  0.46413  1.0000
  H   H708      1.0  0.91390  0.36880  0.45838  1.0000
  H   H709      1.0  0.93301  0.36393  0.41545  1.0000
  H   H710      1.0  0.95057  0.41933  0.45873  1.0000
  C   C442      1.0  0.94728  0.38218  0.50875  1.0000
  H   H711      1.0  0.95390  0.36476  0.52138  1.0000
  H   H712      1.0  0.95853  0.39527  0.52126  1.0000
  H   H713      1.0  0.08264  0.35555  0.45869  1.0000
  C   C443      1.0  0.07598  0.35053  0.35449  1.0000
  H   H714      1.0  0.98446  0.38890  0.46182  1.0000
  H   H715      1.0  0.97901  0.35863  0.46026  1.0000
  Fe  Fe91      1.0  0.97964  0.34263  0.35287  1.0000
  S   S182      1.0  0.01425  0.34599  0.38321  1.0000
  H   H716      1.0  0.08632  0.37970  0.38848  1.0000
  H   H717      1.0  0.05774  0.35724  0.35287  1.0000
  H   H718      1.0  0.05850  0.34734  0.48962  1.0000
  C   C444      1.0  0.07181  0.34091  0.46671  1.0000
  S   S183      1.0  0.91852  0.37153  0.79533  1.0000
  C   C445      1.0  0.92429  0.40053  0.78488  1.0000
  H   H719      1.0  0.93375  0.39468  0.72270  1.0000
  C   C446      1.0  0.93283  0.40694  0.74709  1.0000
  C   C447      1.0  0.94048  0.42928  0.74091  1.0000
  C   C448      1.0  0.93953  0.44525  0.77252  1.0000
  C   C449      1.0  0.92946  0.43944  0.80944  1.0000
  H   H720      1.0  0.94787  0.43389  0.71207  1.0000
  C   C450      1.0  0.92187  0.41707  0.81564  1.0000
  S   S184      1.0  0.95354  0.47111  0.76692  1.0000
  H   H721      1.0  0.92787  0.45204  0.83345  1.0000
  H   H722      1.0  0.91484  0.41234  0.84471  1.0000
  S   S185      1.0  0.95521  0.35239  0.69654  1.0000
  H   H723      1.0  0.97192  0.38136  0.78539  1.0000
  Fe  Fe92      1.0  0.93772  0.34487  0.75545  1.0000
  Fe  Fe93      1.0  0.97057  0.48107  0.82442  1.0000
  H   H724      1.0  0.97268  0.41789  0.82634  1.0000
  H   H725      1.0  0.98873  0.43116  0.78670  1.0000
  H   H726      1.0  0.98699  0.39613  0.74637  1.0000
  H   H727      1.0  0.02618  0.41085  0.76175  1.0000
  S   S186      1.0  0.01006  0.47991  0.82709  1.0000
  C   C451      1.0  0.98967  0.38508  0.77409  1.0000
  H   H728      1.0  0.99901  0.36820  0.76488  1.0000
  C   C452      1.0  0.02689  0.40004  0.78992  1.0000
  H   H729      1.0  0.01382  0.36487  0.83701  1.0000
  H   H730      1.0  0.03684  0.38303  0.78290  1.0000
  N   N45       1.0  0.00295  0.39675  0.80506  1.0000
  H   H731      1.0  0.03716  0.40908  0.81257  1.0000
  C   C453      1.0  0.00447  0.38233  0.84236  1.0000
  C   C454      1.0  0.99062  0.41975  0.81410  1.0000
  H   H732      1.0  0.00026  0.42914  0.83701  1.0000
  S   S187      1.0  0.02218  0.54660  0.84817  1.0000
  H   H733      1.0  0.08552  0.41024  0.82616  1.0000
  H   H734      1.0  0.07049  0.34030  0.69805  1.0000
  C   C455      1.0  0.95282  0.58447  0.87414  1.0000
  H   H735      1.0  0.90920  0.56964  0.87829  1.0000
  H   H736      1.0  0.93052  0.54614  0.89205  1.0000
  S   S188      1.0  0.94021  0.51285  0.95902  1.0000
  C   C456      1.0  0.94650  0.49708  0.00374  1.0000
  N   N46       1.0  0.93913  0.58001  0.91103  1.0000
  C   C457      1.0  0.92174  0.56307  0.90230  1.0000
  C   C458      1.0  0.93926  0.50669  0.04082  1.0000
  H   H737      1.0  0.92927  0.52358  0.04174  1.0000
  C   C459      1.0  0.94515  0.49457  0.07683  1.0000
  H   H738      1.0  0.94550  0.56539  0.97052  1.0000
  C   C460      1.0  0.95791  0.47265  0.07570  1.0000
  C   C461      1.0  0.95531  0.57040  0.94307  1.0000
  C   C462      1.0  0.95930  0.47517  0.00264  1.0000
  C   C463      1.0  0.96467  0.46279  0.03860  1.0000
  S   S189      1.0  0.96633  0.46243  0.88358  1.0000
  H   H739      1.0  0.96485  0.46763  0.97406  1.0000
  H   H740      1.0  0.91134  0.55906  0.92967  1.0000
  H   H741      1.0  0.96357  0.56843  0.86410  1.0000
  H   H742      1.0  0.08601  0.38325  0.85437  1.0000
  H   H743      1.0  0.01407  0.39089  0.86653  1.0000
  Fe  Fe94      1.0  0.96406  0.49831  0.90992  1.0000
  S   S190      1.0  0.96484  0.51689  0.85032  1.0000
  H   H744      1.0  0.96603  0.55437  0.93289  1.0000
  H   H745      1.0  0.96772  0.58326  0.95225  1.0000
  H   H746      1.0  0.98660  0.37956  0.85437  1.0000
  H   H747      1.0  0.07590  0.41041  0.87782  1.0000
  H   H748      1.0  0.01214  0.47305  0.09481  1.0000
  C   C464      1.0  0.08227  0.43395  0.98743  1.0000
  H   H749      1.0  0.04360  0.46245  0.02330  1.0000
  C   C465      1.0  0.02884  0.48174  0.09242  1.0000
  H   H750      1.0  0.03002  0.55556  0.99394  1.0000
  Fe  Fe95      1.0  0.00541  0.46391  0.88824  1.0000
  H   H751      1.0  0.05512  0.51429  0.02182  1.0000
  H   H752      1.0  0.06858  0.49134  0.05338  1.0000
  Fe  Fe96      1.0  0.00388  0.51408  0.85910  1.0000
  C   C466      1.0  0.02532  0.56410  0.96551  1.0000
  C   C467      1.0  0.01654  0.58758  0.96478  1.0000
  H   H753      1.0  0.05481  0.51747  0.07575  1.0000
  H   H754      1.0  0.08483  0.48782  0.94482  1.0000
  N   N47       1.0  0.03063  0.49397  0.05323  1.0000
  H   H755      1.0  0.97448  0.44581  0.03764  1.0000
  H   H756      1.0  0.01160  0.52582  0.07297  1.0000
  C   C468      1.0  0.02777  0.55157  0.92950  1.0000
  S   S191      1.0  0.02812  0.43232  0.90968  1.0000
  H   H757      1.0  0.03460  0.53342  0.93007  1.0000
  C   C469      1.0  0.07912  0.47062  0.95030  1.0000
  C   C470      1.0  0.05202  0.44141  0.93643  1.0000
  C   C471      1.0  0.01088  0.51232  0.04923  1.0000
  H   H758      1.0  0.03180  0.48545  0.99039  1.0000
  S   S192      1.0  0.00271  0.49799  0.92077  1.0000
  H   H759      1.0  0.01109  0.52128  0.01929  1.0000
  H   H760      1.0  0.01232  0.46918  0.01996  1.0000
  C   C472      1.0  0.05995  0.46341  0.92879  1.0000
  H   H761      1.0  0.05146  0.47485  0.90604  1.0000
  H   H762      1.0  0.05694  0.40968  0.97181  1.0000
  C   C473      1.0  0.06320  0.42665  0.96568  1.0000
  C   C474      1.0  0.05328  0.50475  0.05095  1.0000
  C   C475      1.0  0.02952  0.47701  0.02030  1.0000
  C   C476      1.0  0.01404  0.58643  0.89183  1.0000
  H   H763      1.0  0.99354  0.50485  0.05214  1.0000
  C   C477      1.0  0.02175  0.56264  0.89271  1.0000
  H   H764      1.0  0.04373  0.46811  0.09693  1.0000
  S   S193      1.0  0.93507  0.64717  0.32150  1.0000
  C   C478      1.0  0.93424  0.62171  0.29287  1.0000
  C   C479      1.0  0.91296  0.61675  0.27544  1.0000
  C   C480      1.0  0.95452  0.60648  0.28689  1.0000
  H   H765      1.0  0.89726  0.62845  0.27995  1.0000
  H   H766      1.0  0.97095  0.61007  0.30082  1.0000
  H   H767      1.0  0.96387  0.68788  0.22624  1.0000
  C   C481      1.0  0.94932  0.68631  0.16656  1.0000
  H   H768      1.0  0.93502  0.67628  0.17614  1.0000
  Fe  Fe97      1.0  0.97089  0.66015  0.32080  1.0000
  N   N48       1.0  0.96614  0.61291  0.14285  1.0000
  C   C482      1.0  0.91196  0.59688  0.25161  1.0000
  C   C483      1.0  0.94411  0.62064  0.16445  1.0000
  H   H769      1.0  0.94747  0.62434  0.19674  1.0000
  H   H770      1.0  0.93531  0.63686  0.15062  1.0000
  H   H771      1.0  0.93129  0.60703  0.16393  1.0000
  C   C484      1.0  0.95236  0.69158  0.12565  1.0000
  C   C485      1.0  0.96571  0.69281  0.19489  1.0000
  H   H772      1.0  0.89548  0.59335  0.23777  1.0000
  C   C486      1.0  0.97648  0.59067  0.16074  1.0000
  C   C487      1.0  0.97064  0.70491  0.11358  1.0000
  S   S194      1.0  0.97284  0.69890  0.31622  1.0000
  C   C488      1.0  0.04352  0.74856  0.14736  1.0000
  H   H773      1.0  0.98677  0.63466  0.17849  1.0000
  H   H774      1.0  0.03159  0.75177  0.12099  1.0000
  N   N49       1.0  0.06256  0.73011  0.13882  1.0000
  Fe  Fe98      1.0  0.00195  0.68988  0.27236  1.0000
  Fe  Fe99      1.0  0.02316  0.64954  0.32321  1.0000
  S   S195      1.0  0.05532  0.62435  0.32522  1.0000
  S   S196      1.0  0.99750  0.65150  0.27202  1.0000
  S   S197      1.0  0.03010  0.68735  0.31905  1.0000
  C   C489      1.0  0.07470  0.64017  0.29750  1.0000
  C   C490      1.0  0.06630  0.65253  0.26320  1.0000
  H   H775      1.0  0.04914  0.64982  0.25118  1.0000
  S   S198      1.0  0.00681  0.71086  0.21632  1.0000
  C   C491      1.0  0.98463  0.70521  0.18239  1.0000
  H   H776      1.0  0.99806  0.73952  0.33654  1.0000
  H   H777      1.0  0.98884  0.78087  0.31604  1.0000
  C   C492      1.0  0.99129  0.77634  0.34763  1.0000
  C   C493      1.0  0.98659  0.71195  0.14198  1.0000
  H   H778      1.0  0.04136  0.70192  0.15346  1.0000
  H   H779      1.0  0.00082  0.72193  0.13228  1.0000
  H   H780      1.0  0.05950  0.60226  0.24092  1.0000
  C   C494      1.0  0.05221  0.70824  0.12824  1.0000
  H   H781      1.0  0.06704  0.72069  0.20146  1.0000
  H   H782      1.0  0.05075  0.76536  0.15492  1.0000
  H   H783      1.0  0.03248  0.74359  0.17337  1.0000
  C   C495      1.0  0.98307  0.63089  0.14636  1.0000
  C   C496      1.0  0.07917  0.66985  0.24624  1.0000
  H   H784      1.0  0.07190  0.68020  0.22113  1.0000
  H   H785      1.0  0.07796  0.70169  0.33159  1.0000
  H   H786      1.0  0.06798  0.75388  0.34772  1.0000
  C   C497      1.0  0.07751  0.72599  0.17493  1.0000
  H   H787      1.0  0.98088  0.59278  0.19308  1.0000
  H   H788      1.0  0.97608  0.64764  0.13198  1.0000
  H   H789      1.0  0.00009  0.62540  0.13120  1.0000
  H   H790      1.0  0.06611  0.69403  0.12124  1.0000
  C   C498      1.0  0.07700  0.73763  0.10471  1.0000
  H   H791      1.0  0.08601  0.74194  0.18353  1.0000
  H   H792      1.0  0.92861  0.72343  0.35551  1.0000
  H   H793      1.0  0.95414  0.73242  0.38052  1.0000
  H   H794      1.0  0.92610  0.74824  0.38845  1.0000
  C   C499      1.0  0.93500  0.73040  0.38431  1.0000
  H   H795      1.0  0.95878  0.72680  0.45408  1.0000
  H   H796      1.0  0.89511  0.72974  0.42735  1.0000
  H   H797      1.0  0.89809  0.70471  0.39494  1.0000
  H   H798      1.0  0.90123  0.70086  0.44852  1.0000
  H   H799      1.0  0.96249  0.69251  0.40975  1.0000
  H   H800      1.0  0.93726  0.68352  0.38374  1.0000
  H   H801      1.0  0.93060  0.74244  0.46217  1.0000
  H   H802      1.0  0.93675  0.71342  0.48290  1.0000
  C   C500      1.0  0.93952  0.72479  0.45619  1.0000
  C   C501      1.0  0.90512  0.71246  0.42263  1.0000
  C   C502      1.0  0.94313  0.69147  0.41210  1.0000
  H   H803      1.0  0.94003  0.67908  0.43723  1.0000
  N   N50       1.0  0.93069  0.71478  0.41883  1.0000
  H   H804      1.0  0.08143  0.69342  0.42346  1.0000
  Fe  Fe100     1.0  0.00079  0.69312  0.36341  1.0000
  H   H805      1.0  0.05483  0.69718  0.39447  1.0000
  H   H806      1.0  0.05854  0.71575  0.43641  1.0000
  S   S199      1.0  0.00543  0.83777  0.55759  1.0000
  N   N51       1.0  0.07892  0.72350  0.38385  1.0000
  C   C503      1.0  0.06803  0.70673  0.41077  1.0000
  H   H807      1.0  0.99106  0.80154  0.44001  1.0000
  S   S200      1.0  0.99625  0.65496  0.37238  1.0000
  H   H808      1.0  0.04683  0.73249  0.35112  1.0000
  S   S201      1.0  0.00436  0.71753  0.41508  1.0000
  H   H809      1.0  0.99985  0.76001  0.46075  1.0000
  C   C504      1.0  0.99757  0.76453  0.42914  1.0000
  H   H810      1.0  0.05114  0.75079  0.39327  1.0000
  C   C505      1.0  0.06047  0.74096  0.36829  1.0000
  C   C506      1.0  0.99258  0.78802  0.41745  1.0000
  C   C507      1.0  0.99641  0.75291  0.35927  1.0000
  C   C508      1.0  0.99927  0.74695  0.40008  1.0000
  S   S202      1.0  0.98222  0.82304  0.36133  1.0000
  C   C509      1.0  0.98922  0.79392  0.37666  1.0000
  H   H811      1.0  0.05334  0.83744  0.53035  1.0000
  H   H812      1.0  0.08115  0.82671  0.47432  1.0000
  H   H813      1.0  0.08624  0.75334  0.11220  1.0000
  C   C510      1.0  0.96089  0.60946  0.09979  1.0000
  H   H814      1.0  0.04065  0.71074  0.10124  1.0000
  C   C511      1.0  0.94531  0.75067  0.84609  1.0000
  Fe  Fe101     1.0  0.94714  0.81428  0.83898  1.0000
  C   C512      1.0  0.95105  0.72634  0.84628  1.0000
  H   H815      1.0  0.94951  0.76106  0.82007  1.0000
  H   H816      1.0  0.96000  0.71807  0.82065  1.0000
  H   H817      1.0  0.94113  0.59064  0.84867  1.0000
  S   S203      1.0  0.96476  0.80549  0.77976  1.0000
  C   C513      1.0  0.07310  0.83417  0.79461  1.0000
  S   S204      1.0  0.03151  0.81381  0.79489  1.0000
  Fe  Fe102     1.0  0.99342  0.82623  0.80297  1.0000
  C   C514      1.0  0.04933  0.83628  0.80602  1.0000
  H   H818      1.0  0.00500  0.81731  0.63677  1.0000
  H   H819      1.0  0.97661  0.82266  0.69365  1.0000
  H   H820      1.0  0.08054  0.81841  0.78016  1.0000
  H   H821      1.0  0.03861  0.82973  0.67026  1.0000
  C   C515      1.0  0.98886  0.82844  0.63297  1.0000
  H   H822      1.0  0.05158  0.83416  0.71836  1.0000
  C   C516      1.0  0.97277  0.83136  0.66504  1.0000
  H   H823      1.0  0.01599  0.75850  0.84466  1.0000
  H   H824      1.0  0.95293  0.62596  0.08552  1.0000
  C   C517      1.0  0.93432  0.76139  0.87976  1.0000
  S   S205      1.0  0.92856  0.79185  0.88252  1.0000
  C   C518      1.0  0.94600  0.71285  0.88028  1.0000
  S   S206      1.0  0.95639  0.68321  0.88349  1.0000
  H   H825      1.0  0.88906  0.80377  0.93142  1.0000
  H   H826      1.0  0.93915  0.61557  0.93049  1.0000
  C   C519      1.0  0.92838  0.74774  0.91287  1.0000
  C   C520      1.0  0.93425  0.72355  0.91316  1.0000
  S   S207      1.0  0.95769  0.64761  0.98840  1.0000
  S   S208      1.0  0.93624  0.67832  0.08888  1.0000
  H   H827      1.0  0.92967  0.71315  0.93895  1.0000
  H   H828      1.0  0.91964  0.75589  0.93879  1.0000
  Fe  Fe103     1.0  0.96062  0.67465  0.03587  1.0000
  C   C521      1.0  0.87571  0.81724  0.94355  1.0000
  H   H829      1.0  0.85806  0.81180  0.93543  1.0000
  H   H830      1.0  0.87724  0.81662  0.97700  1.0000
  H   H831      1.0  0.91394  0.60966  0.90151  1.0000
  H   H832      1.0  0.91709  0.83473  0.92468  1.0000
  H   H833      1.0  0.88995  0.82740  0.86897  1.0000
  C   C522      1.0  0.92662  0.60216  0.92467  1.0000
  H   H834      1.0  0.91660  0.59959  0.95306  1.0000
  C   C523      1.0  0.07866  0.71973  0.98894  1.0000
  H   H835      1.0  0.96523  0.59808  0.87925  1.0000
  H   H836      1.0  0.94821  0.59593  0.09608  1.0000
  H   H837      1.0  0.85916  0.83654  0.87332  1.0000
  Fe  Fe104     1.0  0.96953  0.67527  0.94626  1.0000
  N   N52       1.0  0.07846  0.62553  0.92825  1.0000
  C   C524      1.0  0.08202  0.59973  0.92718  1.0000
  H   H838      1.0  0.97715  0.60383  0.08241  1.0000
  H   H839      1.0  0.97283  0.70937  0.08213  1.0000
  Fe  Fe105     1.0  0.00651  0.69008  0.00279  1.0000
  H   H840      1.0  0.06507  0.59156  0.93032  1.0000
  H   H841      1.0  0.07863  0.62654  0.99304  1.0000
  H   H842      1.0  0.98719  0.77195  0.85658  1.0000
  H   H843      1.0  0.04130  0.78005  0.91431  1.0000
  C   C525      1.0  0.00605  0.77081  0.86555  1.0000
  H   H844      1.0  0.01247  0.78835  0.86027  1.0000
  H   H845      1.0  0.97616  0.78107  0.92662  1.0000
  S   S209      1.0  0.99840  0.66400  0.05033  1.0000
  H   H846      1.0  0.00955  0.59502  0.86331  1.0000
  H   H847      1.0  0.07092  0.62898  0.86487  1.0000
  H   H848      1.0  0.04530  0.74987  0.90015  1.0000
  H   H849      1.0  0.00404  0.61689  0.92718  1.0000
  C   C526      1.0  0.99526  0.77996  0.93441  1.0000
  H   H850      1.0  0.05959  0.65339  0.89477  1.0000
  C   C527      1.0  0.03437  0.76265  0.91889  1.0000
  H   H851      1.0  0.98170  0.73992  0.90797  1.0000
  C   C528      1.0  0.06295  0.63403  0.89459  1.0000
  H   H852      1.0  0.06592  0.74198  0.07765  1.0000
  H   H853      1.0  0.04557  0.62661  0.89644  1.0000
  H   H854      1.0  0.00116  0.79788  0.93134  1.0000
  H   H855      1.0  0.08118  0.72716  0.01815  1.0000
  S   S210      1.0  0.00804  0.66410  0.95288  1.0000
  H   H856      1.0  0.07081  0.69337  0.88320  1.0000
  C   C529      1.0  0.07298  0.70061  0.91280  1.0000
  H   H857      1.0  0.06464  0.65228  0.96896  1.0000
  S   S211      1.0  0.01197  0.60254  0.01012  1.0000
  S   S212      1.0  0.96892  0.70328  0.99299  1.0000
  S   S213      1.0  0.03370  0.71533  0.01320  1.0000
  C   C530      1.0  0.05388  0.70316  0.93980  1.0000
  H   H858      1.0  0.99691  0.77455  0.96673  1.0000
  N   N53       1.0  0.00916  0.76328  0.90812  1.0000
  H   H859      1.0  0.05002  0.62575  0.97108  1.0000
  H   H860      1.0  0.00396  0.73312  0.94508  1.0000
  C   C531      1.0  0.05687  0.71238  0.97823  1.0000
  C   C532      1.0  0.01104  0.59882  0.92793  1.0000
  Fe  Fe106     1.0  0.99624  0.63915  0.99958  1.0000
  H   H861      1.0  0.00999  0.72688  0.89280  1.0000
  S   S214      1.0  0.97730  0.83200  0.86405  1.0000
  H   H862      1.0  0.03689  0.69830  0.93062  1.0000
  C   C533      1.0  0.00090  0.73976  0.91370  1.0000
  C   C534      1.0  0.06745  0.63287  0.96704  1.0000
  H   H863      1.0  0.03730  0.75745  0.95108  1.0000
  H   H864      1.0  0.64150  0.05057  0.28864  1.0000
  C   C535      1.0  0.65420  0.06013  0.30427  1.0000
  C   C536      1.0  0.66937  0.07357  0.28228  1.0000
  H   H865      1.0  0.66819  0.07462  0.24974  1.0000
  C   C537      1.0  0.65559  0.05895  0.34640  1.0000
  C   C538      1.0  0.68543  0.08629  0.30258  1.0000
  C   C539      1.0  0.68675  0.08515  0.34470  1.0000
  H   H866      1.0  0.73763  0.06401  0.24740  1.0000
  C   C540      1.0  0.75457  0.07214  0.25082  1.0000
  H   H867      1.0  0.76584  0.06742  0.22411  1.0000
  H   H868      1.0  0.81391  0.03439  0.12003  1.0000
  N   N54       1.0  0.76651  0.06464  0.28889  1.0000
  H   H869      1.0  0.80048  0.07318  0.26763  1.0000
  C   C541      1.0  0.78803  0.07706  0.29320  1.0000
  H   H870      1.0  0.79748  0.07184  0.32163  1.0000
  H   H871      1.0  0.73418  0.06093  0.32132  1.0000
  C   C542      1.0  0.77292  0.03918  0.28809  1.0000
  H   H872      1.0  0.75703  0.02933  0.28479  1.0000
  H   H873      1.0  0.78507  0.03436  0.26252  1.0000
  H   H874      1.0  0.78182  0.03300  0.31654  1.0000
  S   S215      1.0  0.82644  0.04290  0.20198  1.0000
  S   S216      1.0  0.82912  0.00725  0.29829  1.0000
  C   C543      1.0  0.75056  0.07014  0.32344  1.0000
  H   H875      1.0  0.84774  0.08778  0.14253  1.0000
  H   H876      1.0  0.84165  0.96718  0.17962  1.0000
  C   C544      1.0  0.83294  0.03357  0.12201  1.0000
  H   H877      1.0  0.87058  0.93993  0.21545  1.0000
  H   H878      1.0  0.89319  0.98130  0.11673  1.0000
  C   C545      1.0  0.84369  0.03771  0.15881  1.0000
  S   S217      1.0  0.85314  0.05750  0.30572  1.0000
  Fe  Fe107     1.0  0.84672  0.03178  0.25768  1.0000
  C   C546      1.0  0.89751  0.97341  0.14696  1.0000
  Fe  Fe108     1.0  0.86534  0.98996  0.30854  1.0000
  S   S218      1.0  0.88242  0.01208  0.26271  1.0000
  H   H879      1.0  0.90108  0.03058  0.12904  1.0000
  C   C547      1.0  0.88206  0.03127  0.12711  1.0000
  C   C548      1.0  0.86824  0.03686  0.16124  1.0000
  H   H880      1.0  0.87659  0.04072  0.18932  1.0000
  S   S219      1.0  0.87334  0.95097  0.30599  1.0000
  H   H881      1.0  0.90119  0.98790  0.16743  1.0000
  H   H882      1.0  0.85963  0.99050  0.18965  1.0000
  C   C549      1.0  0.85668  0.97645  0.16788  1.0000
  N   N55       1.0  0.87811  0.96031  0.16266  1.0000
  H   H883      1.0  0.91413  0.96191  0.14358  1.0000
  H   H884      1.0  0.88922  0.96287  0.22427  1.0000
  C   C550      1.0  0.88500  0.94947  0.20201  1.0000
  H   H885      1.0  0.90084  0.93682  0.19931  1.0000
  Fe  Fe109     1.0  0.88733  0.03570  0.31482  1.0000
  H   H886      1.0  0.85109  0.98508  0.13882  1.0000
  H   H887      1.0  0.85874  0.93164  0.14466  1.0000
  C   C551      1.0  0.87325  0.94193  0.13372  1.0000
  S   S220      1.0  0.92233  0.04826  0.33006  1.0000
  H   H888      1.0  0.90279  0.90859  0.32207  1.0000
  H   H889      1.0  0.88909  0.92951  0.12884  1.0000
  C   C552      1.0  0.92859  0.07497  0.30801  1.0000
  H   H890      1.0  0.95135  0.96186  0.32866  1.0000
  H   H891      1.0  0.86793  0.94964  0.10374  1.0000
  H   H892      1.0  0.87826  0.08277  0.12830  1.0000
  Fe  Fe110     1.0  0.83798  0.03157  0.34714  1.0000
  H   H893      1.0  0.89886  0.07781  0.26780  1.0000
  C   C553      1.0  0.91398  0.08610  0.27845  1.0000
  C   C554      1.0  0.94852  0.08540  0.32089  1.0000
  H   H894      1.0  0.95990  0.07681  0.34361  1.0000
  H   H895      1.0  0.99329  0.96425  0.34786  1.0000
  H   H896      1.0  0.64906  0.97282  0.57938  1.0000
  H   H897      1.0  0.59970  0.01757  0.41588  1.0000
  H   H898      1.0  0.67270  0.07099  0.39907  1.0000
  C   C555      1.0  0.59918  0.97150  0.52583  1.0000
  S   S221      1.0  0.68344  0.99292  0.52061  1.0000
  S   S222      1.0  0.62581  0.95933  0.50544  1.0000
  Fe  Fe111     1.0  0.67148  0.03104  0.51353  1.0000
  S   S223      1.0  0.67535  0.05533  0.56525  1.0000
  Fe  Fe112     1.0  0.65538  0.02587  0.42777  1.0000
  S   S224      1.0  0.66586  0.98744  0.42729  1.0000
  Fe  Fe113     1.0  0.64972  0.98725  0.48892  1.0000
  S   S225      1.0  0.63642  0.02512  0.48684  1.0000
  H   H899      1.0  0.63244  0.03275  0.57284  1.0000
  S   S226      1.0  0.63664  0.04224  0.37384  1.0000
  H   H900      1.0  0.61497  0.99981  0.55373  1.0000
  C   C556      1.0  0.67191  0.07141  0.36656  1.0000
  C   C557      1.0  0.59881  0.99187  0.54842  1.0000
  S   S227      1.0  0.68950  0.03538  0.45394  1.0000
  H   H901      1.0  0.64125  0.93045  0.57548  1.0000
  Fe  Fe114     1.0  0.69863  0.99665  0.45851  1.0000
  H   H902      1.0  0.61926  0.08595  0.45517  1.0000
  H   H903      1.0  0.75916  0.06496  0.35272  1.0000
  H   H904      1.0  0.80499  0.99840  0.37032  1.0000
  H   H905      1.0  0.77332  0.97282  0.38678  1.0000
  C   C558      1.0  0.77293  0.99009  0.39953  1.0000
  S   S228      1.0  0.73364  0.97848  0.43979  1.0000
  C   C559      1.0  0.79071  0.00466  0.38984  1.0000
  C   C560      1.0  0.75459  0.99779  0.42571  1.0000
  S   S229      1.0  0.81173  0.04590  0.39303  1.0000
  C   C561      1.0  0.78994  0.02719  0.40563  1.0000
  C   C562      1.0  0.77149  0.03499  0.43149  1.0000
  H   H906      1.0  0.77087  0.05238  0.44395  1.0000
  C   C563      1.0  0.75389  0.02027  0.44168  1.0000
  H   H907      1.0  0.74008  0.02616  0.46256  1.0000
  H   H908      1.0  0.78219  0.95448  0.45915  1.0000
  N   N56       1.0  0.81834  0.93990  0.45910  1.0000
  C   C564      1.0  0.79924  0.95658  0.47452  1.0000
  H   H909      1.0  0.79621  0.95404  0.50739  1.0000
  H   H910      1.0  0.80330  0.97506  0.46967  1.0000
  H   H911      1.0  0.80611  0.94244  0.39775  1.0000
  H   H912      1.0  0.79504  0.91313  0.44809  1.0000
  C   C565      1.0  0.81161  0.91576  0.46457  1.0000
  H   H913      1.0  0.80863  0.91161  0.49698  1.0000
  C   C566      1.0  0.82223  0.94458  0.41571  1.0000
  H   H914      1.0  0.82560  0.90272  0.45310  1.0000
  H   H915      1.0  0.82709  0.96274  0.41039  1.0000
  H   H916      1.0  0.83672  0.93247  0.40316  1.0000
  H   H917      1.0  0.83790  0.93977  0.51455  1.0000
  C   C567      1.0  0.90001  0.91792  0.35010  1.0000
  C   C568      1.0  0.88580  0.93908  0.35083  1.0000
  H   H918      1.0  0.84626  0.96045  0.47717  1.0000
  C   C569      1.0  0.84029  0.94262  0.48157  1.0000
  H   H919      1.0  0.85488  0.92979  0.47150  1.0000
  H   H920      1.0  0.92194  0.89258  0.38489  1.0000
  S   S230      1.0  0.92127  0.91064  0.46642  1.0000
  C   C570      1.0  0.88209  0.95088  0.38725  1.0000
  C   C571      1.0  0.89299  0.94192  0.42260  1.0000
  C   C572      1.0  0.90754  0.92102  0.42178  1.0000
  C   C573      1.0  0.91099  0.90894  0.38554  1.0000
  H   H921      1.0  0.87065  0.96680  0.38835  1.0000
  H   H922      1.0  0.89046  0.95135  0.45056  1.0000
  S   S231      1.0  0.87281  0.01221  0.36128  1.0000
  S   S232      1.0  0.95931  0.84807  0.46675  1.0000
  Fe  Fe115     1.0  0.95447  0.88703  0.45715  1.0000
  H   H923      1.0  0.95890  0.86230  0.56201  1.0000
  C   C574      1.0  0.96276  0.85351  0.59056  1.0000
  H   H924      1.0  0.94205  0.99651  0.39826  1.0000
  H   H925      1.0  0.92918  0.96101  0.36706  1.0000
  H   H926      1.0  0.94060  0.96011  0.43954  1.0000
  H   H927      1.0  0.94972  0.93596  0.35925  1.0000
  C   C575      1.0  0.94789  0.95543  0.35974  1.0000
  H   H928      1.0  0.96156  0.93566  0.43067  1.0000
  H   H929      1.0  0.96383  0.99809  0.35945  1.0000
  C   C576      1.0  0.96048  0.99036  0.38971  1.0000
  N   N57       1.0  0.96404  0.96453  0.38934  1.0000
  C   C577      1.0  0.95909  0.95511  0.42991  1.0000
  C   C578      1.0  0.98405  0.83982  0.59595  1.0000
  H   H930      1.0  0.07710  0.89113  0.49147  1.0000
  H   H931      1.0  0.07169  0.85460  0.45266  1.0000
  H   H932      1.0  0.07717  0.93426  0.43762  1.0000
  H   H933      1.0  0.99179  0.93774  0.37668  1.0000
  H   H934      1.0  0.05735  0.86253  0.56066  1.0000
  Fe  Fe116     1.0  0.99214  0.85531  0.50006  1.0000
  S   S233      1.0  0.97486  0.88713  0.39920  1.0000
  Fe  Fe117     1.0  0.98254  0.84867  0.41184  1.0000
  H   H935      1.0  0.97249  0.99786  0.41154  1.0000
  S   S234      1.0  0.01584  0.85272  0.44579  1.0000
  H   H936      1.0  0.00141  0.96308  0.40026  1.0000
  C   C579      1.0  0.05904  0.85552  0.52960  1.0000
  C   C580      1.0  0.98867  0.95715  0.37795  1.0000
  S   S235      1.0  0.98523  0.89417  0.49568  1.0000
  Fe  Fe118     1.0  0.00606  0.89113  0.43843  1.0000
  H   H937      1.0  0.04597  0.87722  0.38190  1.0000
  S   S236      1.0  0.03120  0.91856  0.42781  1.0000
  C   C581      1.0  0.05898  0.90671  0.41156  1.0000
  H   H938      1.0  0.04621  0.86638  0.51053  1.0000
  C   C582      1.0  0.06143  0.88574  0.39028  1.0000
  H   H939      1.0  0.97105  0.96144  0.45306  1.0000
  C   C583      1.0  0.07902  0.91790  0.42156  1.0000
  N   N58       1.0  0.08333  0.85588  0.51394  1.0000
  C   C584      1.0  0.08398  0.87571  0.37986  1.0000
  H   H940      1.0  0.08585  0.85940  0.36367  1.0000
  C   C585      1.0  0.08481  0.84544  0.47337  1.0000
  H   H941      1.0  0.67722  0.96227  0.59959  1.0000
  Fe  Fe119     1.0  0.66501  0.04948  0.82443  1.0000
  Fe  Fe120     1.0  0.64652  0.01262  0.77266  1.0000
  S   S237      1.0  0.64798  0.98576  0.82248  1.0000
  S   S238      1.0  0.63018  0.00569  0.71287  1.0000
  S   S239      1.0  0.62832  0.04108  0.80992  1.0000
  C   C586      1.0  0.64038  0.02296  0.67352  1.0000
  C   C587      1.0  0.62994  0.02261  0.63541  1.0000
  C   C588      1.0  0.66000  0.03560  0.67894  1.0000
  H   H942      1.0  0.66793  0.03637  0.70818  1.0000
  C   C589      1.0  0.67009  0.04660  0.64600  1.0000
  H   H943      1.0  0.61431  0.01349  0.63117  1.0000
  H   H944      1.0  0.65279  0.06913  0.75419  1.0000
  S   S240      1.0  0.68320  0.02280  0.78366  1.0000
  N   N59       1.0  0.64744  0.94908  0.62975  1.0000
  C   C590      1.0  0.62218  0.95630  0.63637  1.0000
  H   H945      1.0  0.67837  0.93977  0.66540  1.0000
  H   H946      1.0  0.65141  0.93061  0.68649  1.0000
  H   H947      1.0  0.61973  0.97291  0.65339  1.0000
  H   H948      1.0  0.65891  0.98376  0.62629  1.0000
  H   H949      1.0  0.65731  0.96078  0.68816  1.0000
  C   C591      1.0  0.65918  0.94479  0.66916  1.0000
  H   H950      1.0  0.59634  0.99596  0.82645  1.0000
  H   H951      1.0  0.61335  0.94289  0.65386  1.0000
  H   H952      1.0  0.64123  0.91306  0.62089  1.0000
  C   C592      1.0  0.64974  0.92751  0.60560  1.0000
  C   C593      1.0  0.65862  0.96778  0.60779  1.0000
  Fe  Fe121     1.0  0.68273  0.99908  0.83759  1.0000
  H   H953      1.0  0.66855  0.92145  0.60008  1.0000
  H   H954      1.0  0.68577  0.05552  0.65040  1.0000
  H   H955      1.0  0.96555  0.00537  0.86326  1.0000
  H   H956      1.0  0.61265  0.95913  0.60729  1.0000
  C   C594      1.0  0.66067  0.04479  0.60739  1.0000
  C   C595      1.0  0.64024  0.03332  0.60232  1.0000
  C   C596      1.0  0.65359  0.08776  0.75096  1.0000
  S   S241      1.0  0.67532  0.08617  0.82477  1.0000
  C   C597      1.0  0.78819  0.06006  0.80539  1.0000
  H   H957      1.0  0.77898  0.07717  0.79597  1.0000
  N   N60       1.0  0.81102  0.06328  0.82471  1.0000
  C   C598      1.0  0.82622  0.07502  0.79602  1.0000
  H   H958      1.0  0.79063  0.04907  0.77801  1.0000
  C   C599      1.0  0.82270  0.04024  0.83657  1.0000
  H   H959      1.0  0.82652  0.02885  0.81001  1.0000
  H   H960      1.0  0.77629  0.05126  0.82634  1.0000
  H   H961      1.0  0.70968  0.07811  0.61335  1.0000
  H   H962      1.0  0.82991  0.06448  0.76841  1.0000
  H   H963      1.0  0.91208  0.07731  0.75495  1.0000
  H   H964      1.0  0.84355  0.07785  0.80969  1.0000
  S   S242      1.0  0.93129  0.84906  0.69966  1.0000
  H   H965      1.0  0.90886  0.03609  0.77565  1.0000
  C   C600      1.0  0.90456  0.07334  0.78401  1.0000
  C   C601      1.0  0.90271  0.05006  0.79573  1.0000
  C   C602      1.0  0.95148  0.84510  0.65972  1.0000
  S   S243      1.0  0.92782  0.84751  0.81663  1.0000
  Fe  Fe122     1.0  0.95944  0.86466  0.83685  1.0000
  H   H966      1.0  0.91080  0.89351  0.84091  1.0000
  C   C603      1.0  0.94640  0.85597  0.62234  1.0000
  H   H967      1.0  0.91966  0.97154  0.81999  1.0000
  C   C604      1.0  0.89264  0.04487  0.83296  1.0000
  S   S244      1.0  0.88974  0.01555  0.84571  1.0000
  C   C605      1.0  0.92704  0.96411  0.84889  1.0000
  H   H968      1.0  0.94139  0.00579  0.82843  1.0000
  H   H969      1.0  0.92992  0.86656  0.61814  1.0000
  H   H970      1.0  0.96155  0.97032  0.79565  1.0000
  H   H971      1.0  0.92817  0.94477  0.84652  1.0000
  C   C606      1.0  0.88646  0.08635  0.84696  1.0000
  Fe  Fe123     1.0  0.94828  0.84062  0.75945  1.0000
  H   H972      1.0  0.96918  0.94442  0.82545  1.0000
  S   S245      1.0  0.97847  0.86067  0.77772  1.0000
  C   C607      1.0  0.96733  0.96393  0.82616  1.0000
  H   H973      1.0  0.98514  0.96979  0.83175  1.0000
  C   C608      1.0  0.03852  0.88029  0.72265  1.0000
  H   H974      1.0  0.02131  0.85859  0.83303  1.0000
  C   C609      1.0  0.03965  0.85685  0.82404  1.0000
  H   H975      1.0  0.02239  0.89285  0.64904  1.0000
  N   N61       1.0  0.04022  0.86581  0.68603  1.0000
  C   C610      1.0  0.02133  0.87419  0.65759  1.0000
  H   H976      1.0  0.00351  0.87256  0.67093  1.0000
  H   H977      1.0  0.02232  0.86389  0.62928  1.0000
  C   C611      1.0  0.06350  0.86753  0.66681  1.0000
  C   C612      1.0  0.07751  0.87326  0.81905  1.0000
  C   C613      1.0  0.05375  0.87531  0.83061  1.0000
  H   H978      1.0  0.07810  0.86143  0.68775  1.0000
  H   H979      1.0  0.03968  0.89912  0.71539  1.0000
  H   H980      1.0  0.02165  0.87861  0.73906  1.0000
  H   H981      1.0  0.05304  0.87496  0.74400  1.0000
  H   H982      1.0  0.04626  0.89118  0.84469  1.0000
  H   H983      1.0  0.06612  0.88589  0.65792  1.0000
  H   H984      1.0  0.06551  0.85662  0.63930  1.0000
  C   C614      1.0  0.03757  0.84116  0.69716  1.0000
  H   H985      1.0  0.02032  0.83915  0.71230  1.0000
  Fe  Fe124     1.0  0.63296  0.01524  0.86080  1.0000
  S   S246      1.0  0.66769  0.02678  0.87964  1.0000
  S   S247      1.0  0.60527  0.01056  0.90750  1.0000
  N   N62       1.0  0.67228  0.97204  0.96492  1.0000
  C   C615      1.0  0.65347  0.99014  0.97650  1.0000
  C   C616      1.0  0.66678  0.96261  0.92511  1.0000
  H   H986      1.0  0.65194  0.00489  0.95432  1.0000
  H   H987      1.0  0.69472  0.99696  0.94013  1.0000
  H   H988      1.0  0.67782  0.95940  0.02572  1.0000
  H   H989      1.0  0.65684  0.99759  0.00654  1.0000
  C   C617      1.0  0.69515  0.98243  0.96269  1.0000
  C   C618      1.0  0.67369  0.95292  0.99526  1.0000
  H   H990      1.0  0.68769  0.93896  0.98729  1.0000
  H   H991      1.0  0.63587  0.98303  0.97760  1.0000
  H   H992      1.0  0.65672  0.94468  0.99757  1.0000
  H   H993      1.0  0.64945  0.95499  0.92521  1.0000
  H   H994      1.0  0.66594  0.97655  0.90162  1.0000
  H   H995      1.0  0.68058  0.94892  0.91518  1.0000
  H   H996      1.0  0.70010  0.98958  0.99221  1.0000
  H   H997      1.0  0.59221  0.07797  0.87284  1.0000
  S   S248      1.0  0.71340  0.97498  0.85845  1.0000
  H   H998      1.0  0.70965  0.96935  0.95310  1.0000
  C   C619      1.0  0.80688  0.07779  0.86099  1.0000
  H   H999      1.0  0.81152  0.03084  0.85786  1.0000
  H   H1000     1.0  0.71697  0.02468  0.86461  1.0000
  H   H1001     1.0  0.75779  0.96072  0.89634  1.0000
  C   C620      1.0  0.73517  0.99116  0.87891  1.0000
  C   C621      1.0  0.75527  0.97962  0.89663  1.0000
  C   C622      1.0  0.73208  0.01560  0.87911  1.0000
  S   S249      1.0  0.78901  0.03327  0.93978  1.0000
  C   C623      1.0  0.74862  0.02844  0.89812  1.0000
  C   C624      1.0  0.76860  0.01689  0.91611  1.0000
  C   C625      1.0  0.77209  0.99249  0.91496  1.0000
  H   H1002     1.0  0.74597  0.04731  0.89873  1.0000
  H   H1003     1.0  0.78752  0.98350  0.92884  1.0000
  Fe  Fe125     1.0  0.82412  0.01283  0.94697  1.0000
  H   H1004     1.0  0.79524  0.06958  0.88303  1.0000
  H   H1005     1.0  0.82371  0.08018  0.87683  1.0000
  H   H1006     1.0  0.84314  0.85365  0.93725  1.0000
  N   N63       1.0  0.95031  0.97251  0.85755  1.0000
  H   H1007     1.0  0.83980  0.04204  0.85188  1.0000
  H   H1008     1.0  0.83525  0.07753  0.07423  1.0000
  C   C626      1.0  0.85071  0.08586  0.06180  1.0000
  C   C627      1.0  0.88479  0.06300  0.85884  1.0000
  H   H1009     1.0  0.94208  0.91895  0.94767  1.0000
  H   H1010     1.0  0.90233  0.93145  0.97445  1.0000
  S   S250      1.0  0.88912  0.01748  0.04952  1.0000
  C   C628      1.0  0.92908  0.90493  0.89289  1.0000
  C   C629      1.0  0.92661  0.91595  0.93029  1.0000
  H   H1011     1.0  0.90619  0.86485  0.92708  1.0000
  S   S251      1.0  0.85530  0.03406  0.94880  1.0000
  S   S252      1.0  0.85603  0.92768  0.94247  1.0000
  C   C630      1.0  0.87137  0.02614  0.09073  1.0000
  H   H1012     1.0  0.86290  0.85906  0.97768  1.0000
  C   C631      1.0  0.84679  0.02759  0.08799  1.0000
  H   H1013     1.0  0.94555  0.96862  0.92162  1.0000
  S   S253      1.0  0.83632  0.98828  0.99748  1.0000
  S   S254      1.0  0.83869  0.98927  0.89795  1.0000
  C   C632      1.0  0.94827  0.99836  0.85770  1.0000
  C   C633      1.0  0.95861  0.96359  0.89747  1.0000
  H   H1014     1.0  0.83845  0.02409  0.05974  1.0000
  C   C634      1.0  0.88650  0.90799  0.88589  1.0000
  H   H1015     1.0  0.96155  0.94420  0.89778  1.0000
  H   H1016     1.0  0.87751  0.05915  0.88796  1.0000
  S   S255      1.0  0.88781  0.98397  0.94992  1.0000
  Fe  Fe126     1.0  0.85413  0.96667  0.94825  1.0000
  H   H1017     1.0  0.86558  0.07204  0.05901  1.0000
  Fe  Fe127     1.0  0.87095  0.00850  0.90357  1.0000
  C   C635      1.0  0.90415  0.92299  0.94547  1.0000
  Fe  Fe128     1.0  0.86898  0.00762  0.99511  1.0000
  H   H1018     1.0  0.86312  0.87587  0.93195  1.0000
  H   H1019     1.0  0.87100  0.90534  0.86832  1.0000
  H   H1020     1.0  0.93582  0.00529  0.88158  1.0000
  H   H1021     1.0  0.88031  0.85797  0.86929  1.0000
  C   C636      1.0  0.90900  0.90109  0.87055  1.0000
  C   C637      1.0  0.86132  0.85802  0.94432  1.0000
  S   S256      1.0  0.95736  0.89746  0.87344  1.0000
  C   C638      1.0  0.88409  0.91893  0.92338  1.0000
  H   H1022     1.0  0.91395  0.96922  0.87290  1.0000
  C   C639      1.0  0.90308  0.84702  0.93812  1.0000
  H   H1023     1.0  0.90568  0.84670  0.97135  1.0000
  C   C640      1.0  0.87704  0.84069  0.88277  1.0000
  N   N64       1.0  0.87929  0.84075  0.92719  1.0000
  H   H1024     1.0  0.97563  0.97042  0.90573  1.0000
