data_image0
_chemical_formula_structural       S2HC2H2C2SC2H2CH4SFeCH3CH5CNSHCHCNH2C2HCH2CHCHC3FeNFeSHCH2CSCH3CHC2H6CHC4HSHFeSHSH3C2SH3C5HCHCH2CH2CNSHFeCSHCFeS2FeSFeHFeS3CH2CSCH2C2HC3H4CHCHFeSH3CH2FeHNHCHCFeH3NHCSNHSH2CFeH2CHCH3C3HC2HSC2HC2SHSFeCH4FeH4FeSHFeSHFeHFeHSCSHSCHCHC3H2NCHC5H5C2HCHCHCH7CNC2H2CFeH7SHC2H3CHSC2SHCFeCSHCH2S2HFeH4CH3CHC4SH2NCHSCH4SH2CFe2SHSNH3C3NH4CH2SCH3CH3CH3SH2FeH2CHC3SH2CNSFeHC2FeH2CH6C6HCHSCHC3H2SH4CSHCHNH2C3H5C2H2C4HSFeH8SNC2HCH3C2FeH2SHCHCS3CSCH3C4H7C2NCHNH3C3H4CH3FeHCH2SH4FeHFeHSHFeS2HFeS2FeSHFe2S2CHC6H3FeH2NC4HC2SCH9CSHSHCFeHC3H2C2HNHC2HCH2CSCSCFeCH3SC2FeNH2CH2CH2C2H4CH2CH3SHFeSFeS2Fe2S5H4CH2C4H2C2HCSCNC2NHFeCH3CHCHC3H3C2H2CH3S2CHCH2SHCH2SH4CFeSCH2CH5C3H3SCH3CH2NH2CH8CFeH3S2H2C4H4CSNHSCHCHSH4C3SFeSC2H4C2HC2HFe2SFeS2HSHFeSHCSHNHFeS2HFeHSHFeSFeHC2NH3SCHFeC6H4C2H2S2CHCHSH2FeH4SH2CH2C2HCNCH7SC2HCH3CH3FeH4CHCH3SHCH3CHSCH7SNHCH3CH2CHCH2C3H3C2SH2CNH3C4H2CSCSCSH3CH3CH5FeNCH4CH3FeSC3SH7SCNCHC3HCHCHSCH4CH3CHCHC2SH2CHNH4SH2CSCH2SCH4FeCHFeCSH3CHCHCH3NCH2SFeCSFeCFeSHSHCFe2C5HFeH2CH3C2HC3SFeSHCSHCHSHCH2SH2CHSC3H2CH3CNC4S3CSHCHCH2CH3FeCHC2H2SHSCHC2HS2CFeCNHC2H2C2SCHCFeH2FeS2FeSFeS3CFeHCH6C3HCHC2HCH2FeHCHNHC3H2CSH2CSCH4CHSHSH3FeH5CH4NC3HCH2CSH2NSHFeHCH3CH5SCHCHC3H4C3SH2CFeHSHC2SCSH2CH2NC2HCH5CH2C2NCH2C2H4CHSH4CSH2C2H2FeHSH2CH3SCHC3S2H2CSFeCH2CFeH3N2FeS2C2HSHCH6CHC2HCS2FeCH4FeC2H5C2H5SFeC2HNFeS3FeCSHCFeHNS2HSCHCH3CFeS2FeCH2SH3CFeCSCH5C2H2NH2C4H4CHC2H2CHCSH2SH2NHC4H3C2H2C2HC3SHNSHCH2FeH4NH2C2HCHSH3SH
_chemical_formula_sum              "S192 H768 C480 Fe96 N48"
_cell_length_a       40.8808
_cell_length_b       41.1152
_cell_length_c       54.0621
_cell_angle_alpha    88.0965
_cell_angle_beta     88.385
_cell_angle_gamma    84.0795

_space_group_name_H-M_alt    "P 1"
_space_group_IT_number       1

loop_
  _space_group_symop_operation_xyz
  'x, y, z'

loop_
  _atom_site_type_symbol
  _atom_site_label
  _atom_site_symmetry_multiplicity
  _atom_site_fract_x
  _atom_site_fract_y
  _atom_site_fract_z
  _atom_site_occupancy
  S   S1        1.0  0.30758  0.11349  0.12088  1.0000
  S   S2        1.0  0.33623  0.10332  0.18748  1.0000
  H   H1        1.0  0.48089  0.16554  0.11670  1.0000
  C   C1        1.0  0.25259  0.08065  0.06795  1.0000
  C   C2        1.0  0.09431  0.13807  0.05145  1.0000
  H   H2        1.0  0.46935  0.07734  0.21701  1.0000
  H   H3        1.0  0.10652  0.11361  0.05141  1.0000
  C   C3        1.0  0.44835  0.05911  0.26260  1.0000
  C   C4        1.0  0.29446  0.08986  0.09732  1.0000
  S   S3        1.0  0.39524  0.04483  0.20067  1.0000
  C   C5        1.0  0.06117  0.20100  0.05103  1.0000
  C   C6        1.0  0.22476  0.08232  0.14308  1.0000
  H   H4        1.0  0.44354  0.03993  0.27686  1.0000
  H   H5        1.0  0.22994  0.08892  0.05877  1.0000
  C   C7        1.0  0.26532  0.10057  0.08513  1.0000
  H   H6        1.0  0.25224  0.12406  0.08931  1.0000
  H   H7        1.0  0.44443  0.08315  0.27165  1.0000
  H   H8        1.0  0.46109  0.16588  0.17098  1.0000
  H   H9        1.0  0.48341  0.12201  0.11318  1.0000
  S   S4        1.0  0.16086  0.06801  0.04905  1.0000
  Fe  Fe1       1.0  0.34175  0.08674  0.14832  1.0000
  C   C8        1.0  0.43297  0.15109  0.25107  1.0000
  H   H10       1.0  0.43681  0.04382  0.11270  1.0000
  H   H11       1.0  0.49840  0.08435  0.14936  1.0000
  H   H12       1.0  0.36973  0.10914  0.23486  1.0000
  C   C9        1.0  0.37859  0.12327  0.27187  1.0000
  H   H13       1.0  0.23319  0.06390  0.19119  1.0000
  H   H14       1.0  0.46385  0.10459  0.16571  1.0000
  H   H15       1.0  0.53169  0.05261  0.26399  1.0000
  H   H16       1.0  0.48610  0.06793  0.09530  1.0000
  H   H17       1.0  0.04837  0.22537  0.05071  1.0000
  C   C10       1.0  0.48780  0.16380  0.16601  1.0000
  N   N1        1.0  0.23395  0.04893  0.15331  1.0000
  S   S5        1.0  0.07207  0.43634  0.25774  1.0000
  H   H18       1.0  0.50380  0.10161  0.17895  1.0000
  C   C11       1.0  0.48698  0.07835  0.23219  1.0000
  H   H19       1.0  0.48364  0.10349  0.23942  1.0000
  C   C12       1.0  0.41267  0.13530  0.23597  1.0000
  N   N2        1.0  0.49683  0.13680  0.14892  1.0000
  H   H20       1.0  0.45017  0.14231  0.13106  1.0000
  H   H21       1.0  0.49335  0.18776  0.15767  1.0000
  C   C13       1.0  0.47696  0.14195  0.12644  1.0000
  C   C14       1.0  0.49046  0.10542  0.16128  1.0000
  H   H22       1.0  0.05983  0.23569  0.14338  1.0000
  C   C15       1.0  0.05028  0.17663  0.06696  1.0000
  H   H23       1.0  0.42952  0.05923  0.24812  1.0000
  H   H24       1.0  0.05754  0.09354  0.03205  1.0000
  C   C16       1.0  0.53214  0.13592  0.14200  1.0000
  H   H25       1.0  0.27220  0.06444  0.17537  1.0000
  C   C17       1.0  0.31148  0.05963  0.09170  1.0000
  H   H26       1.0  0.18610  0.04458  0.16980  1.0000
  C   C18       1.0  0.06734  0.14538  0.06762  1.0000
  C   C19       1.0  0.42655  0.15222  0.27667  1.0000
  C   C20       1.0  0.29883  0.03978  0.07442  1.0000
  Fe  Fe2       1.0  0.34053  0.04996  0.19763  1.0000
  N   N3        1.0  0.48203  0.05348  0.25190  1.0000
  Fe  Fe3       1.0  0.39127  0.09708  0.18716  1.0000
  S   S6        1.0  0.39682  0.08550  0.14694  1.0000
  H   H27       1.0  0.53795  0.15919  0.13263  1.0000
  C   C21       1.0  0.38552  0.12133  0.24640  1.0000
  H   H28       1.0  0.45391  0.16206  0.24304  1.0000
  H   H29       1.0  0.33414  0.05136  0.10089  1.0000
  C   C22       1.0  0.26923  0.05012  0.06272  1.0000
  S   S7        1.0  0.42261  0.13133  0.20442  1.0000
  C   C23       1.0  0.08852  0.19379  0.03521  1.0000
  H   H30       1.0  0.51227  0.07477  0.22390  1.0000
  H   H31       1.0  0.50143  0.15988  0.18362  1.0000
  H   H32       1.0  0.05892  0.12641  0.07984  1.0000
  C   C24       1.0  0.48898  0.04620  0.10717  1.0000
  H   H33       1.0  0.51970  0.15628  0.24624  1.0000
  C   C25       1.0  0.50600  0.05580  0.27154  1.0000
  C   C26       1.0  0.06012  0.52719  0.25996  1.0000
  H   H34       1.0  0.21381  0.08181  0.12447  1.0000
  H   H35       1.0  0.07614  0.50419  0.26384  1.0000
  H   H36       1.0  0.24662  0.09631  0.14082  1.0000
  H   H37       1.0  0.20676  0.09652  0.15542  1.0000
  H   H38       1.0  0.04760  0.18147  0.16095  1.0000
  H   H39       1.0  0.27996  0.04300  0.13338  1.0000
  C   C27       1.0  0.24995  0.05093  0.17734  1.0000
  H   H40       1.0  0.53985  0.11574  0.12920  1.0000
  C   C28       1.0  0.53710  0.13911  0.25593  1.0000
  C   C29       1.0  0.10469  0.16211  0.03498  1.0000
  C   C30       1.0  0.39079  0.41285  0.49802  1.0000
  C   C31       1.0  0.53617  0.24753  0.34098  1.0000
  H   H41       1.0  0.25127  0.50031  0.36824  1.0000
  S   S8        1.0  0.18490  0.51336  0.43387  1.0000
  H   H42       1.0  0.24357  0.50237  0.46104  1.0000
  Fe  Fe4       1.0  0.08717  0.50332  0.38340  1.0000
  S   S9        1.0  0.33928  0.45438  0.51522  1.0000
  H   H43       1.0  0.44242  0.16421  0.28825  1.0000
  S   S10       1.0  0.08996  0.51412  0.42355  1.0000
  H   H44       1.0  0.50451  0.51805  0.48669  1.0000
  H   H45       1.0  0.11294  0.47373  0.33529  1.0000
  H   H46       1.0  0.53897  0.25534  0.32121  1.0000
  C   C32       1.0  0.23561  0.51748  0.38015  1.0000
  C   C33       1.0  0.53595  0.13690  0.28187  1.0000
  S   S11       1.0  0.13830  0.51521  0.37420  1.0000
  H   H47       1.0  0.33810  0.09822  0.32221  1.0000
  H   H48       1.0  0.53354  0.19831  0.46086  1.0000
  H   H49       1.0  0.44519  0.48235  0.48060  1.0000
  C   C34       1.0  0.09684  0.45524  0.30118  1.0000
  C   C35       1.0  0.09438  0.46135  0.32667  1.0000
  C   C36       1.0  0.44347  0.04635  0.41232  1.0000
  C   C37       1.0  0.51952  0.50619  0.50199  1.0000
  C   C38       1.0  0.07233  0.43984  0.28993  1.0000
  H   H50       1.0  0.51773  0.15237  0.29205  1.0000
  C   C39       1.0  0.33596  0.08153  0.33868  1.0000
  H   H51       1.0  0.21124  0.50780  0.38261  1.0000
  C   C40       1.0  0.51018  0.27804  0.44558  1.0000
  H   H52       1.0  0.52121  0.47925  0.49940  1.0000
  H   H53       1.0  0.39942  0.06737  0.34802  1.0000
  C   C41       1.0  0.52455  0.25087  0.45902  1.0000
  H   H54       1.0  0.38824  0.49567  0.49631  1.0000
  H   H55       1.0  0.51438  0.23341  0.34251  1.0000
  C   C42       1.0  0.39773  0.47050  0.49438  1.0000
  N   N4        1.0  0.50489  0.51505  0.52648  1.0000
  S   S12       1.0  0.06275  0.45977  0.37238  1.0000
  H   H56       1.0  0.37552  0.39335  0.50240  1.0000
  Fe  Fe5       1.0  0.53370  0.30531  0.50266  1.0000
  C   C43       1.0  0.39065  0.05450  0.33202  1.0000
  S   S13       1.0  0.48569  0.42158  0.47836  1.0000
  H   H57       1.0  0.52996  0.26983  0.35204  1.0000
  C   C44       1.0  0.06793  0.45114  0.34090  1.0000
  Fe  Fe6       1.0  0.47297  0.18587  0.37392  1.0000
  S   S14       1.0  0.42946  0.15769  0.38155  1.0000
  S   S15       1.0  0.47467  0.23753  0.38600  1.0000
  Fe  Fe7       1.0  0.50950  0.13203  0.34394  1.0000
  S   S16       1.0  0.46917  0.09948  0.34864  1.0000
  Fe  Fe8       1.0  0.43534  0.14486  0.34157  1.0000
  H   H58       1.0  0.50446  0.19065  0.42225  1.0000
  Fe  Fe9       1.0  0.46712  0.11491  0.38799  1.0000
  S   S17       1.0  0.46384  0.07970  0.42024  1.0000
  S   S18       1.0  0.47601  0.17658  0.33310  1.0000
  S   S19       1.0  0.51029  0.14400  0.38390  1.0000
  C   C45       1.0  0.43016  0.46296  0.48575  1.0000
  H   H59       1.0  0.39523  0.06964  0.31509  1.0000
  H   H60       1.0  0.43370  0.38007  0.48909  1.0000
  C   C46       1.0  0.42376  0.40529  0.49058  1.0000
  S   S20       1.0  0.39126  0.13859  0.31908  1.0000
  C   C47       1.0  0.39926  0.13843  0.28707  1.0000
  H   H61       1.0  0.45521  0.51825  0.51401  1.0000
  H   H62       1.0  0.35731  0.11279  0.27975  1.0000
  C   C48       1.0  0.52264  0.21938  0.45041  1.0000
  C   C49       1.0  0.50631  0.21502  0.42847  1.0000
  H   H63       1.0  0.51160  0.30243  0.45213  1.0000
  C   C50       1.0  0.04439  0.43461  0.32970  1.0000
  C   C51       1.0  0.49251  0.24220  0.41473  1.0000
  C   C52       1.0  0.49444  0.27370  0.42334  1.0000
  H   H64       1.0  0.09388  0.52497  0.30220  1.0000
  H   H65       1.0  0.47095  0.47856  0.52596  1.0000
  H   H66       1.0  0.48374  0.29481  0.41282  1.0000
  H   H67       1.0  0.34734  0.05017  0.29592  1.0000
  C   C53       1.0  0.37805  0.44547  0.50080  1.0000
  H   H68       1.0  0.11720  0.46312  0.29011  1.0000
  C   C54       1.0  0.44358  0.43037  0.48478  1.0000
  H   H69       1.0  0.54052  0.20543  0.38016  1.0000
  Fe  Fe10      1.0  0.50516  0.37614  0.49944  1.0000
  S   S21       1.0  0.48192  0.32915  0.50514  1.0000
  H   H70       1.0  0.34461  0.09429  0.35477  1.0000
  H   H71       1.0  0.52258  0.06251  0.37176  1.0000
  H   H72       1.0  0.24657  0.51645  0.39886  1.0000
  C   C55       1.0  0.23499  0.52813  0.46195  1.0000
  H   H73       1.0  0.46767  0.04147  0.37670  1.0000
  H   H74       1.0  0.30938  0.07875  0.34188  1.0000
  Fe  Fe11      1.0  0.13905  0.53117  0.41347  1.0000
  H   H75       1.0  0.23030  0.53521  0.33199  1.0000
  N   N5        1.0  0.35543  0.04960  0.33512  1.0000
  H   H76       1.0  0.41581  0.04476  0.44675  1.0000
  C   C56       1.0  0.04632  0.42938  0.30432  1.0000
  H   H77       1.0  0.53943  0.04992  0.40106  1.0000
  C   C57       1.0  0.47110  0.50532  0.52842  1.0000
  Fe  Fe12      1.0  0.33136  0.50643  0.52710  1.0000
  H   H78       1.0  0.50246  0.08009  0.28025  1.0000
  H   H79       1.0  0.35998  0.03807  0.37408  1.0000
  H   H80       1.0  0.49667  0.20977  0.52811  1.0000
  N   N6        1.0  0.50612  0.21480  0.56680  1.0000
  H   H81       1.0  0.44765  0.07794  0.72895  1.0000
  C   C58       1.0  0.22575  0.44529  0.70818  1.0000
  S   S22       1.0  0.13762  0.47712  0.74005  1.0000
  N   N7        1.0  0.21808  0.47053  0.68850  1.0000
  H   H82       1.0  0.34547  0.15351  0.72919  1.0000
  S   S23       1.0  0.09786  0.48277  0.67523  1.0000
  H   H83       1.0  0.45918  0.51173  0.54661  1.0000
  H   H84       1.0  0.17921  0.48448  0.66313  1.0000
  C   C59       1.0  0.47118  0.22344  0.57386  1.0000
  Fe  Fe13      1.0  0.11399  0.50714  0.70854  1.0000
  H   H85       1.0  0.16636  0.46539  0.69151  1.0000
  H   H86       1.0  0.26021  0.49914  0.58735  1.0000
  C   C60       1.0  0.24452  0.46844  0.66922  1.0000
  H   H87       1.0  0.18805  0.44122  0.66811  1.0000
  C   C61       1.0  0.17160  0.52104  0.54684  1.0000
  H   H88       1.0  0.22762  0.42023  0.70074  1.0000
  H   H89       1.0  0.52375  0.22711  0.60216  1.0000
  H   H90       1.0  0.20616  0.44653  0.72303  1.0000
  C   C62       1.0  0.07662  0.45613  0.74128  1.0000
  C   C63       1.0  0.36353  0.15845  0.74245  1.0000
  C   C64       1.0  0.52494  0.49787  0.54619  1.0000
  H   H91       1.0  0.19506  0.50592  0.71365  1.0000
  C   C65       1.0  0.18659  0.46515  0.67731  1.0000
  C   C66       1.0  0.21046  0.50330  0.60211  1.0000
  H   H92       1.0  0.20327  0.48353  0.59143  1.0000
  S   S24       1.0  0.51055  0.38362  0.53989  1.0000
  C   C67       1.0  0.21527  0.50328  0.69934  1.0000
  C   C68       1.0  0.10673  0.45468  0.75297  1.0000
  H   H93       1.0  0.24941  0.44842  0.71705  1.0000
  C   C69       1.0  0.18754  0.52012  0.61805  1.0000
  C   C70       1.0  0.52707  0.23299  0.58204  1.0000
  S   S25       1.0  0.14673  0.51057  0.61885  1.0000
  H   H94       1.0  0.37595  0.39761  0.54740  1.0000
  S   S26       1.0  0.35835  0.51952  0.56021  1.0000
  Fe  Fe14      1.0  0.05150  0.51639  0.67913  1.0000
  C   C71       1.0  0.43363  0.40130  0.59101  1.0000
  H   H95       1.0  0.26861  0.47283  0.67689  1.0000
  H   H96       1.0  0.42584  0.38072  0.60294  1.0000
  H   H97       1.0  0.23839  0.50799  0.70833  1.0000
  H   H98       1.0  0.41418  0.10133  0.71378  1.0000
  Fe  Fe15      1.0  0.49224  0.33444  0.54513  1.0000
  H   H99       1.0  0.44124  0.42016  0.60331  1.0000
  H   H100      1.0  0.45583  0.39136  0.58023  1.0000
  H   H101      1.0  0.46641  0.21801  0.59389  1.0000
  H   H102      1.0  0.50423  0.25005  0.53635  1.0000
  Fe  Fe16      1.0  0.51393  0.21687  0.68206  1.0000
  S   S27       1.0  0.48714  0.17930  0.66395  1.0000
  H   H103      1.0  0.15764  0.51370  0.56377  1.0000
  Fe  Fe17      1.0  0.51528  0.18212  0.73203  1.0000
  S   S28       1.0  0.48928  0.14084  0.71907  1.0000
  H   H104      1.0  0.24743  0.44404  0.66065  1.0000
  Fe  Fe18      1.0  0.52146  0.14321  0.68509  1.0000
  H   H105      1.0  0.20997  0.52297  0.68493  1.0000
  Fe  Fe19      1.0  0.45675  0.17995  0.69933  1.0000
  H   H106      1.0  0.39710  0.04935  0.69725  1.0000
  S   S29       1.0  0.48002  0.22146  0.71525  1.0000
  C   C72       1.0  0.37845  0.42873  0.58930  1.0000
  S   S30       1.0  0.45506  0.32169  0.57428  1.0000
  H   H107      1.0  0.35820  0.08934  0.72124  1.0000
  S   S31       1.0  0.40278  0.17427  0.70253  1.0000
  C   C73       1.0  0.41607  0.17686  0.75140  1.0000
  H   H108      1.0  0.43875  0.18608  0.74535  1.0000
  C   C74       1.0  0.51140  0.22355  0.54033  1.0000
  H   H109      1.0  0.23913  0.48704  0.65404  1.0000
  C   C75       1.0  0.39300  0.17029  0.73420  1.0000
  C   C76       1.0  0.48222  0.08218  0.66654  1.0000
  C   C77       1.0  0.51557  0.07034  0.66580  1.0000
  H   H110      1.0  0.47494  0.10802  0.66841  1.0000
  H   H111      1.0  0.43240  0.06989  0.66484  1.0000
  N   N8        1.0  0.40713  0.41486  0.57442  1.0000
  C   C78       1.0  0.36551  0.07322  0.73752  1.0000
  H   H112      1.0  0.54105  0.17205  0.56581  1.0000
  C   C79       1.0  0.51144  0.27976  0.64133  1.0000
  C   C80       1.0  0.47963  0.27150  0.63759  1.0000
  C   C81       1.0  0.46152  0.28585  0.61767  1.0000
  C   C82       1.0  0.47552  0.30784  0.60123  1.0000
  C   C83       1.0  0.50696  0.31672  0.60537  1.0000
  H   H113      1.0  0.35798  0.43894  0.57718  1.0000
  H   H114      1.0  0.46905  0.25397  0.64997  1.0000
  H   H115      1.0  0.43712  0.27906  0.61454  1.0000
  H   H116      1.0  0.41762  0.37861  0.54665  1.0000
  H   H117      1.0  0.42868  0.46020  0.56904  1.0000
  C   C84       1.0  0.24263  0.51212  0.59977  1.0000
  C   C85       1.0  0.51482  0.17930  0.57101  1.0000
  H   H118      1.0  0.51117  0.17194  0.59085  1.0000
  C   C86       1.0  0.45812  0.06056  0.66461  1.0000
  H   H119      1.0  0.39919  0.45301  0.54660  1.0000
  C   C87       1.0  0.41922  0.44086  0.55815  1.0000
  H   H120      1.0  0.43926  0.43081  0.54529  1.0000
  C   C88       1.0  0.42118  0.08706  0.73106  1.0000
  H   H121      1.0  0.38488  0.44896  0.60084  1.0000
  H   H122      1.0  0.36878  0.40974  0.60184  1.0000
  H   H123      1.0  0.51781  0.33391  0.59284  1.0000
  H   H124      1.0  0.52776  0.47088  0.54387  1.0000
  H   H125      1.0  0.38963  0.36763  0.57079  1.0000
  H   H126      1.0  0.07296  0.46929  0.72388  1.0000
  H   H127      1.0  0.41861  0.10448  0.74649  1.0000
  C   C89       1.0  0.52485  0.30278  0.62548  1.0000
  N   N9        1.0  0.40048  0.05995  0.73569  1.0000
  C   C90       1.0  0.39712  0.38858  0.55915  1.0000
  C   C91       1.0  0.35783  0.15223  0.76790  1.0000
  H   H128      1.0  0.36022  0.08768  0.75444  1.0000
  H   H129      1.0  0.51386  0.50288  0.56488  1.0000
  C   C92       1.0  0.05082  0.44048  0.75195  1.0000
  Fe  Fe20      1.0  0.11748  0.52425  0.65359  1.0000
  H   H130      1.0  0.53771  0.21848  0.53441  1.0000
  H   H131      1.0  0.49947  0.16475  0.55982  1.0000
  H   H132      1.0  0.46373  0.25001  0.57042  1.0000
  H   H133      1.0  0.45464  0.20980  0.56301  1.0000
  H   H134      1.0  0.52096  0.25979  0.57940  1.0000
  H   H135      1.0  0.16218  0.50862  0.53090  1.0000
  H   H136      1.0  0.34899  0.05336  0.73849  1.0000
  S   S32       1.0  0.28241  0.53055  0.54012  1.0000
  H   H137      1.0  0.19782  0.51124  0.54905  1.0000
  C   C93       1.0  0.11107  0.43696  0.77545  1.0000
  C   C94       1.0  0.05464  0.42332  0.77453  1.0000
  H   H138      1.0  0.53065  0.06958  0.71861  1.0000
  H   H139      1.0  0.54103  0.26942  0.74821  1.0000
  H   H140      1.0  0.33525  0.14278  0.77425  1.0000
  C   C95       1.0  0.41014  0.17132  0.77664  1.0000
  H   H141      1.0  0.40777  0.05909  0.77490  1.0000
  S   S33       1.0  0.52973  0.18581  0.77148  1.0000
  C   C96       1.0  0.41007  0.04231  0.75906  1.0000
  C   C97       1.0  0.52477  0.03695  0.66311  1.0000
  S   S34       1.0  0.53534  0.26060  0.66504  1.0000
  H   H142      1.0  0.53778  0.08344  0.74906  1.0000
  C   C98       1.0  0.40515  0.03716  0.71505  1.0000
  Fe  Fe21      1.0  0.27742  0.09317  0.84933  1.0000
  C   C99       1.0  0.11266  0.21988  0.96901  1.0000
  S   S35       1.0  0.23377  0.11678  0.87061  1.0000
  H   H143      1.0  0.27343  0.09840  0.92096  1.0000
  C   C100      1.0  0.07851  0.26035  0.94530  1.0000
  H   H144      1.0  0.07755  0.46708  0.83073  1.0000
  H   H145      1.0  0.27749  0.10129  0.95389  1.0000
  S   S36       1.0  0.29150  0.10760  0.81028  1.0000
  S   S37       1.0  0.50548  0.08605  0.87702  1.0000
  H   H146      1.0  0.14387  0.25925  0.93779  1.0000
  Fe  Fe22      1.0  0.34148  0.11149  0.82520  1.0000
  H   H147      1.0  0.06181  0.50278  0.79548  1.0000
  H   H148      1.0  0.51060  0.19872  0.83648  1.0000
  H   H149      1.0  0.09683  0.21264  0.02296  1.0000
  H   H150      1.0  0.13457  0.43528  0.78434  1.0000
  C   C101      1.0  0.09147  0.27082  0.98740  1.0000
  H   H151      1.0  0.08700  0.24896  0.92754  1.0000
  H   H152      1.0  0.05564  0.24964  0.95155  1.0000
  H   H153      1.0  0.15347  0.26710  0.96914  1.0000
  C   C102      1.0  0.47131  0.15184  0.82795  1.0000
  H   H154      1.0  0.12002  0.46658  0.82098  1.0000
  C   C103      1.0  0.19530  0.10142  0.91039  1.0000
  C   C104      1.0  0.21283  0.08973  0.88933  1.0000
  C   C105      1.0  0.18087  0.07968  0.92685  1.0000
  C   C106      1.0  0.13369  0.27036  0.95526  1.0000
  S   S38       1.0  0.05679  0.47638  0.89150  1.0000
  H   H155      1.0  0.19373  0.12718  0.91433  1.0000
  H   H156      1.0  0.16796  0.08874  0.94336  1.0000
  N   N10       1.0  0.10407  0.25532  0.96425  1.0000
  C   C107      1.0  0.06854  0.53157  0.83985  1.0000
  H   H157      1.0  0.12204  0.20729  0.95193  1.0000
  S   S39       1.0  0.37610  0.14970  0.81676  1.0000
  C   C108      1.0  0.27227  0.08460  0.93904  1.0000
  H   H158      1.0  0.33319  0.07674  0.91829  1.0000
  H   H159      1.0  0.07163  0.28686  0.94119  1.0000
  H   H160      1.0  0.08523  0.29768  0.98458  1.0000
  H   H161      1.0  0.49355  0.20866  0.86667  1.0000
  S   S40       1.0  0.32576  0.10236  0.86457  1.0000
  H   H162      1.0  0.05871  0.12433  0.99234  1.0000
  H   H163      1.0  0.12803  0.29712  0.95144  1.0000
  C   C109      1.0  0.49702  0.18910  0.85284  1.0000
  Fe  Fe23      1.0  0.34084  0.04971  0.85731  1.0000
  Fe  Fe24      1.0  0.15284  0.09845  0.01401  1.0000
  S   S41       1.0  0.19814  0.07564  0.99412  1.0000
  H   H164      1.0  0.42029  0.19950  0.82923  1.0000
  S   S42       1.0  0.11911  0.06596  0.99753  1.0000
  N   N11       1.0  0.46521  0.17857  0.84567  1.0000
  H   H165      1.0  0.24648  0.07871  0.94201  1.0000
  H   H166      1.0  0.10735  0.47763  0.85189  1.0000
  H   H167      1.0  0.08802  0.40786  0.80379  1.0000
  C   C110      1.0  0.44755  0.16688  0.86793  1.0000
  C   C111      1.0  0.46924  0.06685  0.88016  1.0000
  C   C112      1.0  0.44191  0.08028  0.86716  1.0000
  N   N12       1.0  0.09424  0.51461  0.82382  1.0000
  H   H168      1.0  0.45688  0.21509  0.81649  1.0000
  H   H169      1.0  0.04214  0.05980  0.01790  1.0000
  H   H170      1.0  0.48332  0.16022  0.81046  1.0000
  H   H171      1.0  0.46237  0.14624  0.87756  1.0000
  C   C113      1.0  0.38135  0.15847  0.78499  1.0000
  H   H172      1.0  0.48769  0.13094  0.83580  1.0000
  H   H173      1.0  0.06863  0.26067  0.99449  1.0000
  S   S43       1.0  0.13642  0.15244  0.01309  1.0000
  C   C114      1.0  0.44497  0.20645  0.83395  1.0000
  H   H174      1.0  0.42837  0.17648  0.78948  1.0000
  H   H175      1.0  0.44202  0.18657  0.88149  1.0000
  H   H176      1.0  0.13216  0.21516  0.98307  1.0000
  C   C115      1.0  0.10008  0.47994  0.83215  1.0000
  H   H177      1.0  0.42370  0.15807  0.86306  1.0000
  H   H178      1.0  0.44800  0.14221  0.82296  1.0000
  H   H179      1.0  0.10328  0.50677  0.78501  1.0000
  C   C116      1.0  0.08478  0.42161  0.78647  1.0000
  H   H180      1.0  0.44084  0.22747  0.84647  1.0000
  H   H181      1.0  0.09103  0.20774  0.97616  1.0000
  H   H182      1.0  0.44355  0.10110  0.85482  1.0000
  S   S44       1.0  0.29111  0.03914  0.84527  1.0000
  H   H183      1.0  0.10984  0.26715  0.00231  1.0000
  H   H184      1.0  0.28945  0.04738  0.90057  1.0000
  Fe  Fe25      1.0  0.20323  0.04223  0.02773  1.0000
  H   H185      1.0  0.29691  0.05128  0.97913  1.0000
  H   H186      1.0  0.51308  0.16825  0.86124  1.0000
  C   C117      1.0  0.41227  0.06649  0.86954  1.0000
  H   H187      1.0  0.39160  0.07769  0.85951  1.0000
  C   C118      1.0  0.08336  0.51674  0.79791  1.0000
  C   C119      1.0  0.21446  0.05652  0.88409  1.0000
  C   C120      1.0  0.18332  0.04634  0.92193  1.0000
  S   S45       1.0  0.04936  0.39256  0.85853  1.0000
  H   H188      1.0  0.33593  0.07915  0.95133  1.0000
  H   H189      1.0  0.22696  0.04757  0.86744  1.0000
  C   C121      1.0  0.12506  0.53023  0.82558  1.0000
  N   N13       1.0  0.29546  0.05454  0.93930  1.0000
  S   S46       1.0  0.36014  0.05927  0.81883  1.0000
  Fe  Fe26      1.0  0.16486  0.04007  0.98106  1.0000
  H   H190      1.0  0.14476  0.51883  0.81306  1.0000
  C   C122      1.0  0.46684  0.03914  0.89566  1.0000
  C   C123      1.0  0.32953  0.06336  0.93625  1.0000
  Fe  Fe27      1.0  0.30893  0.05418  0.80729  1.0000
  H   H191      1.0  0.07716  0.53223  0.85907  1.0000
  H   H192      1.0  0.13434  0.52829  0.84479  1.0000
  C   C124      1.0  0.40952  0.03879  0.88471  1.0000
  H   H193      1.0  0.04442  0.09036  0.97741  1.0000
  H   H194      1.0  0.04566  0.51904  0.84054  1.0000
  H   H195      1.0  0.34769  0.04120  0.93630  1.0000
  H   H196      1.0  0.44350  0.92274  0.16725  1.0000
  H   H197      1.0  0.32786  0.91326  0.24958  1.0000
  H   H198      1.0  0.29503  0.96167  0.23126  1.0000
  C   C125      1.0  0.07017  0.78271  0.26939  1.0000
  C   C126      1.0  0.11190  0.91929  0.03470  1.0000
  C   C127      1.0  0.35847  0.99919  0.25282  1.0000
  C   C128      1.0  0.48685  0.02069  0.24121  1.0000
  C   C129      1.0  0.08163  0.90626  0.03465  1.0000
  C   C130      1.0  0.46487  0.00506  0.13303  1.0000
  H   H199      1.0  0.43860  0.88414  0.23040  1.0000
  C   C131      1.0  0.32903  0.99548  0.24105  1.0000
  H   H200      1.0  0.08453  0.76369  0.22272  1.0000
  S   S47       1.0  0.25306  0.02415  0.04214  1.0000
  C   C132      1.0  0.37640  0.97194  0.26410  1.0000
  H   H201      1.0  0.31184  0.01623  0.07030  1.0000
  C   C133      1.0  0.11325  0.95228  0.03986  1.0000
  C   C134      1.0  0.05418  0.95891  0.04628  1.0000
  C   C135      1.0  0.52039  0.03253  0.11375  1.0000
  H   H202      1.0  0.46844  0.01807  0.22682  1.0000
  H   H203      1.0  0.47332  0.96412  0.18840  1.0000
  S   S48       1.0  0.43073  0.99083  0.14855  1.0000
  H   H204      1.0  0.42295  0.95962  0.22790  1.0000
  H   H205      1.0  0.04978  0.59227  0.26475  1.0000
  H   H206      1.0  0.39985  0.92955  0.21529  1.0000
  H   H207      1.0  0.48466  0.00108  0.25569  1.0000
  C   C136      1.0  0.25706  0.03087  0.13590  1.0000
  S   S49       1.0  0.38976  0.90567  0.27308  1.0000
  H   H208      1.0  0.36738  0.02304  0.25311  1.0000
  C   C137      1.0  0.47895  0.94462  0.20285  1.0000
  H   H209      1.0  0.46053  0.91332  0.24498  1.0000
  N   N14       1.0  0.45169  0.92378  0.20630  1.0000
  H   H210      1.0  0.41383  0.96157  0.19561  1.0000
  H   H211      1.0  0.42760  0.89014  0.18531  1.0000
  C   C138      1.0  0.31765  0.96463  0.24046  1.0000
  C   C139      1.0  0.42073  0.94455  0.21149  1.0000
  C   C140      1.0  0.52866  0.94037  0.27129  1.0000
  H   H212      1.0  0.21035  0.00633  0.16455  1.0000
  H   H213      1.0  0.50236  0.93020  0.19708  1.0000
  H   H214      1.0  0.09239  0.79294  0.26125  1.0000
  H   H215      1.0  0.49947  0.96812  0.14962  1.0000
  H   H216      1.0  0.48212  0.88465  0.22433  1.0000
  C   C141      1.0  0.36552  0.94085  0.26269  1.0000
  C   C142      1.0  0.45863  0.90042  0.22736  1.0000
  H   H217      1.0  0.48371  0.95681  0.22019  1.0000
  H   H218      1.0  0.47115  0.88948  0.17911  1.0000
  C   C143      1.0  0.33619  0.93729  0.25084  1.0000
  C   C144      1.0  0.44834  0.90567  0.18350  1.0000
  C   C145      1.0  0.49633  0.98994  0.13789  1.0000
  C   C146      1.0  0.52406  0.00406  0.12869  1.0000
  H   H219      1.0  0.39944  0.97468  0.27268  1.0000
  S   S50       1.0  0.08534  0.01443  0.04904  1.0000
  Fe  Fe28      1.0  0.39579  0.03336  0.16045  1.0000
  H   H220      1.0  0.19175  0.02957  0.13892  1.0000
  H   H221      1.0  0.07133  0.73000  0.24115  1.0000
  H   H222      1.0  0.51288  0.92297  0.27870  1.0000
  H   H223      1.0  0.05726  0.65985  0.27606  1.0000
  H   H224      1.0  0.13671  0.96199  0.04022  1.0000
  H   H225      1.0  0.05675  0.81962  0.22804  1.0000
  H   H226      1.0  0.07374  0.54229  0.24654  1.0000
  H   H227      1.0  0.26430  0.00538  0.14272  1.0000
  S   S51       1.0  0.30714  0.02884  0.22592  1.0000
  N   N15       1.0  0.04665  0.77710  0.25009  1.0000
  C   C147      1.0  0.08433  0.97235  0.04504  1.0000
  C   C148      1.0  0.20418  0.03159  0.15682  1.0000
  H   H228      1.0  0.51166  0.01617  0.23217  1.0000
  C   C149      1.0  0.06281  0.75396  0.23205  1.0000
  H   H229      1.0  0.25813  0.02621  0.18537  1.0000
  H   H230      1.0  0.04568  0.74904  0.21726  1.0000
  H   H231      1.0  0.53517  0.91725  0.23611  1.0000
  C   C150      1.0  0.05279  0.92587  0.04100  1.0000
  C   C151      1.0  0.46114  0.03276  0.11720  1.0000
  Fe  Fe29      1.0  0.13011  0.03370  0.03104  1.0000
  H   H232      1.0  0.24641  0.02972  0.11722  1.0000
  H   H233      1.0  0.13434  0.90379  0.03076  1.0000
  S   S52       1.0  0.34119  0.03348  0.15856  1.0000
  H   H234      1.0  0.08157  0.62946  0.36366  1.0000
  C   C152      1.0  0.06264  0.65356  0.29516  1.0000
  H   H235      1.0  0.46912  0.86979  0.41494  1.0000
  C   C153      1.0  0.40846  0.88760  0.43270  1.0000
  S   S53       1.0  0.26229  0.60689  0.49555  1.0000
  S   S54       1.0  0.06393  0.55299  0.37201  1.0000
  S   S55       1.0  0.11929  0.58336  0.40547  1.0000
  C   C154      1.0  0.09083  0.63253  0.30091  1.0000
  S   S56       1.0  0.13011  0.59378  0.33260  1.0000
  C   C155      1.0  0.35972  0.70018  0.52118  1.0000
  H   H236      1.0  0.37903  0.64058  0.47955  1.0000
  H   H237      1.0  0.46633  0.62534  0.52667  1.0000
  H   H238      1.0  0.28109  0.54674  0.35299  1.0000
  C   C156      1.0  0.40430  0.00714  0.42244  1.0000
  C   C157      1.0  0.43429  0.00495  0.38317  1.0000
  C   C158      1.0  0.36467  0.70577  0.47668  1.0000
  C   C159      1.0  0.25272  0.54876  0.47524  1.0000
  H   H239      1.0  0.27834  0.56213  0.38377  1.0000
  H   H240      1.0  0.39026  0.71264  0.47756  1.0000
  H   H241      1.0  0.31786  0.03026  0.31455  1.0000
  H   H242      1.0  0.51208  0.00482  0.36311  1.0000
  H   H243      1.0  0.45993  0.84212  0.43983  1.0000
  H   H244      1.0  0.48994  0.87005  0.44385  1.0000
  H   H245      1.0  0.31611  0.65802  0.51110  1.0000
  C   C160      1.0  0.24180  0.58200  0.47670  1.0000
  C   C161      1.0  0.09742  0.62339  0.32559  1.0000
  N   N16       1.0  0.35682  0.68356  0.49762  1.0000
  C   C162      1.0  0.21323  0.59465  0.46446  1.0000
  H   H246      1.0  0.20458  0.62034  0.46570  1.0000
  N   N17       1.0  0.23237  0.55119  0.36939  1.0000
  H   H247      1.0  0.48919  0.56449  0.51461  1.0000
  H   H248      1.0  0.40627  0.03085  0.33054  1.0000
  H   H249      1.0  0.27478  0.53876  0.48451  1.0000
  C   C163      1.0  0.35085  0.02792  0.35701  1.0000
  C   C164      1.0  0.07652  0.63632  0.34454  1.0000
  C   C165      1.0  0.41123  0.99268  0.39958  1.0000
  H   H250      1.0  0.38859  0.90680  0.43811  1.0000
  H   H251      1.0  0.17281  0.58350  0.44238  1.0000
  H   H252      1.0  0.45208  0.92961  0.41919  1.0000
  H   H253      1.0  0.34267  0.72303  0.52219  1.0000
  C   C166      1.0  0.19518  0.57382  0.45135  1.0000
  H   H254      1.0  0.07424  0.56228  0.31414  1.0000
  H   H255      1.0  0.37447  0.63606  0.51251  1.0000
  H   H256      1.0  0.39973  0.86340  0.43763  1.0000
  Fe  Fe30      1.0  0.11535  0.56624  0.36682  1.0000
  H   H257      1.0  0.41132  0.88932  0.41214  1.0000
  C   C167      1.0  0.42089  0.03366  0.42899  1.0000
  H   H258      1.0  0.26380  0.58808  0.35812  1.0000
  H   H259      1.0  0.31983  0.66166  0.47810  1.0000
  S   S57       1.0  0.48073  0.80011  0.48701  1.0000
  H   H260      1.0  0.20768  0.59834  0.37837  1.0000
  H   H261      1.0  0.30457  0.69667  0.49563  1.0000
  H   H262      1.0  0.40591  0.65921  0.49933  1.0000
  H   H263      1.0  0.42948  0.94390  0.44619  1.0000
  Fe  Fe31      1.0  0.06973  0.56481  0.41173  1.0000
  H   H264      1.0  0.36243  0.69429  0.45854  1.0000
  Fe  Fe32      1.0  0.29763  0.57486  0.51922  1.0000
  H   H265      1.0  0.37781  0.81650  0.41087  1.0000
  S   S58       1.0  0.45275  0.72891  0.50228  1.0000
  H   H266      1.0  0.32452  0.02417  0.36041  1.0000
  Fe  Fe33      1.0  0.43246  0.77831  0.48805  1.0000
  S   S59       1.0  0.39748  0.78397  0.45669  1.0000
  S   S60       1.0  0.39132  0.95915  0.39146  1.0000
  H   H267      1.0  0.42802  0.86147  0.47658  1.0000
  Fe  Fe34      1.0  0.45933  0.87377  0.34660  1.0000
  S   S61       1.0  0.40541  0.88961  0.34405  1.0000
  S   S62       1.0  0.48075  0.82596  0.36363  1.0000
  Fe  Fe35      1.0  0.47887  0.93880  0.32504  1.0000
  S   S63       1.0  0.42646  0.96031  0.32158  1.0000
  H   H268      1.0  0.41595  0.90437  0.47981  1.0000
  Fe  Fe36      1.0  0.41865  0.93645  0.35888  1.0000
  Fe  Fe37      1.0  0.41866  0.91147  0.30700  1.0000
  S   S64       1.0  0.47181  0.91957  0.36388  1.0000
  S   S65       1.0  0.47159  0.89109  0.30800  1.0000
  C   C168      1.0  0.38009  0.65357  0.49719  1.0000
  H   H269      1.0  0.47226  0.92897  0.44839  1.0000
  C   C169      1.0  0.41943  0.79054  0.42895  1.0000
  C   C170      1.0  0.45306  0.78016  0.42691  1.0000
  C   C171      1.0  0.47149  0.78979  0.40613  1.0000
  C   C172      1.0  0.45643  0.81017  0.38756  1.0000
  C   C173      1.0  0.42249  0.81907  0.38906  1.0000
  C   C174      1.0  0.40393  0.80890  0.40956  1.0000
  H   H270      1.0  0.46507  0.76531  0.44157  1.0000
  H   H271      1.0  0.49768  0.78246  0.40490  1.0000
  H   H272      1.0  0.41048  0.83372  0.37444  1.0000
  Fe  Fe38      1.0  0.49994  0.75182  0.50446  1.0000
  H   H273      1.0  0.45855  0.88861  0.48185  1.0000
  H   H274      1.0  0.44003  0.99367  0.36563  1.0000
  N   N18       1.0  0.43964  0.89163  0.44491  1.0000
  C   C175      1.0  0.43536  0.88638  0.47197  1.0000
  C   C176      1.0  0.46585  0.86744  0.43545  1.0000
  C   C177      1.0  0.44886  0.92499  0.43948  1.0000
  C   C178      1.0  0.53665  0.96582  0.28571  1.0000
  H   H275      1.0  0.38637  0.99772  0.43514  1.0000
  C   C179      1.0  0.32287  0.67467  0.49551  1.0000
  C   C180      1.0  0.21238  0.57306  0.38639  1.0000
  S   S66       1.0  0.34412  0.54934  0.50344  1.0000
  C   C181      1.0  0.04180  0.66656  0.31414  1.0000
  H   H276      1.0  0.36448  0.00333  0.35459  1.0000
  H   H277      1.0  0.18809  0.56399  0.39066  1.0000
  H   H278      1.0  0.21323  0.57681  0.33663  1.0000
  H   H279      1.0  0.05879  0.80013  0.28328  1.0000
  H   H280      1.0  0.22473  0.57454  0.40434  1.0000
  H   H281      1.0  0.52921  0.55892  0.52812  1.0000
  H   H282      1.0  0.17894  0.55395  0.50378  1.0000
  H   H283      1.0  0.52709  0.99390  0.39347  1.0000
  H   H284      1.0  0.34807  0.72902  0.47665  1.0000
  C   C182      1.0  0.26537  0.56255  0.36588  1.0000
  S   S67       1.0  0.51826  0.97199  0.31517  1.0000
  H   H285      1.0  0.35850  0.01024  0.30961  1.0000
  S   S68       1.0  0.41633  0.79672  0.52547  1.0000
  H   H286      1.0  0.09794  0.56286  0.28567  1.0000
  C   C183      1.0  0.08046  0.54894  0.29681  1.0000
  Fe  Fe39      1.0  0.46632  0.81428  0.52587  1.0000
  H   H287      1.0  0.19099  0.54377  0.34727  1.0000
  C   C184      1.0  0.20611  0.54048  0.45014  1.0000
  C   C185      1.0  0.21614  0.55172  0.34525  1.0000
  C   C186      1.0  0.44997  0.03207  0.38939  1.0000
  H   H288      1.0  0.18564  0.59237  0.51677  1.0000
  H   H289      1.0  0.10702  0.62268  0.28620  1.0000
  C   C187      1.0  0.04922  0.65853  0.33884  1.0000
  C   C188      1.0  0.53466  0.99710  0.37367  1.0000
  H   H290      1.0  0.38508  0.70708  0.52345  1.0000
  N   N19       1.0  0.05068  0.54484  0.28287  1.0000
  H   H291      1.0  0.21405  0.55697  0.52241  1.0000
  C   C189      1.0  0.34433  0.03441  0.31283  1.0000
  C   C190      1.0  0.18747  0.56545  0.52049  1.0000
  H   H292      1.0  0.12303  0.55777  0.52341  1.0000
  C   C191      1.0  0.50401  0.55079  0.52928  1.0000
  H   H293      1.0  0.50359  0.03689  0.28652  1.0000
  H   H294      1.0  0.07854  0.75947  0.27962  1.0000
  C   C192      1.0  0.13322  0.56884  0.53969  1.0000
  S   S69       1.0  0.29204  0.54911  0.61062  1.0000
  C   C193      1.0  0.10250  0.60055  0.74493  1.0000
  S   S70       1.0  0.08003  0.62663  0.70072  1.0000
  C   C194      1.0  0.34464  0.98252  0.74725  1.0000
  Fe  Fe40      1.0  0.44173  0.74929  0.53985  1.0000
  C   C195      1.0  0.06653  0.65099  0.74691  1.0000
  H   H295      1.0  0.23688  0.57305  0.64118  1.0000
  H   H296      1.0  0.45498  0.93314  0.60145  1.0000
  H   H297      1.0  0.12978  0.59589  0.53675  1.0000
  S   S71       1.0  0.32219  0.59446  0.55131  1.0000
  C   C196      1.0  0.08384  0.62647  0.73295  1.0000
  C   C197      1.0  0.46724  0.70230  0.62710  1.0000
  Fe  Fe41      1.0  0.08815  0.57453  0.68930  1.0000
  N   N20       1.0  0.16827  0.55696  0.54290  1.0000
  H   H298      1.0  0.52622  0.67427  0.61112  1.0000
  H   H299      1.0  0.11636  0.58183  0.73425  1.0000
  C   C198      1.0  0.37043  0.95730  0.74565  1.0000
  H   H300      1.0  0.33384  0.99360  0.73056  1.0000
  H   H301      1.0  0.46578  0.68966  0.64554  1.0000
  C   C199      1.0  0.53163  0.01837  0.75030  1.0000
  H   H302      1.0  0.20705  0.56348  0.56783  1.0000
  H   H303      1.0  0.38128  0.67000  0.58720  1.0000
  C   C200      1.0  0.33341  0.99399  0.77040  1.0000
  C   C201      1.0  0.40008  0.66012  0.57422  1.0000
  H   H304      1.0  0.40832  0.93161  0.57442  1.0000
  H   H305      1.0  0.38055  0.61359  0.57257  1.0000
  H   H306      1.0  0.37776  0.89472  0.61897  1.0000
  H   H307      1.0  0.53920  0.99259  0.75621  1.0000
  C   C202      1.0  0.49859  0.73440  0.59903  1.0000
  H   H308      1.0  0.47705  0.75310  0.59682  1.0000
  H   H309      1.0  0.16642  0.56709  0.58171  1.0000
  C   C203      1.0  0.22957  0.55341  0.63040  1.0000
  H   H310      1.0  0.43141  0.02739  0.71262  1.0000
  H   H311      1.0  0.05270  0.67144  0.73764  1.0000
  H   H312      1.0  0.37943  0.94888  0.72775  1.0000
  S   S72       1.0  0.06932  0.55607  0.65428  1.0000
  H   H313      1.0  0.49763  0.71655  0.58405  1.0000
  Fe  Fe42      1.0  0.51501  0.92007  0.71173  1.0000
  S   S73       1.0  0.48890  0.87593  0.72178  1.0000
  Fe  Fe43      1.0  0.45733  0.95360  0.68374  1.0000
  S   S74       1.0  0.42590  0.91286  0.69169  1.0000
  S   S75       1.0  0.43722  0.99954  0.66361  1.0000
  Fe  Fe44      1.0  0.44564  0.91254  0.72993  1.0000
  Fe  Fe45      1.0  0.47192  0.88030  0.68248  1.0000
  S   S76       1.0  0.46753  0.83653  0.65912  1.0000
  S   S77       1.0  0.47303  0.95636  0.72278  1.0000
  S   S78       1.0  0.50202  0.92138  0.67161  1.0000
  S   S79       1.0  0.47416  0.86160  0.54308  1.0000
  S   S80       1.0  0.49050  0.76823  0.54315  1.0000
  H   H314      1.0  0.44861  0.93828  0.63410  1.0000
  H   H315      1.0  0.39317  0.97201  0.58396  1.0000
  H   H316      1.0  0.17944  0.55865  0.64424  1.0000
  H   H317      1.0  0.49262  0.55846  0.54740  1.0000
  C   C204      1.0  0.39260  0.94546  0.58853  1.0000
  H   H318      1.0  0.39078  0.01581  0.71818  1.0000
  H   H319      1.0  0.41363  0.89417  0.63747  1.0000
  C   C205      1.0  0.47101  0.84320  0.62692  1.0000
  C   C206      1.0  0.47356  0.85425  0.57528  1.0000
  C   C207      1.0  0.48900  0.87418  0.59083  1.0000
  C   C208      1.0  0.48771  0.86869  0.61664  1.0000
  H   H320      1.0  0.50221  0.89367  0.58292  1.0000
  H   H321      1.0  0.50003  0.88387  0.62848  1.0000
  C   C209      1.0  0.43842  0.94557  0.61563  1.0000
  C   C210      1.0  0.38393  0.94250  0.76723  1.0000
  H   H322      1.0  0.43988  0.97237  0.61304  1.0000
  C   C211      1.0  0.40330  0.90176  0.61905  1.0000
  S   S81       1.0  0.42065  0.72117  0.57166  1.0000
  C   C212      1.0  0.52659  0.69294  0.62558  1.0000
  N   N21       1.0  0.40429  0.93718  0.61381  1.0000
  C   C213      1.0  0.50068  0.01517  0.66233  1.0000
  C   C214      1.0  0.44797  0.63483  0.54010  1.0000
  N   N22       1.0  0.49806  0.71803  0.62372  1.0000
  H   H323      1.0  0.44523  0.72059  0.62544  1.0000
  Fe  Fe46      1.0  0.36763  0.56434  0.53764  1.0000
  C   C215      1.0  0.06647  0.64860  0.77290  1.0000
  H   H324      1.0  0.39109  0.95017  0.65121  1.0000
  H   H325      1.0  0.52123  0.74698  0.59576  1.0000
  H   H326      1.0  0.36692  0.93942  0.58645  1.0000
  C   C216      1.0  0.46734  0.02694  0.66307  1.0000
  H   H327      1.0  0.41793  0.88697  0.60498  1.0000
  C   C217      1.0  0.49973  0.74254  0.64296  1.0000
  H   H328      1.0  0.39407  0.02248  0.76352  1.0000
  C   C218      1.0  0.42281  0.61608  0.54814  1.0000
  C   C219      1.0  0.44839  0.66671  0.54837  1.0000
  C   C220      1.0  0.39941  0.62837  0.56572  1.0000
  H   H329      1.0  0.50802  0.98933  0.66082  1.0000
  H   H330      1.0  0.44253  0.80366  0.61911  1.0000
  H   H331      1.0  0.38350  0.98279  0.62883  1.0000
  C   C221      1.0  0.45597  0.82305  0.61130  1.0000
  C   C222      1.0  0.45720  0.82856  0.58559  1.0000
  H   H332      1.0  0.46513  0.68392  0.61268  1.0000
  H   H333      1.0  0.52706  0.67982  0.64391  1.0000
  C   C223      1.0  0.42384  0.67968  0.56483  1.0000
  H   H334      1.0  0.44480  0.81330  0.57380  1.0000
  H   H335      1.0  0.35688  0.95045  0.63109  1.0000
  H   H336      1.0  0.46750  0.68137  0.54172  1.0000
  S   S82       1.0  0.41914  0.57880  0.53430  1.0000
  S   S83       1.0  0.41651  0.91129  0.76570  1.0000
  C   C224      1.0  0.38289  0.95594  0.63196  1.0000
  H   H337      1.0  0.52235  0.75540  0.64061  1.0000
  C   C225      1.0  0.18082  0.57244  0.56452  1.0000
  H   H338      1.0  0.51342  0.01760  0.73545  1.0000
  H   H339      1.0  0.52311  0.90125  0.76186  1.0000
  S   S84       1.0  0.30393  0.02797  0.77213  1.0000
  H   H340      1.0  0.47839  0.76171  0.64219  1.0000
  C   C226      1.0  0.19716  0.54505  0.63233  1.0000
  H   H341      1.0  0.17941  0.59950  0.56191  1.0000
  H   H342      1.0  0.49972  0.73108  0.66188  1.0000
  S   S85       1.0  0.13783  0.54596  0.68675  1.0000
  H   H343      1.0  0.11806  0.56254  0.55629  1.0000
  H   H344      1.0  0.43591  0.03087  0.75795  1.0000
  H   H345      1.0  0.35405  0.68415  0.53741  1.0000
  H   H346      1.0  0.51911  0.03081  0.76645  1.0000
  C   C227      1.0  0.10362  0.59893  0.77080  1.0000
  Fe  Fe47      1.0  0.31072  0.54792  0.57114  1.0000
  S   S86       1.0  0.06602  0.53775  0.71422  1.0000
  C   C228      1.0  0.25214  0.53739  0.61376  1.0000
  H   H347      1.0  0.10219  0.89186  0.95650  1.0000
  H   H348      1.0  0.47269  0.92785  0.87348  1.0000
  C   C229      1.0  0.54060  0.91464  0.79687  1.0000
  H   H349      1.0  0.12130  0.55673  0.82048  1.0000
  H   H350      1.0  0.08754  0.95189  0.95732  1.0000
  H   H351      1.0  0.12041  0.89157  0.98620  1.0000
  H   H352      1.0  0.49989  0.97928  0.83682  1.0000
  H   H353      1.0  0.17618  0.95526  0.96951  1.0000
  C   C230      1.0  0.43680  0.02512  0.89803  1.0000
  C   C231      1.0  0.14361  0.93102  0.93331  1.0000
  C   C232      1.0  0.12537  0.89516  0.96601  1.0000
  H   H354      1.0  0.52219  0.90273  0.80746  1.0000
  H   H355      1.0  0.07090  0.54104  0.90339  1.0000
  H   H356      1.0  0.43991  0.97326  0.80502  1.0000
  S   S87       1.0  0.08432  0.61797  0.81728  1.0000
  C   C233      1.0  0.11050  0.95349  0.96756  1.0000
  H   H357      1.0  0.06216  0.55740  0.83350  1.0000
  H   H358      1.0  0.10423  0.95146  0.98767  1.0000
  H   H359      1.0  0.30888  0.01348  0.96397  1.0000
  C   C234      1.0  0.16671  0.93122  0.97390  1.0000
  H   H360      1.0  0.16208  0.92974  0.99428  1.0000
  H   H361      1.0  0.40929  0.98659  0.84353  1.0000
  N   N23       1.0  0.13654  0.92771  0.96020  1.0000
  H   H362      1.0  0.18671  0.91179  0.96923  1.0000
  H   H363      1.0  0.33814  0.98788  0.80989  1.0000
  C   C235      1.0  0.34707  0.97937  0.79197  1.0000
  H   H364      1.0  0.16344  0.91221  0.92714  1.0000
  H   H365      1.0  0.44108  0.92983  0.81031  1.0000
  H   H366      1.0  0.15185  0.95545  0.92826  1.0000
  H   H367      1.0  0.14416  0.87506  0.96039  1.0000
  H   H368      1.0  0.12145  0.92831  0.92236  1.0000
  H   H369      1.0  0.11841  0.97835  0.96382  1.0000
  H   H370      1.0  0.40585  0.94369  0.84841  1.0000
  H   H371      1.0  0.49562  0.91859  0.84553  1.0000
  C   C236      1.0  0.08495  0.62245  0.78487  1.0000
  Fe  Fe48      1.0  0.04363  0.64981  0.83594  1.0000
  H   H372      1.0  0.47940  0.98498  0.86612  1.0000
  H   H373      1.0  0.38143  0.94120  0.80708  1.0000
  H   H374      1.0  0.45589  0.90447  0.85020  1.0000
  S   S88       1.0  0.04341  0.74190  0.89382  1.0000
  S   S89       1.0  0.17325  0.00479  0.01303  1.0000
  H   H375      1.0  0.05244  0.66715  0.78363  1.0000
  H   H376      1.0  0.30611  0.01161  0.91756  1.0000
  C   C237      1.0  0.19943  0.03486  0.90028  1.0000
  C   C238      1.0  0.37175  0.95315  0.79037  1.0000
  C   C239      1.0  0.29177  0.03635  0.96312  1.0000
  C   C240      1.0  0.47516  0.98305  0.84603  1.0000
  H   H377      1.0  0.11869  0.57916  0.77979  1.0000
  H   H378      1.0  0.46303  0.00704  0.83924  1.0000
  H   H379      1.0  0.20100  0.00913  0.89627  1.0000
  H   H380      1.0  0.42193  0.96654  0.87215  1.0000
  C   C241      1.0  0.47045  0.92537  0.85318  1.0000
  S   S90       1.0  0.08029  0.86602  0.02531  1.0000
  N   N24       1.0  0.45524  0.95595  0.84133  1.0000
  H   H381      1.0  0.48793  0.02883  0.90600  1.0000
  S   S91       1.0  0.37222  0.02104  0.88563  1.0000
  C   C242      1.0  0.42163  0.96349  0.85179  1.0000
  H   H382      1.0  0.47853  0.94819  0.80552  1.0000
  C   C243      1.0  0.45360  0.95174  0.81438  1.0000
  H   H383      1.0  0.43484  0.00375  0.90998  1.0000
  S   S92       1.0  0.16790  0.01867  0.94343  1.0000
  H   H384      1.0  0.05598  0.77800  0.93619  1.0000
  H   H385      1.0  0.07629  0.54255  0.79177  1.0000
  H   H386      1.0  0.26628  0.02934  0.96600  1.0000
  H   H387      1.0  0.26306  0.02581  0.92082  1.0000
  C   C244      1.0  0.04452  0.54112  0.90212  1.0000
  C   C245      1.0  0.28818  0.03386  0.91871  1.0000
  C   C246      1.0  0.58282  0.09677  0.25511  1.0000
  S   S93       1.0  0.61426  0.08370  0.15520  1.0000
  Fe  Fe49      1.0  0.58761  0.07779  0.19170  1.0000
  S   S94       1.0  0.56049  0.12122  0.21009  1.0000
  C   C247      1.0  0.56041  0.11891  0.24252  1.0000
  C   C248      1.0  0.89962  0.51803  0.25446  1.0000
  H   H388      1.0  0.60109  0.08139  0.24490  1.0000
  H   H389      1.0  0.68442  0.09772  0.14173  1.0000
  H   H390      1.0  0.03861  0.52754  0.20487  1.0000
  H   H391      1.0  0.70029  0.12523  0.10229  1.0000
  C   C249      1.0  0.71509  0.05306  0.13470  1.0000
  C   C250      1.0  0.70177  0.08503  0.12899  1.0000
  H   H392      1.0  0.97667  0.21889  0.12447  1.0000
  C   C251      1.0  0.74660  0.05223  0.09587  1.0000
  C   C252      1.0  0.71089  0.10060  0.10675  1.0000
  H   H393      1.0  0.69137  0.04513  0.05634  1.0000
  Fe  Fe50      1.0  0.64724  0.03983  0.16841  1.0000
  Fe  Fe51      1.0  0.92938  0.24899  0.03284  1.0000
  S   S95       1.0  0.55349  0.04416  0.17748  1.0000
  Fe  Fe52      1.0  0.98553  0.36914  0.22536  1.0000
  S   S96       1.0  0.00671  0.41393  0.20986  1.0000
  S   S97       1.0  0.99481  0.32321  0.20372  1.0000
  H   H394      1.0  0.91983  0.39411  0.16013  1.0000
  S   S98       1.0  0.62349  0.03702  0.20641  1.0000
  H   H395      1.0  0.96005  0.21518  0.15546  1.0000
  Fe  Fe53      1.0  0.95919  0.44029  0.22333  1.0000
  S   S99       1.0  0.93280  0.48261  0.20231  1.0000
  H   H396      1.0  0.65706  0.07613  0.08691  1.0000
  C   C253      1.0  0.95789  0.51466  0.20227  1.0000
  S   S100      1.0  0.93614  0.39506  0.23575  1.0000
  H   H397      1.0  0.77377  0.15808  0.03732  1.0000
  N   N25       1.0  0.01154  0.22212  0.15315  1.0000
  H   H398      1.0  0.00446  0.26170  0.17836  1.0000
  Fe  Fe54      1.0  0.94054  0.28994  0.07692  1.0000
  S   S101      1.0  0.99536  0.27930  0.07385  1.0000
  S   S102      1.0  0.91382  0.32027  0.10654  1.0000
  H   H399      1.0  0.79640  0.17243  0.10174  1.0000
  Fe  Fe55      1.0  0.98501  0.22815  0.06683  1.0000
  H   H400      1.0  0.00318  0.48281  0.20192  1.0000
  S   S103      1.0  0.93070  0.23759  0.07360  1.0000
  H   H401      1.0  0.92420  0.46864  0.11943  1.0000
  Fe  Fe56      1.0  0.02355  0.41936  0.24845  1.0000
  S   S104      1.0  0.81926  0.03854  0.04633  1.0000
  Fe  Fe57      1.0  0.58281  0.04671  0.14214  1.0000
  H   H402      1.0  0.02035  0.07874  0.04383  1.0000
  C   C254      1.0  0.83322  0.19566  0.06439  1.0000
  C   C255      1.0  0.97781  0.22784  0.14362  1.0000
  N   N26       1.0  0.94831  0.42841  0.14066  1.0000
  H   H403      1.0  0.95933  0.42169  0.10188  1.0000
  H   H404      1.0  0.93296  0.39339  0.11576  1.0000
  H   H405      1.0  0.84483  0.13353  0.04934  1.0000
  S   S105      1.0  0.74152  0.10292  0.06140  1.0000
  C   C256      1.0  0.03423  0.23897  0.13658  1.0000
  H   H406      1.0  0.84397  0.52860  0.27890  1.0000
  Fe  Fe58      1.0  0.77475  0.07206  0.03572  1.0000
  C   C257      1.0  0.97197  0.32462  0.17681  1.0000
  C   C258      1.0  0.93763  0.32667  0.17812  1.0000
  C   C259      1.0  0.91980  0.32562  0.15640  1.0000
  C   C260      1.0  0.93633  0.32235  0.13343  1.0000
  C   C261      1.0  0.97063  0.32113  0.13214  1.0000
  C   C262      1.0  0.98842  0.32224  0.15380  1.0000
  H   H407      1.0  0.92486  0.32850  0.19592  1.0000
  H   H408      1.0  0.89323  0.32681  0.15744  1.0000
  H   H409      1.0  0.98343  0.31993  0.11443  1.0000
  H   H410      1.0  0.01498  0.32134  0.15279  1.0000
  C   C263      1.0  0.94127  0.40809  0.16283  1.0000
  C   C264      1.0  0.79240  0.17582  0.03895  1.0000
  H   H411      1.0  0.96884  0.25433  0.14302  1.0000
  H   H412      1.0  0.85193  0.19308  0.04907  1.0000
  S   S106      1.0  0.01333  0.18403  0.08386  1.0000
  S   S107      1.0  0.55467  0.05371  0.10712  1.0000
  C   C265      1.0  0.82647  0.13796  0.06474  1.0000
  H   H413      1.0  0.03486  0.22948  0.11750  1.0000
  C   C266      1.0  0.73284  0.08399  0.09000  1.0000
  H   H414      1.0  0.88984  0.49483  0.26076  1.0000
  S   S108      1.0  0.00669  0.37206  0.26293  1.0000
  H   H415      1.0  0.54776  0.13192  0.15857  1.0000
  H   H416      1.0  0.63481  0.06841  0.04525  1.0000
  Fe  Fe59      1.0  0.98816  0.28775  0.03307  1.0000
  H   H417      1.0  0.93542  0.42319  0.17932  1.0000
  H   H418      1.0  0.03708  0.23115  0.18618  1.0000
  H   H419      1.0  0.84663  0.19290  0.08208  1.0000
  H   H420      1.0  0.96276  0.39037  0.16749  1.0000
  S   S109      1.0  0.93394  0.30250  0.03654  1.0000
  H   H421      1.0  0.97389  0.46171  0.16091  1.0000
  H   H422      1.0  0.82109  0.22115  0.06297  1.0000
  C   C267      1.0  0.01205  0.23498  0.17834  1.0000
  H   H423      1.0  0.02190  0.17604  0.13540  1.0000
  H   H424      1.0  0.98390  0.46097  0.12843  1.0000
  C   C268      1.0  0.95442  0.40722  0.11910  1.0000
  C   C269      1.0  0.97774  0.44545  0.14480  1.0000
  H   H425      1.0  0.76608  0.15785  0.08279  1.0000
  C   C270      1.0  0.91979  0.45277  0.13600  1.0000
  N   N27       1.0  0.80918  0.17132  0.06288  1.0000
  C   C271      1.0  0.64623  0.05339  0.09306  1.0000
  H   H426      1.0  0.97605  0.38884  0.12197  1.0000
  H   H427      1.0  0.00559  0.17315  0.16644  1.0000
  H   H428      1.0  0.93190  0.18211  0.03887  1.0000
  H   H429      1.0  0.89715  0.44067  0.13296  1.0000
  H   H430      1.0  0.92655  0.51237  0.25123  1.0000
  H   H431      1.0  0.91455  0.46908  0.15201  1.0000
  H   H432      1.0  0.99964  0.42778  0.14873  1.0000
  S   S110      1.0  0.97783  0.44993  0.26055  1.0000
  C   C272      1.0  0.99206  0.50769  0.20289  1.0000
  C   C273      1.0  0.78462  0.17584  0.08340  1.0000
  H   H433      1.0  0.88820  0.42742  0.27554  1.0000
  C   C274      1.0  0.02213  0.18662  0.15407  1.0000
  H   H434      1.0  0.76354  0.03927  0.08304  1.0000
  H   H435      1.0  0.77100  0.20070  0.08253  1.0000
  H   H436      1.0  0.83975  0.13371  0.08242  1.0000
  C   C275      1.0  0.01214  0.53303  0.20471  1.0000
  H   H437      1.0  0.80898  0.11900  0.06390  1.0000
  H   H438      1.0  0.59972  0.05133  0.05925  1.0000
  H   H439      1.0  0.88843  0.52530  0.23631  1.0000
  Fe  Fe60      1.0  0.95930  0.40228  0.27219  1.0000
  H   H440      1.0  0.02659  0.26569  0.13504  1.0000
  H   H441      1.0  0.62089  0.06080  0.10006  1.0000
  H   H442      1.0  0.99224  0.13365  0.03979  1.0000
  H   H443      1.0  0.77940  0.20083  0.03672  1.0000
  C   C276      1.0  0.91695  0.13524  0.02992  1.0000
  H   H444      1.0  0.99490  0.22320  0.19132  1.0000
  C   C277      1.0  0.62566  0.04530  0.05261  1.0000
  H   H445      1.0  0.66039  0.04227  0.10903  1.0000
  H   H446      1.0  0.93210  0.12195  0.04374  1.0000
  H   H447      1.0  0.03820  0.52024  0.25050  1.0000
  S   S111      1.0  0.55748  0.11164  0.32684  1.0000
  H   H448      1.0  0.89570  0.51050  0.30405  1.0000
  C   C278      1.0  0.69391  0.45681  0.51095  1.0000
  H   H449      1.0  0.54475  0.51396  0.49969  1.0000
  H   H450      1.0  0.71534  0.45433  0.44974  1.0000
  H   H451      1.0  0.68115  0.50538  0.45928  1.0000
  C   C279      1.0  0.97326  0.51665  0.41334  1.0000
  H   H452      1.0  0.58175  0.41189  0.50967  1.0000
  S   S112      1.0  0.61299  0.52143  0.52199  1.0000
  C   C280      1.0  0.85415  0.46014  0.29659  1.0000
  H   H453      1.0  0.83905  0.46781  0.28091  1.0000
  H   H454      1.0  0.02408  0.42642  0.34037  1.0000
  H   H455      1.0  0.75431  0.46972  0.49412  1.0000
  H   H456      1.0  0.68570  0.43191  0.46634  1.0000
  H   H457      1.0  0.59110  0.27012  0.35640  1.0000
  H   H458      1.0  0.71409  0.43920  0.51828  1.0000
  H   H459      1.0  0.74020  0.49867  0.47015  1.0000
  S   S113      1.0  0.55636  0.35184  0.49310  1.0000
  N   N28       1.0  0.70279  0.47085  0.48643  1.0000
  H   H460      1.0  0.93843  0.38682  0.37378  1.0000
  C   C281      1.0  0.58209  0.09498  0.28106  1.0000
  H   H461      1.0  0.67158  0.51569  0.49089  1.0000
  H   H462      1.0  0.59968  0.07799  0.29072  1.0000
  H   H463      1.0  0.58732  0.46942  0.49702  1.0000
  C   C282      1.0  0.88195  0.43736  0.29353  1.0000
  H   H464      1.0  0.58385  0.20532  0.38430  1.0000
  H   H465      1.0  0.57460  0.20219  0.31592  1.0000
  C   C283      1.0  0.55856  0.11492  0.29445  1.0000
  H   H466      1.0  0.61762  0.23280  0.35294  1.0000
  C   C284      1.0  0.94191  0.52596  0.42317  1.0000
  H   H467      1.0  0.68840  0.47625  0.52478  1.0000
  H   H468      1.0  0.56311  0.07151  0.37844  1.0000
  C   C285      1.0  0.02843  0.52599  0.29833  1.0000
  C   C286      1.0  0.59467  0.24685  0.34621  1.0000
  C   C287      1.0  0.70830  0.44449  0.46839  1.0000
  H   H469      1.0  0.65209  0.48381  0.47735  1.0000
  H   H470      1.0  0.59873  0.25325  0.32627  1.0000
  H   H471      1.0  0.72836  0.42566  0.47422  1.0000
  C   C288      1.0  0.59680  0.45987  0.51456  1.0000
  C   C289      1.0  0.67573  0.49496  0.47806  1.0000
  S   S114      1.0  0.91002  0.50211  0.41721  1.0000
  H   H472      1.0  0.95873  0.44393  0.42177  1.0000
  H   H473      1.0  0.99119  0.45552  0.37142  1.0000
  C   C290      1.0  0.57155  0.19725  0.33618  1.0000
  N   N29       1.0  0.97355  0.41398  0.39071  1.0000
  H   H474      1.0  0.00221  0.43972  0.41483  1.0000
  H   H475      1.0  0.98322  0.40635  0.42951  1.0000
  H   H476      1.0  0.96534  0.43302  0.35360  1.0000
  C   C291      1.0  0.89259  0.43967  0.33716  1.0000
  C   C292      1.0  0.97969  0.42650  0.41531  1.0000
  C   C293      1.0  0.84661  0.47382  0.31972  1.0000
  C   C294      1.0  0.90123  0.42715  0.31388  1.0000
  H   H477      1.0  0.67158  0.44350  0.51009  1.0000
  H   H478      1.0  0.94758  0.45916  0.37756  1.0000
  C   C295      1.0  0.96920  0.44163  0.37252  1.0000
  S   S115      1.0  0.93675  0.39963  0.31056  1.0000
  C   C296      1.0  0.94343  0.39690  0.39205  1.0000
  S   S116      1.0  0.81984  0.50837  0.39564  1.0000
  C   C297      1.0  0.00186  0.39094  0.38294  1.0000
  S   S117      1.0  0.81535  0.50606  0.32277  1.0000
  H   H479      1.0  0.92152  0.41384  0.39750  1.0000
  H   H480      1.0  0.99836  0.38160  0.36417  1.0000
  H   H481      1.0  0.04037  0.50122  0.30321  1.0000
  C   C298      1.0  0.86587  0.46348  0.33998  1.0000
  H   H482      1.0  0.00550  0.36948  0.39600  1.0000
  H   H483      1.0  0.02512  0.40294  0.38222  1.0000
  H   H484      1.0  0.90682  0.43151  0.35301  1.0000
  C   C299      1.0  0.73316  0.48722  0.48827  1.0000
  H   H485      1.0  0.59381  0.18162  0.34246  1.0000
  H   H486      1.0  0.73002  0.50698  0.50200  1.0000
  H   H487      1.0  0.97762  0.49526  0.40236  1.0000
  H   H488      1.0  0.86022  0.47381  0.35789  1.0000
  H   H489      1.0  0.94556  0.37617  0.40584  1.0000
  Fe  Fe61      1.0  0.86570  0.53212  0.40194  1.0000
  N   N30       1.0  0.56606  0.22787  0.35000  1.0000
  C   C300      1.0  0.59381  0.42722  0.52163  1.0000
  H   H490      1.0  0.02293  0.52795  0.40902  1.0000
  H   H491      1.0  0.55679  0.24239  0.38771  1.0000
  H   H492      1.0  0.55041  0.18234  0.33881  1.0000
  H   H493      1.0  0.02734  0.41746  0.29594  1.0000
  C   C301      1.0  0.56177  0.21990  0.37668  1.0000
  H   H494      1.0  0.58503  0.04393  0.34032  1.0000
  H   H495      1.0  0.93359  0.52619  0.29489  1.0000
  H   H496      1.0  0.00563  0.52249  0.28841  1.0000
  Fe  Fe62      1.0  0.82173  0.53217  0.35788  1.0000
  S   S118      1.0  0.54537  0.25571  0.48641  1.0000
  C   C302      1.0  0.90657  0.53264  0.29666  1.0000
  C   C303      1.0  0.54555  0.05260  0.38092  1.0000
  C   C304      1.0  0.99907  0.53553  0.41697  1.0000
  S   S119      1.0  0.55107  0.18042  0.70001  1.0000
  H   H497      1.0  0.62480  0.22478  0.74782  1.0000
  H   H498      1.0  0.63262  0.42436  0.57661  1.0000
  H   H499      1.0  0.58136  0.14779  0.74372  1.0000
  H   H500      1.0  0.59395  0.23459  0.69661  1.0000
  H   H501      1.0  0.78368  0.53419  0.60089  1.0000
  H   H502      1.0  0.02771  0.44229  0.74275  1.0000
  H   H503      1.0  0.97506  0.46304  0.72544  1.0000
  S   S120      1.0  0.54245  0.30724  0.54328  1.0000
  C   C305      1.0  0.60536  0.11380  0.77025  1.0000
  N   N31       1.0  0.58904  0.26018  0.73083  1.0000
  C   C306      1.0  0.60331  0.25568  0.70557  1.0000
  H   H504      1.0  0.95979  0.44235  0.68482  1.0000
  C   C307      1.0  0.58177  0.13925  0.76280  1.0000
  C   C308      1.0  0.55288  0.26644  0.72952  1.0000
  C   C309      1.0  0.70077  0.53147  0.65686  1.0000
  H   H505      1.0  0.99123  0.37729  0.70549  1.0000
  C   C310      1.0  0.62469  0.46727  0.55258  1.0000
  H   H506      1.0  0.62307  0.10293  0.75690  1.0000
  C   C311      1.0  0.62265  0.43427  0.55927  1.0000
  H   H507      1.0  0.59661  0.27752  0.69327  1.0000
  S   S121      1.0  0.60279  0.37363  0.55301  1.0000
  C   C312      1.0  0.60217  0.28836  0.74192  1.0000
  H   H508      1.0  0.55009  0.50594  0.54603  1.0000
  H   H509      1.0  0.62944  0.28448  0.74320  1.0000
  H   H510      1.0  0.59179  0.29249  0.76096  1.0000
  H   H511      1.0  0.77046  0.52953  0.63272  1.0000
  C   C313      1.0  0.59770  0.23031  0.74626  1.0000
  H   H512      1.0  0.00783  0.41597  0.70680  1.0000
  H   H513      1.0  0.63060  0.25115  0.70568  1.0000
  H   H514      1.0  0.55362  0.22750  0.57705  1.0000
  C   C314      1.0  0.72483  0.51791  0.67319  1.0000
  H   H515      1.0  0.59603  0.31127  0.73067  1.0000
  C   C315      1.0  0.94006  0.51975  0.69102  1.0000
  H   H516      1.0  0.63616  0.48274  0.56482  1.0000
  C   C316      1.0  0.95891  0.44577  0.73463  1.0000
  C   C317      1.0  0.60678  0.41434  0.54398  1.0000
  S   S122      1.0  0.68967  0.53284  0.56155  1.0000
  H   H517      1.0  0.93698  0.49574  0.69864  1.0000
  H   H518      1.0  0.73736  0.49388  0.66999  1.0000
  C   C318      1.0  0.94397  0.42592  0.69537  1.0000
  H   H519      1.0  0.96872  0.43931  0.75338  1.0000
  N   N32       1.0  0.95764  0.41629  0.71988  1.0000
  H   H520      1.0  0.93404  0.45925  0.73719  1.0000
  H   H521      1.0  0.91889  0.43923  0.69721  1.0000
  H   H522      1.0  0.00226  0.39193  0.73474  1.0000
  H   H523      1.0  0.91082  0.40577  0.73552  1.0000
  S   S123      1.0  0.86249  0.47434  0.75191  1.0000
  H   H524      1.0  0.56992  0.08200  0.72573  1.0000
  H   H525      1.0  0.93512  0.37123  0.72253  1.0000
  C   C319      1.0  0.99120  0.39960  0.71657  1.0000
  S   S124      1.0  0.00287  0.49550  0.67939  1.0000
  C   C320      1.0  0.93644  0.39391  0.73296  1.0000
  H   H526      1.0  0.94214  0.40426  0.68390  1.0000
  H   H527      1.0  0.94598  0.38645  0.75165  1.0000
  S   S125      1.0  0.69303  0.51038  0.63037  1.0000
  C   C321      1.0  0.54910  0.06899  0.73339  1.0000
  H   H528      1.0  0.58681  0.23258  0.76533  1.0000
  H   H529      1.0  0.91216  0.43050  0.77512  1.0000
  H   H530      1.0  0.57277  0.04940  0.77751  1.0000
  H   H531      1.0  0.58820  0.20858  0.73839  1.0000
  Fe  Fe63      1.0  0.83879  0.52548  0.74539  1.0000
  C   C322      1.0  0.97000  0.52643  0.67992  1.0000
  H   H532      1.0  0.75224  0.52534  0.70566  1.0000
  Fe  Fe64      1.0  0.56012  0.35601  0.53414  1.0000
  C   C323      1.0  0.61166  0.48006  0.53024  1.0000
  S   S126      1.0  0.54576  0.09678  0.66983  1.0000
  H   H533      1.0  0.54531  0.28869  0.71790  1.0000
  H   H534      1.0  0.54943  0.30925  0.62835  1.0000
  H   H535      1.0  0.60632  0.04667  0.75524  1.0000
  C   C324      1.0  0.73333  0.53574  0.69329  1.0000
  H   H536      1.0  0.54238  0.24582  0.72096  1.0000
  C   C325      1.0  0.89667  0.11860  0.01541  1.0000
  H   H537      1.0  0.02251  0.13047  0.97390  1.0000
  C   C326      1.0  0.58263  0.11606  0.81201  1.0000
  H   H538      1.0  0.03973  0.36454  0.97377  1.0000
  H   H539      1.0  0.03339  0.36615  0.92820  1.0000
  H   H540      1.0  0.58248  0.10701  0.83097  1.0000
  N   N33       1.0  0.01549  0.10664  0.00938  1.0000
  C   C327      1.0  0.56015  0.14242  0.80483  1.0000
  H   H541      1.0  0.98880  0.15466  0.01015  1.0000
  H   H542      1.0  0.83554  0.50370  0.79735  1.0000
  S   S127      1.0  0.97293  0.38178  0.84546  1.0000
  Fe  Fe65      1.0  0.61065  0.04307  0.83716  1.0000
  C   C328      1.0  0.03612  0.11324  0.98724  1.0000
  S   S128      1.0  0.98720  0.41799  0.89668  1.0000
  Fe  Fe66      1.0  0.00611  0.37190  0.87763  1.0000
  C   C329      1.0  0.89907  0.44471  0.78930  1.0000
  Fe  Fe67      1.0  0.95794  0.42993  0.86256  1.0000
  S   S129      1.0  0.90612  0.45402  0.86307  1.0000
  H   H543      1.0  0.73719  0.06018  0.89740  1.0000
  S   S130      1.0  0.99669  0.45580  0.84255  1.0000
  H   H544      1.0  0.93644  0.50176  0.81685  1.0000
  C   C330      1.0  0.55924  0.15372  0.78018  1.0000
  Fe  Fe68      1.0  0.78589  0.06195  0.98091  1.0000
  Fe  Fe69      1.0  0.84427  0.06310  0.01450  1.0000
  C   C331      1.0  0.00853  0.32242  0.92832  1.0000
  C   C332      1.0  0.60542  0.10178  0.79481  1.0000
  C   C333      1.0  0.72954  0.06277  0.93693  1.0000
  C   C334      1.0  0.87284  0.46778  0.78314  1.0000
  C   C335      1.0  0.89572  0.18685  0.01040  1.0000
  H   H545      1.0  0.81020  0.17214  0.02305  1.0000
  Fe  Fe70      1.0  0.02758  0.43970  0.87508  1.0000
  H   H546      1.0  0.85961  0.18363  0.98257  1.0000
  H   H547      1.0  0.88735  0.32646  0.94139  1.0000
  C   C336      1.0  0.99668  0.51217  0.89699  1.0000
  H   H548      1.0  0.86786  0.36470  0.95223  1.0000
  H   H549      1.0  0.86111  0.12328  0.98651  1.0000
  H   H550      1.0  0.86006  0.35192  0.92163  1.0000
  C   C337      1.0  0.89215  0.45824  0.83259  1.0000
  C   C338      1.0  0.90906  0.44038  0.81382  1.0000
  H   H551      1.0  0.92993  0.42319  0.81805  1.0000
  C   C339      1.0  0.02372  0.34690  0.93946  1.0000
  C   C340      1.0  0.99630  0.29742  0.94294  1.0000
  C   C341      1.0  0.72078  0.05580  0.91294  1.0000
  S   S131      1.0  0.98314  0.23521  0.02563  1.0000
  Fe  Fe71      1.0  0.01424  0.40669  0.82786  1.0000
  S   S132      1.0  0.02148  0.40360  0.78674  1.0000
  H   H552      1.0  0.98450  0.27846  0.93431  1.0000
  C   C342      1.0  0.99913  0.29697  0.96874  1.0000
  S   S133      1.0  0.02153  0.31913  0.01175  1.0000
  H   H553      1.0  0.98958  0.27767  0.97996  1.0000
  C   C343      1.0  0.87573  0.17015  0.99573  1.0000
  H   H554      1.0  0.92248  0.38312  0.96138  1.0000
  S   S134      1.0  0.89246  0.22969  0.00884  1.0000
  H   H555      1.0  0.98587  0.48977  0.89411  1.0000
  C   C344      1.0  0.86531  0.48084  0.82663  1.0000
  H   H556      1.0  0.85211  0.49480  0.84105  1.0000
  H   H557      1.0  0.93205  0.32594  0.90913  1.0000
  S   S135      1.0  0.60032  0.06715  0.87359  1.0000
  H   H558      1.0  0.94318  0.36374  0.89584  1.0000
  H   H559      1.0  0.88388  0.41698  0.93375  1.0000
  C   C345      1.0  0.85600  0.48598  0.80186  1.0000
  H   H560      1.0  0.97053  0.08548  0.01834  1.0000
  S   S136      1.0  0.76889  0.07431  0.94223  1.0000
  C   C346      1.0  0.91662  0.16933  0.02732  1.0000
  C   C347      1.0  0.87632  0.13605  0.99815  1.0000
  C   C348      1.0  0.98594  0.09185  0.00193  1.0000
  H   H561      1.0  0.94099  0.34399  0.95169  1.0000
  H   H562      1.0  0.95451  0.38062  0.93789  1.0000
  C   C349      1.0  0.01504  0.32101  0.97984  1.0000
  H   H563      1.0  0.87796  0.40397  0.90288  1.0000
  H   H564      1.0  0.91661  0.41666  0.91100  1.0000
  H   H565      1.0  0.90417  0.35053  0.88914  1.0000
  C   C350      1.0  0.02736  0.34593  0.96520  1.0000
  N   N34       1.0  0.90749  0.36906  0.92571  1.0000
  C   C351      1.0  0.93239  0.36925  0.94502  1.0000
  C   C352      1.0  0.92225  0.35151  0.90404  1.0000
  C   C353      1.0  0.89591  0.40309  0.91808  1.0000
  C   C354      1.0  0.87941  0.35232  0.93568  1.0000
  S   S137      1.0  0.80104  0.09948  0.00615  1.0000
  S   S138      1.0  0.89565  0.07630  0.01990  1.0000
  S   S139      1.0  0.00514  0.32226  0.89618  1.0000
  C   C355      1.0  0.03088  0.51200  0.89795  1.0000
  S   S140      1.0  0.63223  0.06750  0.80358  1.0000
  H   H566      1.0  0.99268  0.06900  0.99170  1.0000
  C   C356      1.0  0.00539  0.13772  0.02181  1.0000
  H   H567      1.0  0.97012  0.10890  0.98976  1.0000
  C   C357      1.0  0.03460  0.08373  0.02652  1.0000
  H   H568      1.0  0.91173  0.52597  0.79480  1.0000
  H   H569      1.0  0.95580  0.52522  0.79321  1.0000
  C   C358      1.0  0.93413  0.52541  0.80613  1.0000
  H   H570      1.0  0.02702  0.15079  0.02577  1.0000
  H   H571      1.0  0.71356  0.06476  0.97509  1.0000
  H   H572      1.0  0.96351  0.52754  0.84962  1.0000
  Fe  Fe72      1.0  0.55011  0.05074  0.87055  1.0000
  C   C359      1.0  0.70802  0.05754  0.95685  1.0000
  H   H573      1.0  0.90270  0.53025  0.85046  1.0000
  C   C360      1.0  0.69152  0.04164  0.90916  1.0000
  C   C361      1.0  0.67930  0.04269  0.95320  1.0000
  H   H574      1.0  0.66341  0.03739  0.96884  1.0000
  H   H575      1.0  0.54313  0.15352  0.81841  1.0000
  S   S141      1.0  0.75601  0.03716  0.00988  1.0000
  H   H576      1.0  0.68183  0.00533  0.04783  1.0000
  S   S142      1.0  0.57185  0.95844  0.20525  1.0000
  C   C362      1.0  0.03569  0.80839  0.23713  1.0000
  H   H577      1.0  0.63285  0.98187  0.06729  1.0000
  C   C363      1.0  0.56092  0.96027  0.23676  1.0000
  C   C364      1.0  0.56974  0.98534  0.25131  1.0000
  H   H578      1.0  0.89318  0.99367  0.03363  1.0000
  S   S143      1.0  0.02330  0.59582  0.21294  1.0000
  S   S144      1.0  0.61772  0.00315  0.15202  1.0000
  C   C365      1.0  0.96386  0.57230  0.20643  1.0000
  Fe  Fe73      1.0  0.59117  0.00380  0.18889  1.0000
  C   C366      1.0  0.90696  0.57373  0.26377  1.0000
  N   N35       1.0  0.89234  0.54393  0.27266  1.0000
  H   H579      1.0  0.02952  0.91556  0.04168  1.0000
  C   C367      1.0  0.88303  0.81764  0.14299  1.0000
  C   C368      1.0  0.84471  0.94979  0.05767  1.0000
  H   H580      1.0  0.58534  0.00297  0.24359  1.0000
  H   H581      1.0  0.00710  0.79992  0.11333  1.0000
  C   C369      1.0  0.83574  0.93377  0.03689  1.0000
  C   C370      1.0  0.03364  0.57732  0.27638  1.0000
  S   S145      1.0  0.93012  0.89884  0.07631  1.0000
  C   C371      1.0  0.55806  0.98775  0.27594  1.0000
  H   H582      1.0  0.01798  0.80475  0.22239  1.0000
  C   C372      1.0  0.92023  0.98878  0.03606  1.0000
  Fe  Fe74      1.0  0.99297  0.64076  0.22567  1.0000
  H   H583      1.0  0.86166  0.80319  0.14133  1.0000
  H   H584      1.0  0.60759  0.00499  0.08959  1.0000
  Fe  Fe75      1.0  0.92614  0.66985  0.24332  1.0000
  S   S146      1.0  0.94462  0.71669  0.25417  1.0000
  S   S147      1.0  0.87507  0.65585  0.25024  1.0000
  Fe  Fe76      1.0  0.97354  0.71319  0.21826  1.0000
  S   S148      1.0  0.98109  0.75985  0.19681  1.0000
  Fe  Fe77      1.0  0.98707  0.68441  0.26973  1.0000
  S   S149      1.0  0.95116  0.66897  0.20580  1.0000
  S   S150      1.0  0.96614  0.63784  0.26214  1.0000
  S   S151      1.0  0.01062  0.84156  0.07113  1.0000
  C   C373      1.0  0.00114  0.77910  0.12454  1.0000
  Fe  Fe78      1.0  0.99683  0.79346  0.05865  1.0000
  H   H585      1.0  0.93027  0.77186  0.12896  1.0000
  C   C374      1.0  0.88219  0.83274  0.09943  1.0000
  H   H586      1.0  0.64831  0.98803  0.09743  1.0000
  H   H587      1.0  0.94591  0.82811  0.13876  1.0000
  H   H588      1.0  0.87247  0.85843  0.10332  1.0000
  H   H589      1.0  0.89629  0.58342  0.24593  1.0000
  H   H590      1.0  0.98060  0.70410  0.16524  1.0000
  H   H591      1.0  0.89507  0.76879  0.11047  1.0000
  C   C375      1.0  0.99702  0.78179  0.15027  1.0000
  C   C376      1.0  0.99805  0.56520  0.20723  1.0000
  C   C377      1.0  0.85630  0.55126  0.27570  1.0000
  H   H592      1.0  0.03193  0.97415  0.05110  1.0000
  C   C378      1.0  0.68058  0.02262  0.06330  1.0000
  H   H593      1.0  0.83013  0.97163  0.06369  1.0000
  C   C379      1.0  0.98634  0.72506  0.15403  1.0000
  C   C380      1.0  0.99748  0.74948  0.11345  1.0000
  H   H594      1.0  0.89654  0.83366  0.08169  1.0000
  C   C381      1.0  0.98900  0.75495  0.16499  1.0000
  H   H595      1.0  0.98797  0.69928  0.11984  1.0000
  H   H596      1.0  0.92234  0.86360  0.12590  1.0000
  Fe  Fe79      1.0  0.96295  0.86226  0.05475  1.0000
  H   H597      1.0  0.93399  0.56894  0.26057  1.0000
  C   C382      1.0  0.94382  0.54710  0.20332  1.0000
  H   H598      1.0  0.93155  0.78325  0.09671  1.0000
  N   N36       1.0  0.90285  0.81794  0.11970  1.0000
  H   H599      1.0  0.95284  0.59718  0.20813  1.0000
  C   C383      1.0  0.87265  0.93758  0.07073  1.0000
  C   C384      1.0  0.89213  0.90983  0.06264  1.0000
  C   C385      1.0  0.93082  0.83741  0.12277  1.0000
  H   H600      1.0  0.87992  0.95050  0.08647  1.0000
  H   H601      1.0  0.94732  0.83671  0.10601  1.0000
  C   C386      1.0  0.91540  0.78402  0.11368  1.0000
  S   S152      1.0  0.01770  0.68467  0.23485  1.0000
  H   H602      1.0  0.89796  0.80647  0.15864  1.0000
  H   H603      1.0  0.86089  0.81869  0.09639  1.0000
  C   C387      1.0  0.01786  0.76323  0.26180  1.0000
  S   S153      1.0  0.99936  0.74625  0.08111  1.0000
  C   C388      1.0  0.99061  0.72233  0.12830  1.0000
  H   H604      1.0  0.87336  0.84287  0.14819  1.0000
  H   H605      1.0  0.99969  0.80481  0.15873  1.0000
  H   H606      1.0  0.54832  0.99327  0.13370  1.0000
  H   H607      1.0  0.91743  0.55271  0.20251  1.0000
  C   C389      1.0  0.88234  0.89284  0.04257  1.0000
  H   H608      1.0  0.84524  0.56407  0.25900  1.0000
  S   S154      1.0  0.70188  0.03224  0.16133  1.0000
  H   H609      1.0  0.92433  0.97068  0.05174  1.0000
  S   S155      1.0  0.94738  0.81381  0.04522  1.0000
  H   H610      1.0  0.00525  0.77972  0.27580  1.0000
  H   H611      1.0  0.02305  0.82635  0.25009  1.0000
  H   H612      1.0  0.99936  0.75912  0.24784  1.0000
  Fe  Fe80      1.0  0.03113  0.84733  0.03256  1.0000
  H   H613      1.0  0.92914  0.01204  0.04174  1.0000
  H   H614      1.0  0.01139  0.57502  0.26543  1.0000
  H   H615      1.0  0.89727  0.87133  0.03622  1.0000
  H   H616      1.0  0.97690  0.95037  0.03303  1.0000
  H   H617      1.0  0.90234  0.59364  0.27725  1.0000
  C   C390      1.0  0.63326  0.99992  0.08213  1.0000
  H   H618      1.0  0.69681  0.01132  0.07814  1.0000
  H   H619      1.0  0.02510  0.73933  0.27140  1.0000
  H   H620      1.0  0.62523  0.02857  0.03687  1.0000
  H   H621      1.0  0.74832  0.01216  0.12278  1.0000
  N   N37       1.0  0.64643  0.03027  0.07273  1.0000
  C   C391      1.0  0.54123  0.93724  0.24706  1.0000
  C   C392      1.0  0.73796  0.03690  0.11834  1.0000
  C   C393      1.0  0.85395  0.90472  0.02979  1.0000
  H   H622      1.0  0.68368  0.66632  0.45071  1.0000
  C   C394      1.0  0.58954  0.00879  0.38307  1.0000
  H   H623      1.0  0.57599  0.00283  0.33488  1.0000
  H   H624      1.0  0.63162  0.70185  0.46095  1.0000
  C   C395      1.0  0.64068  0.64271  0.48332  1.0000
  S   S156      1.0  0.02579  0.58931  0.43215  1.0000
  H   H625      1.0  0.69513  0.56065  0.46645  1.0000
  H   H626      1.0  0.63260  0.64195  0.46388  1.0000
  N   N38       1.0  0.66021  0.67047  0.48678  1.0000
  S   S157      1.0  0.00598  0.69217  0.30740  1.0000
  H   H627      1.0  0.60046  0.98517  0.37539  1.0000
  Fe  Fe81      1.0  0.79335  0.55617  0.40728  1.0000
  H   H628      1.0  0.02607  0.59148  0.29315  1.0000
  C   C396      1.0  0.69004  0.66692  0.47057  1.0000
  H   H629      1.0  0.70538  0.68746  0.47265  1.0000
  H   H630      1.0  0.89968  0.69104  0.28984  1.0000
  H   H631      1.0  0.68424  0.69173  0.51630  1.0000
  C   C397      1.0  0.84313  0.63593  0.29234  1.0000
  H   H632      1.0  0.61820  0.64443  0.49548  1.0000
  H   H633      1.0  0.64795  0.67287  0.52573  1.0000
  H   H634      1.0  0.90166  0.55169  0.31081  1.0000
  H   H635      1.0  0.65509  0.61891  0.48780  1.0000
  H   H636      1.0  0.03345  0.66891  0.35359  1.0000
  S   S158      1.0  0.74636  0.55507  0.43010  1.0000
  C   C398      1.0  0.66989  0.67081  0.51291  1.0000
  H   H637      1.0  0.56491  0.00719  0.28710  1.0000
  C   C399      1.0  0.56342  0.66687  0.52541  1.0000
  H   H638      1.0  0.69347  0.57628  0.51018  1.0000
  C   C400      1.0  0.95452  0.65969  0.36502  1.0000
  C   C401      1.0  0.86579  0.65619  0.28210  1.0000
  C   C402      1.0  0.93655  0.55409  0.43726  1.0000
  H   H639      1.0  0.84959  0.56682  0.29188  1.0000
  H   H640      1.0  0.65408  0.72298  0.48243  1.0000
  H   H641      1.0  0.95857  0.59490  0.45180  1.0000
  H   H642      1.0  0.68561  0.64806  0.51830  1.0000
  C   C403      1.0  0.56643  0.02619  0.34362  1.0000
  C   C404      1.0  0.64012  0.70143  0.48036  1.0000
  C   C405      1.0  0.99386  0.56403  0.43047  1.0000
  S   S159      1.0  0.86978  0.55228  0.36314  1.0000
  H   H643      1.0  0.02136  0.53826  0.31600  1.0000
  H   H644      1.0  0.96598  0.67079  0.38071  1.0000
  C   C406      1.0  0.77262  0.58264  0.47000  1.0000
  Fe  Fe82      1.0  0.83901  0.59628  0.37726  1.0000
  H   H645      1.0  0.00268  0.62095  0.38611  1.0000
  S   S160      1.0  0.85329  0.64606  0.36593  1.0000
  H   H646      1.0  0.93629  0.58863  0.39317  1.0000
  C   C407      1.0  0.71648  0.56930  0.47436  1.0000
  C   C408      1.0  0.87685  0.67335  0.32325  1.0000
  S   S161      1.0  0.79097  0.57808  0.36863  1.0000
  C   C409      1.0  0.77109  0.59326  0.49449  1.0000
  S   S162      1.0  0.83938  0.57816  0.41695  1.0000
  H   H647      1.0  0.00531  0.61407  0.35345  1.0000
  H   H648      1.0  0.95446  0.61706  0.32905  1.0000
  C   C410      1.0  0.93717  0.61549  0.39088  1.0000
  H   H649      1.0  0.60840  0.02645  0.38096  1.0000
  H   H650      1.0  0.96750  0.66698  0.34767  1.0000
  N   N39       1.0  0.95607  0.62375  0.36827  1.0000
  C   C411      1.0  0.74531  0.57047  0.45998  1.0000
  C   C412      1.0  0.96269  0.57300  0.44112  1.0000
  H   H651      1.0  0.79221  0.60271  0.50222  1.0000
  C   C413      1.0  0.85581  0.65153  0.33363  1.0000
  H   H652      1.0  0.91233  0.56126  0.44511  1.0000
  H   H653      1.0  0.92859  0.67090  0.36417  1.0000
  H   H654      1.0  0.88935  0.68851  0.33504  1.0000
  H   H655      1.0  0.91129  0.62676  0.39037  1.0000
  H   H656      1.0  0.82225  0.61620  0.32603  1.0000
  C   C414      1.0  0.71539  0.57863  0.49902  1.0000
  H   H657      1.0  0.58477  0.00459  0.40325  1.0000
  H   H658      1.0  0.94816  0.62433  0.40769  1.0000
  C   C415      1.0  0.99066  0.60985  0.37067  1.0000
  C   C416      1.0  0.88257  0.67496  0.29760  1.0000
  N   N40       1.0  0.55904  0.02117  0.37033  1.0000
  C   C417      1.0  0.74256  0.59087  0.50910  1.0000
  H   H659      1.0  0.94366  0.58267  0.34822  1.0000
  H   H660      1.0  0.91541  0.61860  0.34505  1.0000
  C   C418      1.0  0.94189  0.60984  0.34662  1.0000
  C   C419      1.0  0.83889  0.63279  0.31815  1.0000
  H   H661      1.0  0.70582  0.64383  0.47504  1.0000
  H   H662      1.0  0.99244  0.58303  0.37476  1.0000
  H   H663      1.0  0.79494  0.58371  0.45900  1.0000
  H   H664      1.0  0.61770  0.70501  0.49255  1.0000
  C   C420      1.0  0.55939  0.70103  0.52353  1.0000
  H   H665      1.0  0.55793  0.65265  0.50985  1.0000
  S   S163      1.0  0.54673  0.72070  0.49567  1.0000
  H   H666      1.0  0.82945  0.62211  0.28032  1.0000
  H   H667      1.0  0.54451  0.97272  0.36671  1.0000
  H   H668      1.0  0.54402  0.03606  0.33348  1.0000
  H   H669      1.0  0.99362  0.65755  0.75768  1.0000
  C   C421      1.0  0.57652  0.01739  0.72024  1.0000
  S   S164      1.0  0.68135  0.59660  0.59762  1.0000
  H   H670      1.0  0.58729  0.99243  0.72597  1.0000
  H   H671      1.0  0.99635  0.56295  0.66090  1.0000
  C   C422      1.0  0.81784  0.57069  0.62927  1.0000
  C   C423      1.0  0.57611  0.70358  0.56609  1.0000
  H   H672      1.0  0.60897  0.95335  0.75861  1.0000
  H   H673      1.0  0.58168  0.71784  0.58160  1.0000
  Fe  Fe83      1.0  0.62962  0.60530  0.58423  1.0000
  H   H674      1.0  0.79462  0.58852  0.58373  1.0000
  S   S165      1.0  0.59637  0.64977  0.59490  1.0000
  H   H675      1.0  0.92777  0.63343  0.74784  1.0000
  H   H676      1.0  0.74358  0.55122  0.61087  1.0000
  C   C424      1.0  0.58074  0.66940  0.56783  1.0000
  H   H677      1.0  0.94216  0.60467  0.72480  1.0000
  H   H678      1.0  0.66531  0.57270  0.64888  1.0000
  H   H679      1.0  0.78465  0.66340  0.77548  1.0000
  S   S166      1.0  0.82148  0.54667  0.70850  1.0000
  C   C425      1.0  0.91412  0.54445  0.69307  1.0000
  H   H680      1.0  0.56273  0.74583  0.54243  1.0000
  C   C426      1.0  0.69238  0.57996  0.68158  1.0000
  C   C427      1.0  0.56571  0.92774  0.75711  1.0000
  C   C428      1.0  0.68435  0.56239  0.66118  1.0000
  S   S167      1.0  0.61824  0.55331  0.59029  1.0000
  S   S168      1.0  0.64448  0.59986  0.54432  1.0000
  H   H681      1.0  0.67982  0.60399  0.68475  1.0000
  H   H682      1.0  0.59201  0.01039  0.76875  1.0000
  C   C429      1.0  0.58953  0.94304  0.76923  1.0000
  S   S169      1.0  0.74048  0.60324  0.53987  1.0000
  Fe  Fe84      1.0  0.69516  0.58629  0.55817  1.0000
  C   C430      1.0  0.97344  0.55777  0.66989  1.0000
  H   H683      1.0  0.89805  0.68784  0.76367  1.0000
  H   H684      1.0  0.83330  0.55912  0.61404  1.0000
  C   C431      1.0  0.76376  0.59340  0.64276  1.0000
  Fe  Fe85      1.0  0.63741  0.54712  0.55125  1.0000
  H   H685      1.0  0.75510  0.60607  0.59432  1.0000
  H   H686      1.0  0.85475  0.64999  0.76621  1.0000
  H   H687      1.0  0.82861  0.59341  0.63409  1.0000
  N   N41       1.0  0.96801  0.64758  0.72489  1.0000
  N   N42       1.0  0.78312  0.57770  0.62208  1.0000
  Fe  Fe86      1.0  0.85174  0.58719  0.71692  1.0000
  S   S170      1.0  0.81081  0.61766  0.73595  1.0000
  S   S171      1.0  0.88594  0.60721  0.68856  1.0000
  C   C432      1.0  0.57392  0.65106  0.54760  1.0000
  C   C433      1.0  0.99738  0.63168  0.71192  1.0000
  H   H688      1.0  0.59676  0.03054  0.71183  1.0000
  S   S172      1.0  0.72960  0.59048  0.72113  1.0000
  H   H689      1.0  0.92355  0.67775  0.71587  1.0000
  C   C434      1.0  0.97832  0.67049  0.74295  1.0000
  H   H690      1.0  0.94950  0.60642  0.66320  1.0000
  H   H691      1.0  0.71875  0.69100  0.75277  1.0000
  H   H692      1.0  0.95675  0.68403  0.75223  1.0000
  H   H693      1.0  0.76543  0.57760  0.65988  1.0000
  H   H694      1.0  0.99298  0.68910  0.73387  1.0000
  H   H695      1.0  0.01447  0.61779  0.72508  1.0000
  C   C435      1.0  0.56549  0.71939  0.54393  1.0000
  H   H696      1.0  0.74413  0.65495  0.74352  1.0000
  C   C436      1.0  0.78105  0.59988  0.59995  1.0000
  C   C437      1.0  0.94692  0.58234  0.67119  1.0000
  H   H697      1.0  0.95885  0.68526  0.69667  1.0000
  C   C438      1.0  0.94622  0.66585  0.70672  1.0000
  S   S173      1.0  0.79574  0.54947  0.76688  1.0000
  S   S174      1.0  0.87180  0.56424  0.75222  1.0000
  Fe  Fe87      1.0  0.67152  0.54394  0.60018  1.0000
  C   C439      1.0  0.95021  0.62234  0.73796  1.0000
  H   H698      1.0  0.93819  0.64942  0.69267  1.0000
  H   H699      1.0  0.99080  0.61412  0.69817  1.0000
  H   H700      1.0  0.73722  0.59816  0.63833  1.0000
  H   H701      1.0  0.96604  0.60819  0.75176  1.0000
  Fe  Fe88      1.0  0.78189  0.57511  0.73090  1.0000
  C   C440      1.0  0.91752  0.57584  0.68339  1.0000
  C   C441      1.0  0.71725  0.56687  0.69738  1.0000
  H   H702      1.0  0.55883  0.01435  0.70547  1.0000
  H   H703      1.0  0.70205  0.65215  0.75208  1.0000
  H   H704      1.0  0.82021  0.55376  0.64581  1.0000
  H   H705      1.0  0.77262  0.61714  0.64726  1.0000
  H   H706      1.0  0.75976  0.61103  0.77427  1.0000
  C   C442      1.0  0.72418  0.66428  0.75668  1.0000
  C   C443      1.0  0.76973  0.54680  0.61639  1.0000
  H   H707      1.0  0.01145  0.64996  0.70178  1.0000
  H   H708      1.0  0.55055  0.02783  0.66208  1.0000
  H   H709      1.0  0.55029  0.70391  0.62295  1.0000
  H   H710      1.0  0.79140  0.62327  0.60334  1.0000
  H   H711      1.0  0.57629  0.62465  0.54917  1.0000
  S   S175      1.0  0.56489  0.92912  0.72466  1.0000
  Fe  Fe89      1.0  0.82737  0.59018  0.77049  1.0000
  C   C444      1.0  0.54132  0.91346  0.77100  1.0000
  C   C445      1.0  0.58381  0.03541  0.76155  1.0000
  H   H712      1.0  0.89154  0.53902  0.70233  1.0000
  N   N43       1.0  0.56027  0.03502  0.74136  1.0000
  Fe  Fe90      1.0  0.57652  0.98360  0.85264  1.0000
  S   S176      1.0  0.55917  0.03052  0.83282  1.0000
  S   S177      1.0  0.55888  0.93669  0.84096  1.0000
  S   S178      1.0  0.62921  0.99400  0.85396  1.0000
  Fe  Fe91      1.0  0.02195  0.70584  0.87007  1.0000
  C   C446      1.0  0.76366  0.67279  0.78771  1.0000
  S   S179      1.0  0.63953  0.00925  0.92634  1.0000
  H   H713      1.0  0.60525  0.95894  0.80429  1.0000
  C   C447      1.0  0.56294  0.93193  0.80887  1.0000
  Fe  Fe92      1.0  0.61363  0.01701  0.89019  1.0000
  H   H714      1.0  0.00891  0.62757  0.94286  1.0000
  N   N44       1.0  0.93721  0.97665  0.01315  1.0000
  S   S180      1.0  0.56214  0.00256  0.89020  1.0000
  S   S181      1.0  0.98457  0.87272  0.01712  1.0000
  H   H715      1.0  0.94454  0.99354  0.97550  1.0000
  S   S182      1.0  0.80355  0.95139  0.01861  1.0000
  C   C448      1.0  0.70652  0.67023  0.79946  1.0000
  H   H716      1.0  0.71048  0.93972  0.93175  1.0000
  C   C449      1.0  0.89155  0.67682  0.78132  1.0000
  H   H717      1.0  0.90807  0.58755  0.79650  1.0000
  H   H718      1.0  0.89637  0.95090  0.00337  1.0000
  H   H719      1.0  0.96310  0.64883  0.97123  1.0000
  C   C450      1.0  0.93051  0.58426  0.80788  1.0000
  Fe  Fe93      1.0  0.98855  0.64363  0.87414  1.0000
  S   S183      1.0  0.96879  0.69635  0.87007  1.0000
  S   S184      1.0  0.96507  0.60822  0.89974  1.0000
  Fe  Fe94      1.0  0.97799  0.68924  0.82946  1.0000
  C   C451      1.0  0.67147  0.03394  0.92948  1.0000
  H   H720      1.0  0.68346  0.65897  0.79611  1.0000
  H   H721      1.0  0.98404  0.99117  0.02311  1.0000
  S   S185      1.0  0.99262  0.63539  0.83344  1.0000
  H   H722      1.0  0.78274  0.91265  0.94152  1.0000
  H   H723      1.0  0.70810  0.94728  0.97665  1.0000
  H   H724      1.0  0.96680  0.66933  0.92752  1.0000
  C   C452      1.0  0.96150  0.55072  0.83826  1.0000
  Fe  Fe95      1.0  0.97331  0.82200  0.00883  1.0000
  C   C453      1.0  0.92349  0.94667  0.00573  1.0000
  S   S186      1.0  0.94791  0.81152  0.97409  1.0000
  C   C454      1.0  0.02305  0.64741  0.94922  1.0000
  H   H725      1.0  0.71780  0.60878  0.78336  1.0000
  H   H726      1.0  0.99769  0.69584  0.91869  1.0000
  H   H727      1.0  0.96151  0.68992  0.98199  1.0000
  H   H728      1.0  0.79109  0.97604  0.96706  1.0000
  H   H729      1.0  0.76494  0.00259  0.94739  1.0000
  C   C455      1.0  0.89947  0.66931  0.82544  1.0000
  C   C456      1.0  0.02061  0.70268  0.96357  1.0000
  H   H730      1.0  0.71647  0.98897  0.97189  1.0000
  H   H731      1.0  0.03542  0.69490  0.98009  1.0000
  N   N45       1.0  0.93209  0.55339  0.82277  1.0000
  H   H732      1.0  0.86695  0.63849  0.84481  1.0000
  H   H733      1.0  0.75990  0.69980  0.78475  1.0000
  C   C457      1.0  0.00863  0.79428  0.95252  1.0000
  C   C458      1.0  0.97452  0.79500  0.95061  1.0000
  C   C459      1.0  0.96145  0.78153  0.93006  1.0000
  C   C460      1.0  0.98243  0.76626  0.91195  1.0000
  H   H734      1.0  0.93506  0.78252  0.92832  1.0000
  H   H735      1.0  0.97218  0.75586  0.89620  1.0000
  H   H736      1.0  0.92975  0.60569  0.81996  1.0000
  H   H737      1.0  0.71282  0.66512  0.81922  1.0000
  C   C461      1.0  0.90850  0.68295  0.80251  1.0000
  H   H738      1.0  0.94250  0.02492  0.99811  1.0000
  C   C462      1.0  0.97847  0.66821  0.97653  1.0000
  C   C463      1.0  0.98141  0.68851  0.93428  1.0000
  H   H739      1.0  0.94990  0.54167  0.89829  1.0000
  H   H740      1.0  0.74198  0.96219  0.99186  1.0000
  C   C464      1.0  0.77588  0.97688  0.95026  1.0000
  H   H741      1.0  0.99236  0.65913  0.99323  1.0000
  C   C465      1.0  0.87376  0.64918  0.82709  1.0000
  S   S187      1.0  0.83176  0.02786  0.98644  1.0000
  H   H742      1.0  0.71915  0.98107  0.92636  1.0000
  H   H743      1.0  0.74710  0.90265  0.95931  1.0000
  S   S188      1.0  0.82918  0.61311  0.80725  1.0000
  H   H744      1.0  0.90578  0.00844  0.98962  1.0000
  H   H745      1.0  0.91234  0.67422  0.84189  1.0000
  N   N46       1.0  0.75016  0.95415  0.95297  1.0000
  H   H746      1.0  0.77169  0.66758  0.80710  1.0000
  C   C466      1.0  0.73991  0.62148  0.78692  1.0000
  C   C467      1.0  0.73077  0.95583  0.93020  1.0000
  C   C468      1.0  0.93240  0.00195  0.99316  1.0000
  C   C469      1.0  0.72821  0.96350  0.97431  1.0000
  H   H747      1.0  0.90000  0.57411  0.85167  1.0000
  H   H748      1.0  0.00462  0.72537  0.96827  1.0000
  H   H749      1.0  0.96050  0.57129  0.85128  1.0000
  C   C470      1.0  0.76580  0.92045  0.95719  1.0000
  C   C471      1.0  0.01654  0.76435  0.91439  1.0000
  H   H750      1.0  0.70110  0.69720  0.79681  1.0000
  H   H751      1.0  0.87950  0.55531  0.82783  1.0000
  C   C472      1.0  0.97271  0.96907  0.01772  1.0000
  C   C473      1.0  0.97631  0.54157  0.89934  1.0000
  H   H752      1.0  0.95235  0.58510  0.79526  1.0000
  C   C474      1.0  0.85806  0.64168  0.80566  1.0000
  C   C475      1.0  0.99020  0.57104  0.90141  1.0000
  C   C476      1.0  0.86688  0.65555  0.78279  1.0000
  S   S189      1.0  0.02168  0.79709  0.02128  1.0000
  H   H753      1.0  0.03516  0.59327  0.90528  1.0000
  N   N47       1.0  0.73357  0.65723  0.78269  1.0000
  S   S190      1.0  0.94236  0.70565  0.79979  1.0000
  H   H754      1.0  0.74638  0.94862  0.91370  1.0000
  C   C477      1.0  0.02429  0.57073  0.90317  1.0000
  H   H755      1.0  0.92819  0.92669  0.01992  1.0000
  H   H756      1.0  0.79266  0.97095  0.93413  1.0000
  Fe  Fe96      1.0  0.80295  0.00603  0.01746  1.0000
  H   H757      1.0  0.01891  0.80534  0.96797  1.0000
  H   H758      1.0  0.96392  0.71023  0.93870  1.0000
  H   H759      1.0  0.84701  0.89220  0.01374  1.0000
  H   H760      1.0  0.78053  0.91844  0.97434  1.0000
  N   N48       1.0  0.00091  0.67668  0.95595  1.0000
  H   H761      1.0  0.98450  0.55121  0.82683  1.0000
  H   H762      1.0  0.93481  0.93739  0.98803  1.0000
  C   C478      1.0  0.58752  0.94608  0.79505  1.0000
  C   C479      1.0  0.02959  0.77907  0.93440  1.0000
  H   H763      1.0  0.74790  0.61506  0.80616  1.0000
  C   C480      1.0  0.90228  0.55324  0.83889  1.0000
  H   H764      1.0  0.68545  0.03502  0.89075  1.0000
  S   S191      1.0  0.02963  0.70336  0.82878  1.0000
  H   H765      1.0  0.98631  0.95905  0.00105  1.0000
  H   H766      1.0  0.03798  0.63747  0.96517  1.0000
  H   H767      1.0  0.03797  0.70947  0.94844  1.0000
  S   S192      1.0  0.04099  0.65333  0.87720  1.0000
  H   H768      1.0  0.04043  0.65321  0.93385  1.0000
