data_image0
_chemical_formula_structural       HCH3CH3SFeH2NCH2CH4SHC2H2SHCHC3FeS2FeH8SHCHNH4CHCS2HCHC2H2CH2S2CH2C2HFeHSCSFeHSC6H4CH2FeH4S3CHNHCSHCH2FeHSCFeCH2FeCNCH4C2HCH2CH3NSHCFeSFeC2H2S2H2NH3C4H2CH2CFeNHC3FeSCHSH2CSH3CH3CH2SFeHS3CH2C2H2CHSCHSC2HS2C3HC2H5CFeHCHC2HCHCHNHCHCH9SHNHFeHSCHFeSFeCSHSHSFeSH2CH2SHFeC6H7CHCH4C3HCSFeS2FeSFeCSH2CHSCSH3CH2NHC3SCH3C2H3CH2CFeH5SC2H2C2HCH3CH2FeHC2SHCFeHCH2C2H3NHCSH3CH2SC2HNCHNHFeC4HCH2SCSHSH2FeSH2CHCHSCHFeH5CHNSH2SCHCFeHSFeH2SC6H3CNH2CH2CH3SHCNHCSH2CHCH3CH4CH2C2HCHC2HCS2H2CHSH2SH2C4HSC2SH3SH2SCH2C2HSH2SHSHFeSFeSHCSCSCFeSH2CHCH5CFeHNHCHC6H5C2SCHCH3CHCHCH8NH2CH2CH3CFeCHC2H4CHCHFeSCS2C3FeH2SH2SHCSHNFeCH4CHFeCH4CH5FeHFeS2CSCH2C4HCHCH3CH2CHNH2FeS2HFe2H2CFeSCHCSCFeSCHSC6HSH6CHCHCSHSFeC2HCHSCHCSH3CHCSH4SCH3FeH2CHNCFeH5CSHNHCSC3HCHCSCH3FeH2FeCSH3NHC2HCS3H2FeC2HSHFeC2HFeSH4C3H2FeCNFeHSHFeHS2C6H3C3H2CH5SCH5NH2CH2C4HFeSH2CHCH2CH3SHCH2C2NHFeH2NSCHCHC2H2CH3SCH7SC2HSFeC3SC2SCSNFeSH8C4H3NH2C2HC3SH5CHFeHSH3C2NC2HCH2FeHC2SFeH2CH2C5FeSCH3SHS2H2NH2FeHCSNH3C2HFeH3C2HSC2H2FeHSH2FeCH3CH2CHSH8CH2CH2S2CSHC3HCHFeSHFeSFeSH3FeS2H2FeCS2H4CSCH5CSHCSCSHC6H2C3HFeHFeHCNC2NCH3C2H3SHCHFeH3FeH2C4NHCH6FeCH2CH2CHCHCH4CSCHS2CH4SCH5CH2CSH2CHC3NH2SFeCH2C2H2SH6FeHSHCH2NHFeS2HCH4C3H4CH3C3NC2FeCSCH4CHS2CSN2FeC2FeSHCH2FeH3SHFeCH6CHCH3SC7H4CH4C2H3CSCNH2FeSH3CHC2SHSH2NCHCHC2H3C2H2S2C2H5C5HCHNCHCHSH2SHSC2H6CSH2CH2C2H5C2H2C2SHNHCH4C2SFeHNH3C4H4C2HSHCFeH2CH3NCS3CSC3HCH2SCH4S2H2CFeHC2NCHC2HCH2C2NCSCSHFeH3SCHCH3CH2FeH2C2HFeSHFeHFeNH2CSHCHCH2C2H3C2H6FeHNHCHC2NH2FeHCFeS2C2FeH2SC6H7CH2CFeCHCSH3SHS3H8NH7CSH3SHFeS2CHCSCH3CHSCHC4FeH3CFeHCNCHC4H5C2S2H2FeC4FeCH3FeHCH3CH2C2HSFeSHSC2FeSFe2S3CHC2NHCH5CH2C2HC3H2NCNHCHCH2FeH4CH2CHCSCH2CHSH2SCH2CHSFeH2CHSH3SCHSH3SHSHC6H3SHC4HFeH5FeNCFeCHCH2CHC3HS2H5CFeCH2C2H2SC2SHCHNC3FeH9CH2CSH3CH2CHC4HNHSH2CHC4H3FeSCH2CHCH2CSH2NHSCH2C2S2H2CHSH2CH2C3HSCH2CH
_chemical_formula_sum              "H960 C600 S240 Fe120 N60"
_cell_length_a       54.4708
_cell_length_b       54.9421
_cell_length_c       50.7365
_cell_angle_alpha    80.1265
_cell_angle_beta     83.0562
_cell_angle_gamma    80.4302

_space_group_name_H-M_alt    "P 1"
_space_group_IT_number       1

loop_
  _space_group_symop_operation_xyz
  'x, y, z'

loop_
  _atom_site_type_symbol
  _atom_site_label
  _atom_site_symmetry_multiplicity
  _atom_site_fract_x
  _atom_site_fract_y
  _atom_site_fract_z
  _atom_site_occupancy
  H   H1        1.0  0.02938  0.15385  0.49428  1.0000
  C   C1        1.0  0.03210  0.26172  0.42109  1.0000
  H   H2        1.0  0.06488  0.25878  0.48712  1.0000
  H   H3        1.0  0.24857  0.43750  0.09421  1.0000
  H   H4        1.0  0.07116  0.24619  0.41863  1.0000
  C   C2        1.0  0.05301  0.24514  0.42975  1.0000
  H   H5        1.0  0.09580  0.31480  0.48150  1.0000
  H   H6        1.0  0.22137  0.48301  0.02237  1.0000
  H   H7        1.0  0.06680  0.21514  0.46002  1.0000
  S   S1        1.0  0.03554  0.28572  0.39398  1.0000
  Fe  Fe1       1.0  0.18389  0.49397  0.15121  1.0000
  H   H8        1.0  0.16174  0.02399  0.50072  1.0000
  H   H9        1.0  0.07713  0.28532  0.44419  1.0000
  N   N1        1.0  0.06237  0.29879  0.48125  1.0000
  C   C3        1.0  0.02716  0.22663  0.46777  1.0000
  H   H10       1.0  0.12103  0.05175  0.50457  1.0000
  H   H11       1.0  0.15793  0.07260  0.48856  1.0000
  C   C4        1.0  0.05057  0.22767  0.45322  1.0000
  H   H12       1.0  0.12321  0.01090  0.48901  1.0000
  H   H13       1.0  0.04525  0.47688  0.21200  1.0000
  H   H14       1.0  0.08109  0.43222  0.16935  1.0000
  H   H15       1.0  0.03369  0.27535  0.48602  1.0000
  S   S2        1.0  0.02370  0.20630  0.49806  1.0000
  H   H16       1.0  0.19872  0.05113  0.50385  1.0000
  C   C5        1.0  0.06453  0.30137  0.45160  1.0000
  C   C6        1.0  0.08732  0.29778  0.49040  1.0000
  H   H17       1.0  0.05325  0.43118  0.22572  1.0000
  H   H18       1.0  0.08368  0.41405  0.21774  1.0000
  S   S3        1.0  0.15980  0.48935  0.19081  1.0000
  H   H19       1.0  0.11150  0.47000  0.18301  1.0000
  C   C7        1.0  0.05227  0.27552  0.49302  1.0000
  H   H20       1.0  0.04606  0.30214  0.44399  1.0000
  C   C8        1.0  0.23712  0.46722  0.02325  1.0000
  C   C9        1.0  0.07127  0.44991  0.17596  1.0000
  C   C10       1.0  0.10658  0.45410  0.19848  1.0000
  Fe  Fe2       1.0  0.19025  0.48331  0.09388  1.0000
  S   S4        1.0  0.20187  0.46018  0.13247  1.0000
  S   S5        1.0  0.17715  0.46721  0.06118  1.0000
  Fe  Fe3       1.0  0.23579  0.47945  0.12384  1.0000
  H   H21       1.0  0.05079  0.44933  0.17769  1.0000
  H   H22       1.0  0.03767  0.41177  0.30207  1.0000
  H   H23       1.0  0.01569  0.46792  0.37219  1.0000
  H   H24       1.0  0.10049  0.28123  0.48486  1.0000
  H   H25       1.0  0.25137  0.47170  0.03488  1.0000
  H   H26       1.0  0.11343  0.45643  0.21755  1.0000
  H   H27       1.0  0.07195  0.31879  0.44194  1.0000
  H   H28       1.0  0.07911  0.43458  0.24259  1.0000
  S   S6        1.0  0.02818  0.46002  0.26992  1.0000
  H   H29       1.0  0.07100  0.47985  0.22928  1.0000
  C   C11       1.0  0.06582  0.47692  0.20961  1.0000
  H   H30       1.0  0.07529  0.46555  0.15972  1.0000
  N   N2        1.0  0.07937  0.45328  0.20171  1.0000
  H   H31       1.0  0.22954  0.45062  0.03516  1.0000
  H   H32       1.0  0.11746  0.43670  0.19218  1.0000
  H   H33       1.0  0.01387  0.42598  0.36190  1.0000
  H   H34       1.0  0.06978  0.49336  0.19444  1.0000
  C   C12       1.0  0.02044  0.15011  0.47709  1.0000
  H   H35       1.0  0.12139  0.49381  0.23420  1.0000
  C   C13       1.0  0.07368  0.43227  0.22278  1.0000
  S   S7        1.0  0.12342  0.11359  0.50537  1.0000
  S   S8        1.0  0.09933  0.18661  0.49888  1.0000
  H   H36       1.0  0.03021  0.37968  0.50636  1.0000
  C   C14       1.0  0.16584  0.07911  0.50413  1.0000
  H   H37       1.0  0.05228  0.33840  0.48110  1.0000
  C   C15       1.0  0.04541  0.32049  0.48999  1.0000
  C   C16       1.0  0.01767  0.41774  0.30340  1.0000
  H   H38       1.0  0.03171  0.13327  0.46994  1.0000
  H   H39       1.0  0.02634  0.32181  0.48361  1.0000
  C   C17       1.0  0.16731  0.49122  0.03552  1.0000
  H   H40       1.0  0.02202  0.16637  0.46082  1.0000
  H   H41       1.0  0.01439  0.45545  0.40745  1.0000
  S   S9        1.0  0.01326  0.38130  0.45443  1.0000
  S   S10       1.0  0.22569  0.49980  0.08370  1.0000
  C   C18       1.0  0.11972  0.00240  0.51042  1.0000
  H   H42       1.0  0.15139  0.48664  0.79649  1.0000
  H   H43       1.0  0.22145  0.05297  0.63360  1.0000
  C   C19       1.0  0.15731  0.01447  0.52153  1.0000
  C   C20       1.0  0.07238  0.23582  0.62952  1.0000
  H   H44       1.0  0.15464  0.12509  0.54294  1.0000
  Fe  Fe4       1.0  0.10471  0.14797  0.52294  1.0000
  H   H45       1.0  0.05249  0.39749  0.61990  1.0000
  S   S11       1.0  0.06390  0.14898  0.53667  1.0000
  C   C21       1.0  0.18729  0.09695  0.54291  1.0000
  S   S12       1.0  0.08357  0.32909  0.57911  1.0000
  Fe  Fe5       1.0  0.10529  0.19930  0.53713  1.0000
  H   H46       1.0  0.19563  0.10406  0.55775  1.0000
  S   S13       1.0  0.06471  0.20433  0.55227  1.0000
  C   C22       1.0  0.11698  0.25620  0.54831  1.0000
  C   C23       1.0  0.13046  0.27635  0.54380  1.0000
  C   C24       1.0  0.12021  0.29875  0.55333  1.0000
  C   C25       1.0  0.09654  0.30095  0.56762  1.0000
  C   C26       1.0  0.08322  0.28071  0.57243  1.0000
  C   C27       1.0  0.09336  0.25844  0.56265  1.0000
  H   H47       1.0  0.14881  0.27468  0.53277  1.0000
  H   H48       1.0  0.13064  0.31432  0.54958  1.0000
  H   H49       1.0  0.06516  0.28210  0.58383  1.0000
  H   H50       1.0  0.08305  0.24296  0.56653  1.0000
  C   C28       1.0  0.02013  0.38182  0.68823  1.0000
  H   H51       1.0  0.21349  0.47189  0.97702  1.0000
  H   H52       1.0  0.06090  0.24670  0.64445  1.0000
  Fe  Fe6       1.0  0.23756  0.01978  0.54028  1.0000
  H   H53       1.0  0.09649  0.18658  0.67380  1.0000
  H   H54       1.0  0.02083  0.17505  0.57364  1.0000
  H   H55       1.0  0.10978  0.21434  0.65959  1.0000
  H   H56       1.0  0.04370  0.20038  0.63083  1.0000
  S   S14       1.0  0.13004  0.22855  0.53579  1.0000
  S   S15       1.0  0.04187  0.30423  0.64221  1.0000
  S   S16       1.0  0.11402  0.16052  0.55999  1.0000
  C   C29       1.0  0.16403  0.10889  0.53454  1.0000
  H   H57       1.0  0.17455  0.46740  0.00511  1.0000
  N   N3        1.0  0.24778  0.46252  0.99605  1.0000
  H   H58       1.0  0.25951  0.08960  0.61954  1.0000
  C   C30       1.0  0.02970  0.38908  0.70964  1.0000
  S   S17       1.0  0.22828  0.06065  0.54373  1.0000
  H   H59       1.0  0.11147  0.20322  0.61364  1.0000
  C   C31       1.0  0.09189  0.20655  0.66478  1.0000
  H   H60       1.0  0.08064  0.21663  0.68052  1.0000
  H   H61       1.0  0.08969  0.24436  0.62282  1.0000
  Fe  Fe7       1.0  0.07277  0.16456  0.57168  1.0000
  H   H62       1.0  0.06133  0.23837  0.61190  1.0000
  S   S18       1.0  0.05472  0.15075  0.61227  1.0000
  C   C32       1.0  0.05455  0.19861  0.64852  1.0000
  Fe  Fe8       1.0  0.05926  0.18863  0.51608  1.0000
  C   C33       1.0  0.01933  0.42402  0.66402  1.0000
  H   H63       1.0  0.04160  0.41923  0.72477  1.0000
  H   H64       1.0  0.11342  0.35939  0.60283  1.0000
  Fe  Fe9       1.0  0.04560  0.32598  0.60084  1.0000
  C   C34       1.0  0.02666  0.14320  0.60479  1.0000
  N   N4        1.0  0.07815  0.20912  0.64084  1.0000
  C   C35       1.0  0.09371  0.19552  0.62049  1.0000
  H   H65       1.0  0.16600  0.02342  0.53543  1.0000
  H   H66       1.0  0.08364  0.19677  0.60247  1.0000
  H   H67       1.0  0.05808  0.17839  0.65688  1.0000
  H   H68       1.0  0.09763  0.04385  0.53129  1.0000
  C   C36       1.0  0.22835  0.45575  0.98184  1.0000
  C   C37       1.0  0.02881  0.43133  0.68545  1.0000
  H   H69       1.0  0.04222  0.20855  0.66369  1.0000
  C   C38       1.0  0.01480  0.39939  0.66550  1.0000
  H   H70       1.0  0.03399  0.37549  0.72722  1.0000
  H   H71       1.0  0.22579  0.07300  0.60183  1.0000
  C   C39       1.0  0.19958  0.07574  0.53232  1.0000
  H   H72       1.0  0.12700  0.36198  0.63258  1.0000
  H   H73       1.0  0.07027  0.37959  0.59565  1.0000
  H   H74       1.0  0.22765  0.04014  0.60279  1.0000
  N   N5        1.0  0.13006  0.01567  0.52855  1.0000
  S   S19       1.0  0.22752  0.46701  0.90739  1.0000
  H   H75       1.0  0.09067  0.34638  0.66157  1.0000
  C   C40       1.0  0.11814  0.04211  0.52563  1.0000
  Fe  Fe10      1.0  0.06615  0.48971  0.76280  1.0000
  S   S20       1.0  0.10553  0.48564  0.77451  1.0000
  Fe  Fe11      1.0  0.03608  0.47743  0.72082  1.0000
  C   C41       1.0  0.25681  0.48529  0.98082  1.0000
  C   C42       1.0  0.01791  0.12129  0.61784  1.0000
  H   H76       1.0  0.07848  0.40909  0.59930  1.0000
  H   H77       1.0  0.12606  0.05280  0.53852  1.0000
  S   S21       1.0  0.04803  0.45639  0.76014  1.0000
  S   S22       1.0  0.03496  0.46211  0.68255  1.0000
  H   H78       1.0  0.07843  0.34276  0.63142  1.0000
  H   H79       1.0  0.02784  0.10952  0.63373  1.0000
  N   N6        1.0  0.08857  0.37899  0.63108  1.0000
  H   H80       1.0  0.05955  0.36061  0.65480  1.0000
  H   H81       1.0  0.09641  0.41353  0.64048  1.0000
  H   H82       1.0  0.10255  0.38689  0.66615  1.0000
  C   C43       1.0  0.18891  0.06693  0.51277  1.0000
  C   C44       1.0  0.16893  0.48632  0.00917  1.0000
  C   C45       1.0  0.08977  0.39584  0.65055  1.0000
  C   C46       1.0  0.07892  0.35620  0.64536  1.0000
  H   H83       1.0  0.09841  0.17525  0.62828  1.0000
  H   H84       1.0  0.12176  0.38873  0.60685  1.0000
  C   C47       1.0  0.07173  0.39187  0.61058  1.0000
  H   H85       1.0  0.23630  0.44960  0.96242  1.0000
  H   H86       1.0  0.21929  0.44020  0.99397  1.0000
  C   C48       1.0  0.11384  0.37200  0.61778  1.0000
  Fe  Fe12      1.0  0.01335  0.47818  0.77812  1.0000
  N   N7        1.0  0.25959  0.05116  0.61599  1.0000
  H   H87       1.0  0.07105  0.40102  0.66125  1.0000
  C   C49       1.0  0.23241  0.05448  0.61358  1.0000
  C   C50       1.0  0.13720  0.50027  0.80478  1.0000
  C   C51       1.0  0.03392  0.41383  0.70833  1.0000
  Fe  Fe13      1.0  0.01314  0.33682  0.65146  1.0000
  S   S23       1.0  0.01484  0.35079  0.69051  1.0000
  C   C52       1.0  0.25902  0.46949  0.90868  1.0000
  H   H88       1.0  0.13351  0.01262  0.57082  1.0000
  S   S24       1.0  0.01941  0.35979  0.61084  1.0000
  H   H89       1.0  0.05020  0.27306  0.51537  1.0000
  H   H90       1.0  0.25527  0.06921  0.65103  1.0000
  C   C53       1.0  0.01413  0.15810  0.58385  1.0000
  S   S25       1.0  0.01662  0.30904  0.58562  1.0000
  H   H91       1.0  0.01524  0.43753  0.64632  1.0000
  H   H92       1.0  0.04356  0.31946  0.51225  1.0000
  H   H93       1.0  0.25721  0.02328  0.65130  1.0000
  C   C54       1.0  0.15314  0.09988  0.51530  1.0000
  H   H94       1.0  0.08620  0.29646  0.51261  1.0000
  H   H95       1.0  0.24141  0.50140  0.97902  1.0000
  H   H96       1.0  0.10484  0.00455  0.56289  1.0000
  C   C55       1.0  0.12522  0.00361  0.55666  1.0000
  H   H97       1.0  0.09919  0.00280  0.51513  1.0000
  H   H98       1.0  0.16637  0.50224  0.96756  1.0000
  S   S26       1.0  0.05849  0.56377  0.20146  1.0000
  Fe  Fe14      1.0  0.20616  0.53003  0.10638  1.0000
  H   H99       1.0  0.05267  0.57799  0.28399  1.0000
  S   S27       1.0  0.20932  0.56939  0.08699  1.0000
  S   S28       1.0  0.01335  0.63819  0.46054  1.0000
  S   S29       1.0  0.21918  0.51123  0.14609  1.0000
  C   C56       1.0  0.08661  0.60857  0.28334  1.0000
  H   H100      1.0  0.10036  0.63068  0.49886  1.0000
  H   H101      1.0  0.07457  0.75856  0.48997  1.0000
  C   C57       1.0  0.01771  0.62249  0.34984  1.0000
  C   C58       1.0  0.13293  0.51169  0.19450  1.0000
  H   H102      1.0  0.19619  0.80720  0.50508  1.0000
  H   H103      1.0  0.06185  0.60517  0.22588  1.0000
  C   C59       1.0  0.02171  0.63894  0.32602  1.0000
  H   H104      1.0  0.02104  0.62725  0.36881  1.0000
  S   S30       1.0  0.01960  0.70939  0.43234  1.0000
  C   C60       1.0  0.15322  0.53501  0.01994  1.0000
  H   H105      1.0  0.01982  0.64552  0.28319  1.0000
  S   S31       1.0  0.07097  0.82932  0.50157  1.0000
  C   C61       1.0  0.23970  0.57653  0.08538  1.0000
  C   C62       1.0  0.24753  0.59480  0.06481  1.0000
  H   H106      1.0  0.10619  0.78463  0.49467  1.0000
  S   S32       1.0  0.03491  0.52684  0.27060  1.0000
  S   S33       1.0  0.03316  0.66709  0.32597  1.0000
  C   C63       1.0  0.08734  0.54403  0.19937  1.0000
  C   C64       1.0  0.09378  0.52479  0.22035  1.0000
  C   C65       1.0  0.09216  0.69401  0.48353  1.0000
  H   H107      1.0  0.13966  0.53444  0.15616  1.0000
  C   C66       1.0  0.12693  0.53157  0.17401  1.0000
  C   C67       1.0  0.10424  0.54779  0.17651  1.0000
  H   H108      1.0  0.08119  0.52203  0.23832  1.0000
  H   H109      1.0  0.11948  0.57590  0.25750  1.0000
  H   H110      1.0  0.20114  0.94919  0.50888  1.0000
  H   H111      1.0  0.09956  0.56291  0.16038  1.0000
  H   H112      1.0  0.14682  0.55375  0.02429  1.0000
  C   C68       1.0  0.15925  0.51554  0.04088  1.0000
  Fe  Fe15      1.0  0.03107  0.67986  0.36641  1.0000
  H   H113      1.0  0.25025  0.55004  0.12010  1.0000
  C   C69       1.0  0.15331  0.91967  0.49904  1.0000
  H   H114      1.0  0.11532  0.60591  0.23643  1.0000
  C   C70       1.0  0.06507  0.61362  0.24337  1.0000
  C   C71       1.0  0.07087  0.57359  0.27192  1.0000
  H   H115      1.0  0.09486  0.62599  0.27586  1.0000
  C   C72       1.0  0.10616  0.58927  0.24505  1.0000
  H   H116      1.0  0.23467  0.60483  0.05069  1.0000
  C   C73       1.0  0.10554  0.64979  0.49601  1.0000
  H   H117      1.0  0.20697  0.62879  0.01397  1.0000
  N   N8        1.0  0.08219  0.59629  0.26094  1.0000
  H   H118      1.0  0.10825  0.69588  0.46792  1.0000
  C   C74       1.0  0.25631  0.56396  0.10396  1.0000
  H   H119      1.0  0.15741  0.51939  0.06117  1.0000
  C   C75       1.0  0.01720  0.63261  0.30159  1.0000
  H   H120      1.0  0.05594  0.64928  0.51017  1.0000
  H   H121      1.0  0.07266  0.63129  0.23529  1.0000
  H   H122      1.0  0.06886  0.61380  0.29585  1.0000
  H   H123      1.0  0.07666  0.70894  0.47689  1.0000
  H   H124      1.0  0.09955  0.59604  0.29690  1.0000
  H   H125      1.0  0.08327  0.55993  0.28513  1.0000
  H   H126      1.0  0.04645  0.61848  0.25430  1.0000
  H   H127      1.0  0.07119  0.64584  0.46329  1.0000
  H   H128      1.0  0.10653  0.79297  0.44872  1.0000
  S   S34       1.0  0.05528  0.66610  0.40030  1.0000
  H   H129      1.0  0.06725  0.56406  0.25548  1.0000
  N   N9        1.0  0.08454  0.66894  0.48714  1.0000
  H   H130      1.0  0.02655  0.88114  0.47868  1.0000
  Fe  Fe16      1.0  0.02791  0.54781  0.22977  1.0000
  H   H131      1.0  0.09335  0.66539  0.44534  1.0000
  S   S35       1.0  0.03392  0.72018  0.36679  1.0000
  C   C76       1.0  0.07752  0.66439  0.46141  1.0000
  H   H132      1.0  0.05469  0.76242  0.39099  1.0000
  Fe  Fe17      1.0  0.05420  0.70660  0.40360  1.0000
  S   S36       1.0  0.08740  0.71986  0.41604  1.0000
  Fe  Fe18      1.0  0.01938  0.66973  0.42712  1.0000
  C   C77       1.0  0.17521  0.93067  0.49348  1.0000
  S   S37       1.0  0.07744  0.88561  0.46987  1.0000
  H   H133      1.0  0.04982  0.80770  0.39402  1.0000
  S   S38       1.0  0.12585  0.84080  0.47221  1.0000
  H   H134      1.0  0.02251  0.81867  0.43974  1.0000
  S   S39       1.0  0.14377  0.90555  0.47410  1.0000
  Fe  Fe19      1.0  0.08643  0.84614  0.46104  1.0000
  S   S40       1.0  0.07241  0.83520  0.42523  1.0000
  H   H135      1.0  0.20828  0.84538  0.47450  1.0000
  H   H136      1.0  0.06189  0.67872  0.45426  1.0000
  C   C78       1.0  0.11659  0.50877  0.21799  1.0000
  H   H137      1.0  0.16450  0.82221  0.50970  1.0000
  H   H138      1.0  0.10328  0.58005  0.22794  1.0000
  S   S41       1.0  0.16944  0.51547  0.11309  1.0000
  H   H139      1.0  0.18553  0.93097  0.47383  1.0000
  Fe  Fe20      1.0  0.11548  0.87877  0.48508  1.0000
  C   C79       1.0  0.08342  0.75198  0.41817  1.0000
  C   C80       1.0  0.09816  0.76073  0.43431  1.0000
  C   C81       1.0  0.09497  0.78626  0.43651  1.0000
  C   C82       1.0  0.07734  0.80322  0.42226  1.0000
  C   C83       1.0  0.06310  0.79456  0.40555  1.0000
  C   C84       1.0  0.06582  0.76895  0.40383  1.0000
  H   H140      1.0  0.11199  0.74776  0.44523  1.0000
  H   H141      1.0  0.21982  0.57309  0.02417  1.0000
  H   H142      1.0  0.02224  0.77823  0.48971  1.0000
  H   H143      1.0  0.12218  0.65036  0.48095  1.0000
  H   H144      1.0  0.19105  0.58976  0.03717  1.0000
  H   H145      1.0  0.01568  0.75393  0.47322  1.0000
  H   H146      1.0  0.17596  0.85866  0.47825  1.0000
  C   C85       1.0  0.06282  0.66761  0.50755  1.0000
  H   H147      1.0  0.19920  0.87548  0.48526  1.0000
  C   C86       1.0  0.19407  0.85640  0.48717  1.0000
  H   H148      1.0  0.19052  0.56500  0.01854  1.0000
  H   H149      1.0  0.09755  0.69820  0.50255  1.0000
  H   H150      1.0  0.01324  0.78547  0.41687  1.0000
  H   H151      1.0  0.04692  0.68231  0.50171  1.0000
  C   C87       1.0  0.20033  0.58094  0.01964  1.0000
  C   C88       1.0  0.01946  0.77359  0.46988  1.0000
  C   C89       1.0  0.08240  0.75665  0.50895  1.0000
  H   H152      1.0  0.03756  0.77419  0.45714  1.0000
  C   C90       1.0  0.26096  0.62661  0.94235  1.0000
  S   S42       1.0  0.20962  0.53213  0.86177  1.0000
  Fe  Fe21      1.0  0.17399  0.54502  0.92990  1.0000
  S   S43       1.0  0.17560  0.57474  0.89408  1.0000
  S   S44       1.0  0.15158  0.55530  0.96725  1.0000
  Fe  Fe22      1.0  0.16850  0.54493  0.87179  1.0000
  S   S45       1.0  0.13391  0.55567  0.84930  1.0000
  Fe  Fe23      1.0  0.21614  0.55888  0.88834  1.0000
  C   C91       1.0  0.14386  0.51570  0.82136  1.0000
  S   S46       1.0  0.21510  0.53202  0.92674  1.0000
  H   H153      1.0  0.05390  0.83196  0.56404  1.0000
  H   H154      1.0  0.10952  0.60226  0.71541  1.0000
  C   C92       1.0  0.11246  0.50280  0.79836  1.0000
  H   H155      1.0  0.01886  0.61191  0.61583  1.0000
  S   S47       1.0  0.05746  0.63523  0.63647  1.0000
  C   C93       1.0  0.09425  0.52038  0.80930  1.0000
  S   S48       1.0  0.02686  0.66717  0.57457  1.0000
  H   H156      1.0  0.25501  0.50844  0.89144  1.0000
  H   H157      1.0  0.09206  0.55727  0.69934  1.0000
  H   H158      1.0  0.17083  0.85112  0.55286  1.0000
  C   C94       1.0  0.12011  0.56263  0.75392  1.0000
  H   H159      1.0  0.11126  0.65275  0.51543  1.0000
  H   H160      1.0  0.08740  0.60484  0.74450  1.0000
  N   N10       1.0  0.09944  0.56732  0.73643  1.0000
  H   H161      1.0  0.23433  0.61143  0.99891  1.0000
  C   C95       1.0  0.04307  0.61671  0.66359  1.0000
  C   C96       1.0  0.05172  0.59107  0.66858  1.0000
  C   C97       1.0  0.04016  0.57576  0.68980  1.0000
  S   S49       1.0  0.10193  0.86441  0.52758  1.0000
  C   C98       1.0  0.15638  0.53036  0.99344  1.0000
  H   H162      1.0  0.06710  0.58296  0.65567  1.0000
  H   H163      1.0  0.04646  0.55596  0.69294  1.0000
  H   H164      1.0  0.07757  0.59863  0.71412  1.0000
  C   C99       1.0  0.12586  0.53412  0.83108  1.0000
  C   C100      1.0  0.10103  0.53632  0.82515  1.0000
  H   H165      1.0  0.12300  0.91125  0.52883  1.0000
  H   H166      1.0  0.06368  0.56872  0.94846  1.0000
  H   H167      1.0  0.08702  0.55052  0.83265  1.0000
  C   C101      1.0  0.21676  0.84024  0.52605  1.0000
  H   H168      1.0  0.11177  0.53361  0.71936  1.0000
  H   H169      1.0  0.17235  0.62362  0.97149  1.0000
  C   C102      1.0  0.21432  0.61905  0.99649  1.0000
  Fe  Fe24      1.0  0.03220  0.66848  0.61735  1.0000
  H   H170      1.0  0.13356  0.98353  0.55943  1.0000
  H   H171      1.0  0.08635  0.54234  0.88549  1.0000
  H   H172      1.0  0.12847  0.98239  0.51218  1.0000
  H   H173      1.0  0.11469  0.57125  0.77252  1.0000
  H   H174      1.0  0.08075  0.53722  0.75743  1.0000
  S   S50       1.0  0.24891  0.58001  0.88010  1.0000
  C   C103      1.0  0.09325  0.59445  0.72722  1.0000
  C   C104      1.0  0.07718  0.55785  0.75166  1.0000
  H   H175      1.0  0.07156  0.56620  0.77037  1.0000
  H   H176      1.0  0.06082  0.56216  0.73963  1.0000
  C   C105      1.0  0.18324  0.81983  0.51722  1.0000
  C   C106      1.0  0.02493  0.80150  0.55091  1.0000
  H   H177      1.0  0.20018  0.57101  0.96972  1.0000
  C   C107      1.0  0.14004  0.91944  0.52445  1.0000
  H   H178      1.0  0.01436  0.82203  0.61136  1.0000
  H   H179      1.0  0.01521  0.77025  0.59643  1.0000
  H   H180      1.0  0.03992  0.78892  0.54075  1.0000
  C   C108      1.0  0.23885  0.62127  0.90533  1.0000
  H   H181      1.0  0.06751  0.67059  0.52739  1.0000
  H   H182      1.0  0.10067  0.57853  0.89850  1.0000
  Fe  Fe25      1.0  0.20668  0.50591  0.90077  1.0000
  H   H183      1.0  0.21578  0.83134  0.54751  1.0000
  C   C109      1.0  0.10097  0.53004  0.95027  1.0000
  C   C110      1.0  0.17356  0.61028  0.99062  1.0000
  S   S51       1.0  0.22923  0.99423  0.57858  1.0000
  H   H184      1.0  0.11258  0.52226  0.89886  1.0000
  C   C111      1.0  0.24326  0.63593  0.92386  1.0000
  Fe  Fe26      1.0  0.02232  0.52669  0.74230  1.0000
  H   H185      1.0  0.21018  0.59943  0.95228  1.0000
  C   C112      1.0  0.10698  0.56621  0.91700  1.0000
  H   H186      1.0  0.13700  0.57024  0.74340  1.0000
  H   H187      1.0  0.12402  0.56075  0.70104  1.0000
  C   C113      1.0  0.16413  0.50600  0.98800  1.0000
  C   C114      1.0  0.10718  0.55420  0.71297  1.0000
  H   H188      1.0  0.12580  0.54226  0.76037  1.0000
  H   H189      1.0  0.10042  0.54099  0.96696  1.0000
  H   H190      1.0  0.22394  0.85830  0.52477  1.0000
  N   N11       1.0  0.03082  0.80330  0.57814  1.0000
  H   H191      1.0  0.08166  0.51531  0.91016  1.0000
  C   C115      1.0  0.10018  0.77148  0.51160  1.0000
  S   S52       1.0  0.05760  0.50878  0.72142  1.0000
  H   H192      1.0  0.07040  0.80074  0.56647  1.0000
  H   H193      1.0  0.02303  0.82018  0.53802  1.0000
  H   H194      1.0  0.21393  0.63342  0.97811  1.0000
  C   C116      1.0  0.02302  0.62709  0.68008  1.0000
  H   H195      1.0  0.23349  0.65482  0.92330  1.0000
  H   H196      1.0  0.03694  0.77894  0.61554  1.0000
  S   S53       1.0  0.18143  0.95381  0.56383  1.0000
  C   C117      1.0  0.17096  0.94054  0.53880  1.0000
  C   C118      1.0  0.03287  0.77828  0.59472  1.0000
  H   H197      1.0  0.10667  0.57796  0.93291  1.0000
  N   N12       1.0  0.19203  0.84416  0.51552  1.0000
  C   C119      1.0  0.09300  0.53079  0.90425  1.0000
  H   H198      1.0  0.06004  0.81441  0.59637  1.0000
  N   N13       1.0  0.19973  0.59913  0.99456  1.0000
  H   H199      1.0  0.12683  0.55850  0.91206  1.0000
  Fe  Fe27      1.0  0.21706  0.97059  0.55207  1.0000
  C   C120      1.0  0.07394  0.74033  0.53110  1.0000
  C   C121      1.0  0.08459  0.73756  0.55540  1.0000
  C   C122      1.0  0.10231  0.75262  0.55810  1.0000
  C   C123      1.0  0.10942  0.77019  0.53635  1.0000
  H   H200      1.0  0.05773  0.56933  0.91425  1.0000
  C   C124      1.0  0.14886  0.92987  0.54428  1.0000
  H   H201      1.0  0.07883  0.72428  0.57228  1.0000
  H   H202      1.0  0.10959  0.75146  0.57727  1.0000
  S   S54       1.0  0.03998  0.70812  0.60904  1.0000
  C   C125      1.0  0.17401  0.86026  0.53166  1.0000
  S   S55       1.0  0.04904  0.72491  0.52814  1.0000
  H   H203      1.0  0.15558  0.86481  0.52324  1.0000
  S   S56       1.0  0.02807  0.87688  0.53573  1.0000
  H   H204      1.0  0.13859  0.92956  0.56394  1.0000
  H   H205      1.0  0.04802  0.76498  0.58597  1.0000
  Fe  Fe28      1.0  0.03095  0.70756  0.56721  1.0000
  S   S57       1.0  0.12623  0.79344  0.54075  1.0000
  H   H206      1.0  0.16187  0.59568  0.98984  1.0000
  H   H207      1.0  0.23082  0.82797  0.51449  1.0000
  C   C126      1.0  0.21064  0.58630  0.97158  1.0000
  H   H208      1.0  0.18131  0.81004  0.53833  1.0000
  C   C127      1.0  0.06534  0.55711  0.93218  1.0000
  H   H209      1.0  0.05316  0.54240  0.93899  1.0000
  S   S58       1.0  0.16520  0.51582  0.90834  1.0000
  C   C128      1.0  0.05483  0.81300  0.57622  1.0000
  H   H210      1.0  0.16494  0.62055  0.00735  1.0000
  Fe  Fe29      1.0  0.06474  0.86796  0.51148  1.0000
  H   H211      1.0  0.08985  0.51456  0.95764  1.0000
  H   H212      1.0  0.22597  0.62897  0.89031  1.0000
  H   H213      1.0  0.18064  0.87833  0.53193  1.0000
  H   H214      1.0  0.07506  0.52216  0.80502  1.0000
  H   H215      1.0  0.23050  0.57799  0.97371  1.0000
  C   C129      1.0  0.02029  0.58610  0.70653  1.0000
  H   H216      1.0  0.01651  0.64697  0.67658  1.0000
  N   N14       1.0  0.09159  0.54601  0.92593  1.0000
  S   S59       1.0  0.25508  0.94807  0.54730  1.0000
  H   H217      1.0  0.12078  0.52146  0.94638  1.0000
  H   H218      1.0  0.16307  0.51389  0.82585  1.0000
  S   S60       1.0  0.22233  0.99777  0.51419  1.0000
  C   C130      1.0  0.25169  0.59699  0.90564  1.0000
  H   H219      1.0  0.01523  0.59278  0.59159  1.0000
  C   C131      1.0  0.18408  0.94099  0.51332  1.0000
  Fe  Fe30      1.0  0.10951  0.82719  0.51370  1.0000
  H   H220      1.0  0.16676  0.99480  0.52271  1.0000
  S   S61       1.0  0.03232  0.50986  0.78392  1.0000
  Fe  Fe31      1.0  0.26140  0.97687  0.51113  1.0000
  H   H221      1.0  0.40267  0.09677  0.32296  1.0000
  H   H222      1.0  0.35593  0.49798  0.06486  1.0000
  S   S62       1.0  0.48198  0.28572  0.02297  1.0000
  C   C132      1.0  0.44296  0.04317  0.27854  1.0000
  C   C133      1.0  0.45761  0.04613  0.29824  1.0000
  C   C134      1.0  0.47780  0.05954  0.29108  1.0000
  C   C135      1.0  0.48409  0.06898  0.26416  1.0000
  C   C136      1.0  0.46937  0.06614  0.24450  1.0000
  C   C137      1.0  0.44848  0.05372  0.25179  1.0000
  H   H223      1.0  0.31986  0.03539  0.44304  1.0000
  H   H224      1.0  0.47390  0.07368  0.22372  1.0000
  H   H225      1.0  0.43704  0.05167  0.23651  1.0000
  C   C138      1.0  0.49600  0.00611  0.36350  1.0000
  N   N15       1.0  0.36357  0.33175  0.02912  1.0000
  H   H226      1.0  0.48874  0.06246  0.30632  1.0000
  H   H227      1.0  0.34364  0.05290  0.34856  1.0000
  C   C139      1.0  0.35253  0.09957  0.32856  1.0000
  H   H228      1.0  0.35632  0.07704  0.37996  1.0000
  H   H229      1.0  0.28811  0.01195  0.47085  1.0000
  C   C140      1.0  0.39522  0.07929  0.32208  1.0000
  H   H230      1.0  0.37522  0.03814  0.34412  1.0000
  H   H231      1.0  0.46712  0.01525  0.22250  1.0000
  H   H232      1.0  0.39364  0.07842  0.30057  1.0000
  S   S63       1.0  0.36000  0.02094  0.40409  1.0000
  H   H233      1.0  0.38298  0.29661  0.04720  1.0000
  C   C141      1.0  0.36190  0.05462  0.33639  1.0000
  N   N16       1.0  0.37096  0.07804  0.33848  1.0000
  H   H234      1.0  0.38801  0.06259  0.37501  1.0000
  C   C142      1.0  0.47384  0.01098  0.20270  1.0000
  S   S64       1.0  0.27571  0.46116  0.12588  1.0000
  H   H235      1.0  0.35876  0.11760  0.32983  1.0000
  H   H236      1.0  0.38077  0.09607  0.36943  1.0000
  C   C143      1.0  0.31976  0.01605  0.44130  1.0000
  H   H237      1.0  0.45339  0.03825  0.31897  1.0000
  C   C144      1.0  0.37416  0.07859  0.36690  1.0000
  H   H238      1.0  0.34967  0.09963  0.30718  1.0000
  H   H239      1.0  0.40954  0.06333  0.32912  1.0000
  H   H240      1.0  0.47984  0.00696  0.35276  1.0000
  C   C145      1.0  0.48492  0.02851  0.18363  1.0000
  H   H241      1.0  0.33402  0.09911  0.34053  1.0000
  H   H242      1.0  0.44853  0.32846  0.03762  1.0000
  H   H243      1.0  0.35728  0.36322  0.05042  1.0000
  H   H244      1.0  0.38962  0.35097  0.04306  1.0000
  C   C146      1.0  0.37063  0.34568  0.04883  1.0000
  H   H245      1.0  0.35975  0.05316  0.31520  1.0000
  H   H246      1.0  0.33931  0.41949  0.06547  1.0000
  C   C147      1.0  0.27672  0.41890  0.06762  1.0000
  C   C148      1.0  0.31129  0.43645  0.09332  1.0000
  H   H247      1.0  0.33844  0.47339  0.06409  1.0000
  C   C149      1.0  0.28568  0.44205  0.10111  1.0000
  H   H248      1.0  0.32417  0.34195  0.03951  1.0000
  C   C150      1.0  0.33752  0.00430  0.42334  1.0000
  C   C151      1.0  0.33835  0.32498  0.03782  1.0000
  H   H249      1.0  0.31210  0.49057  0.10147  1.0000
  C   C152      1.0  0.30227  0.41420  0.05913  1.0000
  S   S65       1.0  0.41799  0.02600  0.28686  1.0000
  S   S66       1.0  0.39809  0.47353  0.02546  1.0000
  H   H250      1.0  0.33221  0.31474  0.02326  1.0000
  H   H251      1.0  0.33782  0.31294  0.05784  1.0000
  C   C153      1.0  0.31954  0.42317  0.07184  1.0000
  H   H252      1.0  0.32472  0.44284  0.10359  1.0000
  S   S67       1.0  0.42315  0.01479  0.36543  1.0000
  H   H253      1.0  0.29298  0.48264  0.06092  1.0000
  H   H254      1.0  0.48675  0.04638  0.18875  1.0000
  S   S68       1.0  0.31245  0.39792  0.03196  1.0000
  H   H255      1.0  0.40104  0.31342  0.02037  1.0000
  H   H256      1.0  0.37073  0.33441  0.06926  1.0000
  C   C154      1.0  0.38191  0.30886  0.02735  1.0000
  C   C155      1.0  0.30185  0.00281  0.45708  1.0000
  C   C156      1.0  0.49369  0.02283  0.15800  1.0000
  C   C157      1.0  0.34015  0.49315  0.05574  1.0000
  H   H257      1.0  0.34565  0.49396  0.03381  1.0000
  S   S69       1.0  0.38398  0.40668  0.01592  1.0000
  C   C158      1.0  0.44918  0.32929  0.01608  1.0000
  C   C159      1.0  0.26837  0.43339  0.08812  1.0000
  S   S70       1.0  0.50078  0.10106  0.17713  1.0000
  H   H258      1.0  0.49804  0.15825  0.05378  1.0000
  H   H259      1.0  0.37700  0.29777  0.01285  1.0000
  H   H260      1.0  0.48702  0.00979  0.26179  1.0000
  S   S71       1.0  0.51027  0.04332  0.13533  1.0000
  H   H261      1.0  0.51171  0.11598  0.04096  1.0000
  H   H262      1.0  0.26330  0.41169  0.05814  1.0000
  S   S72       1.0  0.51115  0.08306  0.25553  1.0000
  C   C160      1.0  0.29596  0.50163  0.05060  1.0000
  H   H263      1.0  0.51105  0.03568  0.33597  1.0000
  H   H264      1.0  0.29981  0.50090  0.02869  1.0000
  C   C161      1.0  0.26763  0.02612  0.63104  1.0000
  C   C162      1.0  0.27316  0.05362  0.58885  1.0000
  H   H265      1.0  0.29360  0.05247  0.58978  1.0000
  S   S73       1.0  0.42472  0.00665  0.72951  1.0000
  H   H266      1.0  0.40286  0.01309  0.90463  1.0000
  H   H267      1.0  0.26268  0.42417  0.00920  1.0000
  S   S74       1.0  0.37291  0.03803  0.70614  1.0000
  H   H268      1.0  0.47775  0.19064  0.87589  1.0000
  S   S75       1.0  0.42419  0.02944  0.66543  1.0000
  H   H269      1.0  0.28789  0.02332  0.63402  1.0000
  Fe  Fe32      1.0  0.41302  0.04346  0.70468  1.0000
  S   S76       1.0  0.42871  0.07647  0.71310  1.0000
  Fe  Fe33      1.0  0.38497  0.02043  0.66881  1.0000
  S   S77       1.0  0.36382  0.03126  0.63171  1.0000
  H   H270      1.0  0.42273  0.03518  0.88782  1.0000
  C   C163      1.0  0.49688  0.17416  0.93426  1.0000
  S   S78       1.0  0.49529  0.07435  0.87881  1.0000
  C   C164      1.0  0.48904  0.08755  0.65081  1.0000
  S   S79       1.0  0.47466  0.12613  0.83963  1.0000
  C   C165      1.0  0.42266  0.01645  0.90048  1.0000
  Fe  Fe34      1.0  0.47508  0.08494  0.84166  1.0000
  S   S80       1.0  0.44328  0.06541  0.83632  1.0000
  H   H271      1.0  0.42816  0.01447  0.84774  1.0000
  H   H272      1.0  0.34916  0.36466  0.00298  1.0000
  C   C166      1.0  0.46537  0.31173  0.97574  1.0000
  H   H273      1.0  0.47005  0.08200  0.65623  1.0000
  C   C167      1.0  0.48736  0.00270  0.64957  1.0000
  H   H274      1.0  0.48670  0.19308  0.80171  1.0000
  H   H275      1.0  0.48887  0.02093  0.73408  1.0000
  H   H276      1.0  0.27768  0.43794  0.97816  1.0000
  H   H277      1.0  0.50782  0.22010  0.86874  1.0000
  H   H278      1.0  0.47231  0.00244  0.90083  1.0000
  C   C168      1.0  0.50160  0.19990  0.81048  1.0000
  Fe  Fe35      1.0  0.49811  0.11530  0.87464  1.0000
  H   H279      1.0  0.47061  0.00351  0.63978  1.0000
  N   N17       1.0  0.49965  0.09226  0.67463  1.0000
  H   H280      1.0  0.48227  0.36666  0.98160  1.0000
  C   C169      1.0  0.50630  0.15793  0.91563  1.0000
  H   H281      1.0  0.46549  0.02036  0.86886  1.0000
  C   C170      1.0  0.43721  0.07038  0.80244  1.0000
  C   C171      1.0  0.44949  0.08711  0.78356  1.0000
  C   C172      1.0  0.44603  0.08963  0.75623  1.0000
  C   C173      1.0  0.43047  0.07526  0.74764  1.0000
  C   C174      1.0  0.41769  0.05900  0.76659  1.0000
  C   C175      1.0  0.42103  0.05659  0.79397  1.0000
  H   H282      1.0  0.46156  0.09824  0.79001  1.0000
  H   H283      1.0  0.45564  0.10252  0.74178  1.0000
  H   H284      1.0  0.40516  0.04830  0.76018  1.0000
  H   H285      1.0  0.41113  0.04393  0.80848  1.0000
  H   H286      1.0  0.26457  0.01099  0.62024  1.0000
  C   C176      1.0  0.47203  0.22858  0.83407  1.0000
  C   C177      1.0  0.49848  0.37690  0.98023  1.0000
  S   S81       1.0  0.48854  0.13523  0.91096  1.0000
  C   C178      1.0  0.48152  0.02618  0.75413  1.0000
  H   H287      1.0  0.50659  0.34053  0.94944  1.0000
  C   C179      1.0  0.36329  0.34759  0.00246  1.0000
  H   H288      1.0  0.49263  0.00414  0.81910  1.0000
  H   H289      1.0  0.49548  0.39336  0.96416  1.0000
  H   H290      1.0  0.31092  0.00578  0.57338  1.0000
  C   C180      1.0  0.26887  0.44179  0.99826  1.0000
  H   H291      1.0  0.45604  0.22343  0.82554  1.0000
  C   C181      1.0  0.27541  0.44895  0.91986  1.0000
  H   H292      1.0  0.33900  0.03274  0.58499  1.0000
  C   C182      1.0  0.50500  0.01836  0.63846  1.0000
  H   H293      1.0  0.47941  0.17183  0.94637  1.0000
  H   H294      1.0  0.46107  0.02557  0.75647  1.0000
  H   H295      1.0  0.35861  0.33756  0.98689  1.0000
  H   H296      1.0  0.48211  0.06388  0.70096  1.0000
  H   H297      1.0  0.46490  0.23454  0.85385  1.0000
  H   H298      1.0  0.50806  0.21559  0.79585  1.0000
  H   H299      1.0  0.49050  0.11678  0.70438  1.0000
  H   H300      1.0  0.48233  0.13068  0.67125  1.0000
  N   N18       1.0  0.49404  0.00919  0.77597  1.0000
  H   H301      1.0  0.48575  0.03600  0.80332  1.0000
  H   H302      1.0  0.26915  0.43094  0.92579  1.0000
  C   C183      1.0  0.43537  0.34950  0.00070  1.0000
  H   H303      1.0  0.50172  0.03137  0.62021  1.0000
  H   H304      1.0  0.47658  0.29704  0.96602  1.0000
  C   C184      1.0  0.50098  0.06948  0.69497  1.0000
  H   H305      1.0  0.38177  0.35373  0.99547  1.0000
  H   H306      1.0  0.28376  0.44606  0.00920  1.0000
  H   H307      1.0  0.27194  0.49057  0.99056  1.0000
  C   C185      1.0  0.45139  0.33176  0.96043  1.0000
  Fe  Fe36      1.0  0.38363  0.44795  0.00295  1.0000
  C   C186      1.0  0.50928  0.19417  0.93630  1.0000
  H   H308      1.0  0.47819  0.24507  0.82049  1.0000
  C   C187      1.0  0.46424  0.31042  0.00358  1.0000
  C   C188      1.0  0.29157  0.49549  0.90467  1.0000
  H   H309      1.0  0.42962  0.01746  0.91995  1.0000
  H   H310      1.0  0.50865  0.07236  0.71336  1.0000
  H   H311      1.0  0.48395  0.04589  0.75406  1.0000
  H   H312      1.0  0.49568  0.15149  0.00699  1.0000
  C   C189      1.0  0.26731  0.49262  0.90066  1.0000
  H   H313      1.0  0.26663  0.07181  0.57645  1.0000
  C   C190      1.0  0.26520  0.07047  0.63045  1.0000
  H   H314      1.0  0.45214  0.33257  0.93888  1.0000
  Fe  Fe37      1.0  0.35428  0.45052  0.95546  1.0000
  S   S82       1.0  0.33719  0.47991  0.92368  1.0000
  C   C191      1.0  0.43633  0.35062  0.97285  1.0000
  S   S83       1.0  0.41925  0.37534  0.95283  1.0000
  S   S84       1.0  0.35195  0.40957  0.96346  1.0000
  C   C192      1.0  0.48345  0.11309  0.68595  1.0000
  C   C193      1.0  0.30765  0.47527  0.91687  1.0000
  C   C194      1.0  0.29965  0.45191  0.92419  1.0000
  Fe  Fe38      1.0  0.39219  0.40453  0.97182  1.0000
  H   H315      1.0  0.31211  0.43611  0.93312  1.0000
  H   H316      1.0  0.49787  0.38396  0.99963  1.0000
  S   S85       1.0  0.39536  0.44515  0.95957  1.0000
  H   H317      1.0  0.28562  0.06837  0.63261  1.0000
  H   H318      1.0  0.40619  0.49019  0.96847  1.0000
  S   S86       1.0  0.34264  0.45615  0.99802  1.0000
  H   H319      1.0  0.46399  0.10896  0.69148  1.0000
  C   C195      1.0  0.33513  0.01618  0.59879  1.0000
  S   S87       1.0  0.50956  0.07987  0.81333  1.0000
  H   H320      1.0  0.50098  0.07214  0.64154  1.0000
  N   N19       1.0  0.49269  0.20744  0.83701  1.0000
  Fe  Fe39      1.0  0.51126  0.12006  0.81428  1.0000
  C   C196      1.0  0.48365  0.18611  0.85527  1.0000
  H   H321      1.0  0.27022  0.03869  0.57775  1.0000
  H   H322      1.0  0.46735  0.18039  0.84797  1.0000
  H   H323      1.0  0.50128  0.20734  0.94973  1.0000
  H   H324      1.0  0.48735  0.10438  0.63508  1.0000
  C   C197      1.0  0.48338  0.01647  0.80219  1.0000
  H   H325      1.0  0.46297  0.01552  0.80569  1.0000
  Fe  Fe40      1.0  0.34395  0.41474  0.00667  1.0000
  C   C198      1.0  0.34574  0.01043  0.62336  1.0000
  H   H326      1.0  0.50977  0.32792  0.99831  1.0000
  H   H327      1.0  0.26446  0.48249  0.96005  1.0000
  H   H328      1.0  0.49846  0.16948  0.85710  1.0000
  H   H329      1.0  0.42432  0.36432  0.01029  1.0000
  C   C199      1.0  0.38749  0.52469  0.01875  1.0000
  H   H330      1.0  0.36379  0.67825  0.10885  1.0000
  H   H331      1.0  0.38445  0.95658  0.21524  1.0000
  H   H332      1.0  0.44028  0.64973  0.03598  1.0000
  H   H333      1.0  0.32830  0.98846  0.50402  1.0000
  H   H334      1.0  0.27812  0.61354  0.04576  1.0000
  Fe  Fe41      1.0  0.47322  0.77377  0.03533  1.0000
  H   H335      1.0  0.33174  0.93577  0.49301  1.0000
  Fe  Fe42      1.0  0.32718  0.61205  0.03400  1.0000
  S   S88       1.0  0.32008  0.59232  0.07606  1.0000
  S   S89       1.0  0.49576  0.73689  0.02826  1.0000
  C   C200      1.0  0.50995  0.90382  0.33172  1.0000
  S   S90       1.0  0.38343  0.98595  0.34212  1.0000
  C   C201      1.0  0.34301  0.65600  0.07567  1.0000
  H   H336      1.0  0.29346  0.56014  0.11642  1.0000
  H   H337      1.0  0.33033  0.67195  0.08313  1.0000
  C   C202      1.0  0.37599  0.66263  0.10021  1.0000
  C   C203      1.0  0.49574  0.84768  0.14433  1.0000
  C   C204      1.0  0.48054  0.98207  0.17065  1.0000
  C   C205      1.0  0.28875  0.58738  0.08072  1.0000
  H   H338      1.0  0.33108  0.64259  0.07194  1.0000
  C   C206      1.0  0.31131  0.50994  0.09038  1.0000
  H   H339      1.0  0.49752  0.99552  0.13138  1.0000
  C   C207      1.0  0.49084  0.90616  0.37682  1.0000
  H   H340      1.0  0.50726  0.94765  0.34985  1.0000
  H   H341      1.0  0.35245  0.66336  0.05593  1.0000
  H   H342      1.0  0.32427  0.53640  0.02548  1.0000
  C   C208      1.0  0.38731  0.68950  0.02024  1.0000
  H   H343      1.0  0.33462  0.64813  0.12933  1.0000
  H   H344      1.0  0.36730  0.93725  0.28836  1.0000
  C   C209      1.0  0.34784  0.63338  0.12030  1.0000
  H   H345      1.0  0.33667  0.61912  0.11686  1.0000
  N   N20       1.0  0.36131  0.64392  0.09495  1.0000
  H   H346      1.0  0.36102  0.62412  0.13539  1.0000
  H   H347      1.0  0.35090  0.97023  0.40711  1.0000
  Fe  Fe43      1.0  0.41873  0.00177  0.32709  1.0000
  S   S91       1.0  0.28021  0.96055  0.47493  1.0000
  S   S92       1.0  0.46584  0.77650  0.13609  1.0000
  H   H348      1.0  0.39022  0.65417  0.11446  1.0000
  Fe  Fe44      1.0  0.47490  0.76306  0.09572  1.0000
  Fe  Fe45      1.0  0.47107  0.72125  0.06374  1.0000
  H   H349      1.0  0.38883  0.63093  0.06440  1.0000
  H   H350      1.0  0.48814  0.83673  0.18700  1.0000
  C   C210      1.0  0.33731  0.97936  0.42104  1.0000
  Fe  Fe46      1.0  0.44448  0.97663  0.37644  1.0000
  S   S93       1.0  0.41107  0.95947  0.39594  1.0000
  C   C211      1.0  0.49375  0.84202  0.11885  1.0000
  H   H351      1.0  0.47885  0.96413  0.16557  1.0000
  C   C212      1.0  0.41255  0.70811  0.04553  1.0000
  S   S94       1.0  0.49942  0.78182  0.06244  1.0000
  C   C213      1.0  0.39102  0.70952  0.03235  1.0000
  Fe  Fe47      1.0  0.40909  0.95066  0.35475  1.0000
  S   S95       1.0  0.40313  0.91255  0.34924  1.0000
  C   C214      1.0  0.48336  0.82096  0.11620  1.0000
  H   H352      1.0  0.35033  0.97459  0.47969  1.0000
  S   S96       1.0  0.49554  0.85487  0.28594  1.0000
  C   C215      1.0  0.42920  0.89656  0.33222  1.0000
  C   C216      1.0  0.44298  0.90937  0.31086  1.0000
  C   C217      1.0  0.46249  0.89635  0.29592  1.0000
  C   C218      1.0  0.46957  0.87066  0.30333  1.0000
  C   C219      1.0  0.45632  0.85787  0.32526  1.0000
  C   C220      1.0  0.43578  0.87072  0.33931  1.0000
  H   H353      1.0  0.43802  0.92917  0.30500  1.0000
  S   S97       1.0  0.45780  0.68465  0.06253  1.0000
  H   H354      1.0  0.46162  0.83796  0.33103  1.0000
  H   H355      1.0  0.42513  0.86066  0.35579  1.0000
  H   H356      1.0  0.40850  0.91573  0.27518  1.0000
  H   H357      1.0  0.37567  0.56451  0.01287  1.0000
  H   H358      1.0  0.47014  0.79905  0.18233  1.0000
  H   H359      1.0  0.35465  0.96605  0.26881  1.0000
  C   C221      1.0  0.40883  0.92779  0.25518  1.0000
  H   H360      1.0  0.33466  0.54296  0.05534  1.0000
  C   C222      1.0  0.43046  0.68665  0.04666  1.0000
  H   H361      1.0  0.36111  0.98884  0.50459  1.0000
  C   C223      1.0  0.47532  0.80506  0.13901  1.0000
  S   S98       1.0  0.47774  0.89148  0.21689  1.0000
  H   H362      1.0  0.48439  0.88773  0.37834  1.0000
  S   S99       1.0  0.44695  0.75770  0.06888  1.0000
  Fe  Fe48      1.0  0.48883  0.92898  0.21633  1.0000
  C   C224      1.0  0.47656  0.81113  0.16456  1.0000
  C   C225      1.0  0.47242  0.98750  0.19649  1.0000
  H   H363      1.0  0.31904  0.94692  0.43470  1.0000
  C   C226      1.0  0.31926  0.96620  0.43661  1.0000
  H   H364      1.0  0.41110  0.97003  0.21995  1.0000
  S   S100      1.0  0.49640  0.72469  0.09418  1.0000
  C   C227      1.0  0.48674  0.83243  0.16725  1.0000
  H   H365      1.0  0.42867  0.93006  0.24844  1.0000
  C   C228      1.0  0.30163  0.97786  0.45472  1.0000
  S   S101      1.0  0.46302  0.96421  0.22186  1.0000
  H   H366      1.0  0.29226  0.51984  0.09552  1.0000
  H   H367      1.0  0.49120  0.99644  0.29597  1.0000
  H   H368      1.0  0.40257  0.91729  0.24095  1.0000
  C   C229      1.0  0.31949  0.53570  0.04754  1.0000
  H   H369      1.0  0.38620  0.67098  0.08139  1.0000
  C   C230      1.0  0.37834  0.62364  0.08354  1.0000
  S   S102      1.0  0.44410  0.96550  0.33613  1.0000
  H   H370      1.0  0.39236  0.61403  0.09759  1.0000
  H   H371      1.0  0.39209  0.98528  0.27404  1.0000
  H   H372      1.0  0.47541  0.92076  0.36941  1.0000
  H   H373      1.0  0.41521  0.72356  0.05497  1.0000
  S   S103      1.0  0.47891  0.96712  0.39804  1.0000
  C   C231      1.0  0.39205  0.96664  0.22895  1.0000
  H   H374      1.0  0.40281  0.95656  0.29477  1.0000
  H   H375      1.0  0.47204  0.90633  0.27873  1.0000
  H   H376      1.0  0.32497  0.51898  0.09851  1.0000
  Fe  Fe49      1.0  0.38931  0.99670  0.38130  1.0000
  H   H377      1.0  0.27804  0.51432  0.05396  1.0000
  H   H378      1.0  0.38500  0.52284  0.04041  1.0000
  C   C232      1.0  0.28070  0.56975  0.10193  1.0000
  H   H379      1.0  0.36785  0.60926  0.07915  1.0000
  N   N21       1.0  0.39282  0.95220  0.25633  1.0000
  C   C233      1.0  0.40502  0.66788  0.02175  1.0000
  Fe  Fe50      1.0  0.50611  0.87846  0.24684  1.0000
  H   H380      1.0  0.30197  0.54892  0.05067  1.0000
  H   H381      1.0  0.38032  0.98525  0.22905  1.0000
  H   H382      1.0  0.48814  0.97682  0.27182  1.0000
  H   H383      1.0  0.37781  0.93506  0.49334  1.0000
  H   H384      1.0  0.48165  0.81705  0.09646  1.0000
  C   C234      1.0  0.27214  0.59987  0.06217  1.0000
  S   S104      1.0  0.51113  0.87289  0.14648  1.0000
  H   H385      1.0  0.35896  0.93729  0.25515  1.0000
  N   N22       1.0  0.31671  0.51011  0.06108  1.0000
  H   H386      1.0  0.51173  0.76556  0.16505  1.0000
  C   C235      1.0  0.49091  0.99988  0.15127  1.0000
  S   S105      1.0  0.30885  0.65092  0.01997  1.0000
  C   C236      1.0  0.42646  0.66639  0.03512  1.0000
  C   C237      1.0  0.49636  0.99333  0.27477  1.0000
  C   C238      1.0  0.36726  0.94804  0.26760  1.0000
  H   H387      1.0  0.42274  0.96903  0.26643  1.0000
  C   C239      1.0  0.34717  0.97731  0.50117  1.0000
  H   H388      1.0  0.37722  0.72620  0.03152  1.0000
  C   C240      1.0  0.40308  0.96633  0.27366  1.0000
  S   S106      1.0  0.36565  0.61860  0.01634  1.0000
  C   C241      1.0  0.49977  0.98845  0.38660  1.0000
  H   H389      1.0  0.49324  0.90921  0.39746  1.0000
  H   H390      1.0  0.49460  0.91794  0.32337  1.0000
  H   H391      1.0  0.50040  0.85393  0.10107  1.0000
  Fe  Fe51      1.0  0.51088  0.88598  0.18629  1.0000
  H   H392      1.0  0.50467  0.88502  0.33202  1.0000
  H   H393      1.0  0.40255  0.65254  0.01202  1.0000
  Fe  Fe52      1.0  0.30299  0.63574  0.98322  1.0000
  C   C242      1.0  0.39505  0.52991  0.96269  1.0000
  S   S107      1.0  0.37889  0.58006  0.95525  1.0000
  H   H394      1.0  0.43951  0.98152  0.85031  1.0000
  H   H395      1.0  0.31291  0.58810  0.89008  1.0000
  H   H396      1.0  0.36050  0.54042  0.86078  1.0000
  N   N23       1.0  0.34254  0.55692  0.89504  1.0000
  H   H397      1.0  0.31979  0.53625  0.92557  1.0000
  C   C243      1.0  0.41410  0.77711  0.96099  1.0000
  C   C244      1.0  0.33437  0.54861  0.92357  1.0000
  H   H398      1.0  0.39840  0.53184  0.94104  1.0000
  C   C245      1.0  0.35309  0.53489  0.88198  1.0000
  S   S108      1.0  0.33918  0.64524  0.96096  1.0000
  S   S109      1.0  0.50869  0.83093  0.89007  1.0000
  S   S110      1.0  0.26624  0.64567  0.96501  1.0000
  H   H399      1.0  0.30563  0.55950  0.88255  1.0000
  H   H400      1.0  0.36822  0.58027  0.87227  1.0000
  Fe  Fe53      1.0  0.34680  0.65657  0.99940  1.0000
  C   C246      1.0  0.38605  0.55090  0.97509  1.0000
  C   C247      1.0  0.37424  0.93881  0.51447  1.0000
  H   H401      1.0  0.41584  0.71408  0.96990  1.0000
  S   S111      1.0  0.47478  0.88524  0.83833  1.0000
  H   H402      1.0  0.35022  0.53776  0.93450  1.0000
  Fe  Fe54      1.0  0.43266  0.99200  0.69054  1.0000
  C   C248      1.0  0.36186  0.57323  0.89345  1.0000
  C   C249      1.0  0.32093  0.57098  0.88119  1.0000
  H   H403      1.0  0.28681  0.59466  0.95752  1.0000
  Fe  Fe55      1.0  0.35485  0.60668  0.97977  1.0000
  S   S112      1.0  0.31815  0.59626  0.99915  1.0000
  H   H404      1.0  0.50024  0.78031  0.97896  1.0000
  H   H405      1.0  0.48832  0.88296  0.97957  1.0000
  H   H406      1.0  0.34388  0.96468  0.81723  1.0000
  H   H407      1.0  0.37857  0.56310  0.90343  1.0000
  C   C250      1.0  0.36408  0.96141  0.81662  1.0000
  C   C251      1.0  0.31429  0.97945  0.60991  1.0000
  C   C252      1.0  0.27346  0.60212  0.94304  1.0000
  H   H408      1.0  0.34615  0.93991  0.56205  1.0000
  H   H409      1.0  0.49813  0.97709  0.75585  1.0000
  Fe  Fe56      1.0  0.50377  0.92360  0.88062  1.0000
  C   C253      1.0  0.46918  0.88965  0.75750  1.0000
  N   N24       1.0  0.45114  0.91160  0.74772  1.0000
  Fe  Fe57      1.0  0.45605  0.91534  0.86184  1.0000
  H   H410      1.0  0.47671  0.98740  0.87172  1.0000
  S   S113      1.0  0.41532  0.92981  0.86802  1.0000
  H   H411      1.0  0.48803  0.89031  0.74629  1.0000
  Fe  Fe58      1.0  0.50369  0.91065  0.82505  1.0000
  H   H412      1.0  0.41586  0.97020  0.77388  1.0000
  S   S114      1.0  0.47548  0.89901  0.89857  1.0000
  S   S115      1.0  0.48284  0.94203  0.84548  1.0000
  C   C254      1.0  0.37853  0.96883  0.79280  1.0000
  C   C255      1.0  0.44680  0.74664  0.94422  1.0000
  C   C256      1.0  0.37559  0.94972  0.83966  1.0000
  C   C257      1.0  0.40164  0.94491  0.83889  1.0000
  C   C258      1.0  0.41628  0.95239  0.81515  1.0000
  C   C259      1.0  0.40468  0.96455  0.79216  1.0000
  H   H413      1.0  0.42225  0.75049  0.00838  1.0000
  H   H414      1.0  0.43643  0.94876  0.81455  1.0000
  H   H415      1.0  0.32670  0.56479  0.93417  1.0000
  C   C260      1.0  0.46879  0.80944  0.97276  1.0000
  C   C261      1.0  0.45743  0.82880  0.95444  1.0000
  C   C262      1.0  0.46915  0.83474  0.92856  1.0000
  H   H416      1.0  0.44166  0.89489  0.71562  1.0000
  H   H417      1.0  0.46221  0.93511  0.77249  1.0000
  C   C263      1.0  0.43669  0.74546  0.99196  1.0000
  H   H418      1.0  0.43970  0.83950  0.96042  1.0000
  H   H419      1.0  0.46035  0.84982  0.91457  1.0000
  H   H420      1.0  0.33872  0.52272  0.88179  1.0000
  H   H421      1.0  0.44763  0.95156  0.74312  1.0000
  H   H422      1.0  0.40604  0.78189  0.94130  1.0000
  S   S116      1.0  0.39465  0.98143  0.69083  1.0000
  C   C264      1.0  0.49169  0.98558  0.67290  1.0000
  H   H423      1.0  0.32625  0.57700  0.85948  1.0000
  H   H424      1.0  0.37639  0.92048  0.52794  1.0000
  H   H425      1.0  0.42759  0.79018  0.96116  1.0000
  H   H426      1.0  0.36855  0.52309  0.89285  1.0000
  H   H427      1.0  0.41840  0.96731  0.90819  1.0000
  N   N25       1.0  0.34910  0.95315  0.51941  1.0000
  H   H428      1.0  0.41891  0.89323  0.76127  1.0000
  H   H429      1.0  0.31073  0.94884  0.51863  1.0000
  C   C265      1.0  0.43771  0.97216  0.90422  1.0000
  H   H430      1.0  0.29755  0.51358  0.89876  1.0000
  H   H431      1.0  0.43529  0.92846  0.71088  1.0000
  C   C266      1.0  0.42651  0.91032  0.76334  1.0000
  C   C267      1.0  0.38233  0.54831  0.00316  1.0000
  C   C268      1.0  0.40766  0.73414  0.96534  1.0000
  C   C269      1.0  0.50316  0.80127  0.93887  1.0000
  H   H432      1.0  0.35473  0.58974  0.90374  1.0000
  Fe  Fe59      1.0  0.49728  0.87142  0.87362  1.0000
  S   S117      1.0  0.36078  0.69235  0.00274  1.0000
  H   H433      1.0  0.46103  0.75919  0.94378  1.0000
  H   H434      1.0  0.46682  0.91313  0.70659  1.0000
  C   C270      1.0  0.31929  0.00087  0.59215  1.0000
  H   H435      1.0  0.47170  0.88898  0.77907  1.0000
  C   C271      1.0  0.34499  0.95769  0.54760  1.0000
  H   H436      1.0  0.33110  0.92022  0.52733  1.0000
  H   H437      1.0  0.36423  0.94401  0.85799  1.0000
  C   C272      1.0  0.32543  0.97332  0.63417  1.0000
  H   H438      1.0  0.44444  0.72535  0.99717  1.0000
  H   H439      1.0  0.43971  0.75039  0.92402  1.0000
  H   H440      1.0  0.47914  0.93590  0.73983  1.0000
  S   S118      1.0  0.29392  0.96021  0.60260  1.0000
  H   H441      1.0  0.45210  0.75637  0.99212  1.0000
  C   C273      1.0  0.39931  0.50624  0.97823  1.0000
  H   H442      1.0  0.41250  0.92673  0.75648  1.0000
  H   H443      1.0  0.45658  0.72704  0.94734  1.0000
  C   C274      1.0  0.46037  0.93459  0.75102  1.0000
  C   C275      1.0  0.26858  0.58723  0.92491  1.0000
  N   N26       1.0  0.43826  0.99667  0.88690  1.0000
  H   H444      1.0  0.32166  0.95675  0.64801  1.0000
  Fe  Fe60      1.0  0.26803  0.97448  0.56996  1.0000
  H   H445      1.0  0.42773  0.91003  0.78515  1.0000
  H   H446      1.0  0.39148  0.73749  0.98060  1.0000
  N   N27       1.0  0.42630  0.75082  0.96562  1.0000
  S   S119      1.0  0.46918  0.96680  0.68740  1.0000
  C   C276      1.0  0.44859  0.91193  0.71898  1.0000
  H   H447      1.0  0.32606  0.96823  0.55188  1.0000
  C   C277      1.0  0.49229  0.82139  0.92096  1.0000
  H   H448      1.0  0.44500  0.97182  0.92387  1.0000
  C   C278      1.0  0.39528  0.50350  0.00625  1.0000
  C   C279      1.0  0.49149  0.79539  0.96490  1.0000
  H   H449      1.0  0.39872  0.78101  0.97698  1.0000
  H   H450      1.0  0.40001  0.73705  0.94549  1.0000
  C   C280      1.0  0.49809  0.86659  0.97031  1.0000
  H   H451      1.0  0.49061  0.86779  0.95062  1.0000
  H   H452      1.0  0.49922  0.97002  0.79154  1.0000
  H   H453      1.0  0.38914  0.94919  0.51801  1.0000
  S   S120      1.0  0.36318  0.98259  0.76418  1.0000
  C   C281      1.0  0.42829  0.99617  0.86118  1.0000
  H   H454      1.0  0.40874  0.99192  0.86444  1.0000
  H   H455      1.0  0.46300  0.87186  0.75533  1.0000
  H   H456      1.0  0.44942  0.95687  0.89460  1.0000
  H   H457      1.0  0.46986  0.98160  0.77782  1.0000
  H   H458      1.0  0.27824  0.56834  0.92543  1.0000
  H   H459      1.0  0.35886  0.96871  0.55231  1.0000
  H   H460      1.0  0.34900  0.98430  0.66003  1.0000
  S   S121      1.0  0.45401  0.80354  0.00526  1.0000
  C   C282      1.0  0.49010  0.98336  0.77527  1.0000
  C   C283      1.0  0.34098  0.98886  0.64099  1.0000
  H   H461      1.0  0.49270  0.84945  0.98334  1.0000
  S   S122      1.0  0.27746  0.00159  0.53338  1.0000
  Fe  Fe61      1.0  0.38579  0.99965  0.72791  1.0000
  C   C284      1.0  0.46430  0.00197  0.88177  1.0000
  C   C285      1.0  0.32993  0.93881  0.51437  1.0000
  C   C286      1.0  0.75303  0.44439  0.10380  1.0000
  S   S123      1.0  0.54323  0.05282  0.19455  1.0000
  C   C287      1.0  0.59976  0.08856  0.27004  1.0000
  C   C288      1.0  0.69420  0.49989  0.07794  1.0000
  S   S124      1.0  0.55812  0.03896  0.35394  1.0000
  C   C289      1.0  0.65215  0.04225  0.44889  1.0000
  S   S125      1.0  0.55303  0.09102  0.13758  1.0000
  N   N28       1.0  0.63528  0.25328  0.03836  1.0000
  Fe  Fe62      1.0  0.57184  0.07669  0.17530  1.0000
  S   S126      1.0  0.61200  0.05919  0.17109  1.0000
  H   H462      1.0  0.54688  0.06545  0.29829  1.0000
  H   H463      1.0  0.56309  0.06303  0.26566  1.0000
  H   H464      1.0  0.53892  0.11097  0.28723  1.0000
  H   H465      1.0  0.52584  0.34506  0.01604  1.0000
  H   H466      1.0  0.56688  0.14900  0.03570  1.0000
  H   H467      1.0  0.58639  0.10850  0.31555  1.0000
  H   H468      1.0  0.66986  0.26796  0.02586  1.0000
  H   H469      1.0  0.61365  0.07245  0.27783  1.0000
  C   C290      1.0  0.66270  0.02838  0.22350  1.0000
  C   C291      1.0  0.65135  0.03906  0.20004  1.0000
  C   C292      1.0  0.62537  0.04555  0.20091  1.0000
  C   C293      1.0  0.61063  0.04090  0.22530  1.0000
  H   H470      1.0  0.55526  0.17463  0.01141  1.0000
  H   H471      1.0  0.66279  0.04259  0.18121  1.0000
  H   H472      1.0  0.59053  0.04578  0.22600  1.0000
  N   N29       1.0  0.66401  0.04915  0.47072  1.0000
  H   H473      1.0  0.62126  0.49365  0.03657  1.0000
  H   H474      1.0  0.73984  0.45455  0.11714  1.0000
  C   C294      1.0  0.57875  0.16844  0.08194  1.0000
  C   C295      1.0  0.57891  0.09109  0.31453  1.0000
  H   H475      1.0  0.53974  0.11021  0.01889  1.0000
  C   C296      1.0  0.56992  0.19091  0.06602  1.0000
  C   C297      1.0  0.63708  0.49680  0.02199  1.0000
  C   C298      1.0  0.53265  0.19561  0.09712  1.0000
  S   S127      1.0  0.58731  0.20130  0.03606  1.0000
  H   H476      1.0  0.56088  0.09121  0.32754  1.0000
  H   H477      1.0  0.63903  0.08370  0.47209  1.0000
  H   H478      1.0  0.59206  0.07496  0.32366  1.0000
  H   H479      1.0  0.57106  0.14188  0.11741  1.0000
  H   H480      1.0  0.58310  0.01001  0.19182  1.0000
  C   C299      1.0  0.70944  0.02241  0.39380  1.0000
  H   H481      1.0  0.60197  0.27776  0.04948  1.0000
  Fe  Fe63      1.0  0.75778  0.03408  0.45935  1.0000
  H   H482      1.0  0.69487  0.06763  0.47493  1.0000
  S   S128      1.0  0.70892  0.36805  0.05312  1.0000
  H   H483      1.0  0.57806  0.04896  0.29554  1.0000
  H   H484      1.0  0.56970  0.03135  0.14744  1.0000
  H   H485      1.0  0.59777  0.08699  0.24881  1.0000
  C   C300      1.0  0.62203  0.02985  0.24879  1.0000
  C   C301      1.0  0.74491  0.42834  0.08909  1.0000
  N   N30       1.0  0.57547  0.08892  0.28661  1.0000
  C   C302      1.0  0.64813  0.02372  0.24793  1.0000
  C   C303      1.0  0.75862  0.48609  0.04117  1.0000
  H   H486      1.0  0.56433  0.12851  0.27547  1.0000
  C   C304      1.0  0.54120  0.17289  0.11280  1.0000
  H   H487      1.0  0.60786  0.10592  0.26971  1.0000
  H   H488      1.0  0.59885  0.32949  0.05189  1.0000
  Fe  Fe64      1.0  0.67281  0.37778  0.03356  1.0000
  H   H489      1.0  0.70152  0.48057  0.07394  1.0000
  C   C305      1.0  0.60589  0.33203  0.03087  1.0000
  C   C306      1.0  0.65516  0.48714  0.09842  1.0000
  S   S129      1.0  0.52228  0.16167  0.14123  1.0000
  Fe  Fe65      1.0  0.52310  0.06935  0.15823  1.0000
  H   H490      1.0  0.71286  0.03831  0.37876  1.0000
  H   H491      1.0  0.67843  0.01475  0.37538  1.0000
  C   C307      1.0  0.55762  0.11046  0.27549  1.0000
  H   H492      1.0  0.59662  0.15792  0.07613  1.0000
  H   H493      1.0  0.65664  0.01624  0.49832  1.0000
  C   C308      1.0  0.56428  0.15930  0.10522  1.0000
  C   C309      1.0  0.54688  0.20451  0.07361  1.0000
  C   C310      1.0  0.56550  0.06553  0.28644  1.0000
  C   C311      1.0  0.53353  0.01278  0.27096  1.0000
  C   C312      1.0  0.51349  0.02243  0.35406  1.0000
  Fe  Fe66      1.0  0.73606  0.05386  0.51066  1.0000
  S   S130      1.0  0.55486  0.10960  0.19552  1.0000
  C   C313      1.0  0.72413  0.01554  0.41549  1.0000
  H   H494      1.0  0.61072  0.02642  0.26754  1.0000
  H   H495      1.0  0.57871  0.31274  0.01898  1.0000
  H   H496      1.0  0.70020  0.04925  0.44841  1.0000
  S   S131      1.0  0.72570  0.41882  0.01587  1.0000
  H   H497      1.0  0.55461  0.10943  0.25443  1.0000
  S   S132      1.0  0.66708  0.41794  0.04005  1.0000
  S   S133      1.0  0.64149  0.35457  0.04681  1.0000
  H   H498      1.0  0.70546  0.49397  0.12871  1.0000
  H   H499      1.0  0.54167  0.11487  0.05278  1.0000
  N   N31       1.0  0.67626  0.49958  0.10225  1.0000
  H   H500      1.0  0.69535  0.46578  0.12333  1.0000
  H   H501      1.0  0.52531  0.02924  0.25705  1.0000
  Fe  Fe67      1.0  0.52418  0.08682  0.21152  1.0000
  H   H502      1.0  0.71101  0.01583  0.30210  1.0000
  C   C314      1.0  0.68885  0.48567  0.12574  1.0000
  S   S134      1.0  0.75207  0.07236  0.47094  1.0000
  N   N32       1.0  0.52969  0.14830  0.02582  1.0000
  H   H503      1.0  0.64128  0.48630  0.11641  1.0000
  H   H504      1.0  0.59910  0.24516  0.05632  1.0000
  H   H505      1.0  0.64548  0.05895  0.43439  1.0000
  C   C315      1.0  0.64812  0.22802  0.04813  1.0000
  C   C316      1.0  0.53467  0.02100  0.36762  1.0000
  H   H506      1.0  0.52787  0.15627  0.06611  1.0000
  Fe  Fe68      1.0  0.53282  0.12162  0.15961  1.0000
  H   H507      1.0  0.64515  0.49719  0.08092  1.0000
  H   H508      1.0  0.53997  0.22191  0.06143  1.0000
  H   H509      1.0  0.61623  0.25817  0.07723  1.0000
  C   C317      1.0  0.61214  0.25884  0.05613  1.0000
  C   C318      1.0  0.68570  0.06176  0.45911  1.0000
  H   H510      1.0  0.68140  0.03090  0.50619  1.0000
  S   S135      1.0  0.66322  0.01079  0.27701  1.0000
  C   C319      1.0  0.70885  0.00475  0.32257  1.0000
  C   C320      1.0  0.62657  0.34461  0.02252  1.0000
  H   H511      1.0  0.59920  0.01907  0.13165  1.0000
  H   H512      1.0  0.67603  0.48565  0.14456  1.0000
  Fe  Fe69      1.0  0.70473  0.40892  0.05586  1.0000
  H   H513      1.0  0.66177  0.46760  0.09458  1.0000
  S   S136      1.0  0.71281  0.42708  0.08987  1.0000
  H   H514      1.0  0.68019  0.07875  0.44447  1.0000
  H   H515      1.0  0.62911  0.05730  0.49456  1.0000
  Fe  Fe70      1.0  0.59268  0.01103  0.35093  1.0000
  C   C321      1.0  0.64572  0.06622  0.48551  1.0000
  H   H516      1.0  0.51480  0.20616  0.10300  1.0000
  H   H517      1.0  0.74617  0.47212  0.05029  1.0000
  H   H518      1.0  0.54319  0.00311  0.17634  1.0000
  C   C322      1.0  0.55534  0.15427  0.01834  1.0000
  H   H519      1.0  0.68648  0.01316  0.47889  1.0000
  H   H520      1.0  0.65333  0.22667  0.06894  1.0000
  C   C323      1.0  0.53076  0.12113  0.03498  1.0000
  H   H521      1.0  0.57039  0.01383  0.12073  1.0000
  S   S137      1.0  0.63183  0.01932  0.34859  1.0000
  H   H522      1.0  0.68285  0.02370  0.22265  1.0000
  H   H523      1.0  0.65415  0.07170  0.50216  1.0000
  H   H524      1.0  0.68853  0.00375  0.32746  1.0000
  H   H525      1.0  0.65649  0.27249  0.05918  1.0000
  H   H526      1.0  0.63589  0.21356  0.04844  1.0000
  H   H527      1.0  0.66552  0.22301  0.03505  1.0000
  H   H528      1.0  0.75635  0.40186  0.06155  1.0000
  H   H529      1.0  0.63588  0.03239  0.45685  1.0000
  C   C324      1.0  0.57993  0.01493  0.13861  1.0000
  H   H530      1.0  0.55423  0.01070  0.26647  1.0000
  H   H531      1.0  0.52896  0.01728  0.29175  1.0000
  C   C325      1.0  0.65194  0.27195  0.03850  1.0000
  H   H532      1.0  0.64314  0.29111  0.03040  1.0000
  H   H533      1.0  0.71459  0.01541  0.33696  1.0000
  S   S138      1.0  0.55306  0.27059  0.01823  1.0000
  S   S139      1.0  0.73891  0.01633  0.49795  1.0000
  C   C326      1.0  0.67249  0.02635  0.48936  1.0000
  S   S140      1.0  0.74785  0.03288  0.41775  1.0000
  H   H534      1.0  0.66555  0.02950  0.43735  1.0000
  C   C327      1.0  0.69002  0.00911  0.39183  1.0000
  C   C328      1.0  0.59453  0.32243  0.01225  1.0000
  C   C329      1.0  0.51758  0.16193  0.04783  1.0000
  H   H535      1.0  0.51698  0.18248  0.04197  1.0000
  C   C330      1.0  0.53824  0.00349  0.39080  1.0000
  H   H536      1.0  0.55441  0.00257  0.40156  1.0000
  Fe  Fe71      1.0  0.72691  0.37895  0.01143  1.0000
  S   S141      1.0  0.53083  0.28285  0.95864  1.0000
  H   H537      1.0  0.71124  0.41982  0.93763  1.0000
  Fe  Fe72      1.0  0.56723  0.28213  0.97543  1.0000
  S   S142      1.0  0.59027  0.31324  0.96131  1.0000
  Fe  Fe73      1.0  0.54397  0.24232  0.95545  1.0000
  S   S143      1.0  0.53479  0.11269  0.84894  1.0000
  H   H538      1.0  0.52041  0.23157  0.83539  1.0000
  H   H539      1.0  0.73001  0.03753  0.56777  1.0000
  H   H540      1.0  0.53687  0.02866  0.90438  1.0000
  Fe  Fe74      1.0  0.60543  0.06458  0.69002  1.0000
  S   S144      1.0  0.63365  0.03251  0.70516  1.0000
  S   S145      1.0  0.60716  0.10395  0.69526  1.0000
  H   H541      1.0  0.75010  0.48616  0.97593  1.0000
  H   H542      1.0  0.64628  0.12105  0.60662  1.0000
  Fe  Fe75      1.0  0.52987  0.07283  0.85014  1.0000
  C   C331      1.0  0.63370  0.02581  0.78487  1.0000
  S   S146      1.0  0.61016  0.05538  0.64836  1.0000
  S   S147      1.0  0.57248  0.04458  0.70358  1.0000
  H   H543      1.0  0.56510  0.14436  0.00178  1.0000
  H   H544      1.0  0.73154  0.47442  0.00558  1.0000
  H   H545      1.0  0.74430  0.44106  0.87143  1.0000
  H   H546      1.0  0.61685  0.23993  0.00978  1.0000
  C   C332      1.0  0.54115  0.18108  0.90197  1.0000
  S   S148      1.0  0.56044  0.04039  0.85109  1.0000
  C   C333      1.0  0.66089  0.03809  0.59729  1.0000
  H   H547      1.0  0.74812  0.40965  0.88936  1.0000
  H   H548      1.0  0.53642  0.14848  0.88586  1.0000
  H   H549      1.0  0.58691  0.15414  0.70324  1.0000
  H   H550      1.0  0.65132  0.35768  0.98865  1.0000
  H   H551      1.0  0.60775  0.08708  0.77655  1.0000
  C   C334      1.0  0.61684  0.05123  0.81900  1.0000
  S   S149      1.0  0.54460  0.22524  0.91790  1.0000
  H   H552      1.0  0.57468  0.07962  0.73735  1.0000
  C   C335      1.0  0.53116  0.19797  0.91969  1.0000
  S   S150      1.0  0.58178  0.24306  0.96817  1.0000
  C   C336      1.0  0.54761  0.01403  0.86723  1.0000
  S   S151      1.0  0.52110  0.14731  0.77764  1.0000
  H   H553      1.0  0.55820  0.18387  0.88924  1.0000
  C   C337      1.0  0.58299  0.11569  0.71803  1.0000
  C   C338      1.0  0.56994  0.09950  0.73675  1.0000
  C   C339      1.0  0.55111  0.10905  0.75528  1.0000
  C   C340      1.0  0.54485  0.13487  0.75482  1.0000
  C   C341      1.0  0.55766  0.15107  0.73580  1.0000
  C   C342      1.0  0.57689  0.14150  0.71766  1.0000
  H   H554      1.0  0.64160  0.03769  0.60509  1.0000
  H   H555      1.0  0.52968  0.19978  0.84998  1.0000
  C   C343      1.0  0.70499  0.02428  0.60136  1.0000
  C   C344      1.0  0.69157  0.05164  0.56127  1.0000
  C   C345      1.0  0.66664  0.05193  0.57202  1.0000
  H   H556      1.0  0.63563  0.05500  0.82212  1.0000
  Fe  Fe76      1.0  0.51740  0.26851  0.00118  1.0000
  H   H557      1.0  0.53997  0.33928  0.94369  1.0000
  Fe  Fe77      1.0  0.56449  0.23146  0.00970  1.0000
  H   H558      1.0  0.65174  0.06260  0.56070  1.0000
  C   C346      1.0  0.71072  0.03761  0.57583  1.0000
  N   N33       1.0  0.74047  0.43833  0.91443  1.0000
  C   C347      1.0  0.68008  0.02449  0.61212  1.0000
  C   C348      1.0  0.73130  0.42141  0.93812  1.0000
  N   N34       1.0  0.52234  0.36062  0.97447  1.0000
  C   C349      1.0  0.74466  0.48803  0.99743  1.0000
  H   H559      1.0  0.56166  0.36313  0.96800  1.0000
  H   H560      1.0  0.60277  0.06710  0.82469  1.0000
  H   H561      1.0  0.63032  0.10672  0.63695  1.0000
  C   C350      1.0  0.52535  0.33906  0.99627  1.0000
  C   C351      1.0  0.52505  0.09886  0.66683  1.0000
  H   H562      1.0  0.69176  0.07970  0.60549  1.0000
  H   H563      1.0  0.64553  0.08804  0.61214  1.0000
  H   H564      1.0  0.51761  0.18436  0.81203  1.0000
  S   S152      1.0  0.54808  0.03765  0.63749  1.0000
  H   H565      1.0  0.58817  0.04121  0.76679  1.0000
  C   C352      1.0  0.60372  0.32547  0.98513  1.0000
  H   H566      1.0  0.55292  0.17106  0.73530  1.0000
  Fe  Fe78      1.0  0.60106  0.01137  0.71560  1.0000
  H   H567      1.0  0.58528  0.02603  0.80089  1.0000
  H   H568      1.0  0.69257  0.11267  0.59930  1.0000
  H   H569      1.0  0.68823  0.07294  0.66628  1.0000
  Fe  Fe79      1.0  0.57961  0.03244  0.66312  1.0000
  H   H570      1.0  0.73268  0.42851  0.95702  1.0000
  H   H571      1.0  0.62047  0.06825  0.75112  1.0000
  C   C353      1.0  0.73746  0.42876  0.88969  1.0000
  C   C354      1.0  0.64712  0.10411  0.62223  1.0000
  C   C355      1.0  0.67179  0.12158  0.64858  1.0000
  C   C356      1.0  0.67063  0.07723  0.65622  1.0000
  N   N35       1.0  0.67046  0.09978  0.63560  1.0000
  H   H572      1.0  0.66894  0.06055  0.64729  1.0000
  C   C357      1.0  0.69220  0.09616  0.61542  1.0000
  H   H573      1.0  0.71018  0.09291  0.62473  1.0000
  H   H574      1.0  0.65476  0.07949  0.67205  1.0000
  H   H575      1.0  0.67175  0.13897  0.63362  1.0000
  H   H576      1.0  0.68909  0.11890  0.65904  1.0000
  H   H577      1.0  0.65551  0.12476  0.66384  1.0000
  H   H578      1.0  0.74218  0.40224  0.93950  1.0000
  Fe  Fe80      1.0  0.68858  0.42444  0.99963  1.0000
  C   C358      1.0  0.72602  0.46366  0.91415  1.0000
  H   H579      1.0  0.52473  0.03000  0.77261  1.0000
  H   H580      1.0  0.70572  0.46359  0.91316  1.0000
  C   C359      1.0  0.51352  0.21509  0.84825  1.0000
  H   H581      1.0  0.51975  0.36731  0.93178  1.0000
  H   H582      1.0  0.57561  0.05911  0.79323  1.0000
  C   C360      1.0  0.66788  0.48253  0.98717  1.0000
  H   H583      1.0  0.54447  0.38158  0.99196  1.0000
  C   C361      1.0  0.52110  0.01072  0.77228  1.0000
  H   H584      1.0  0.63963  0.46138  0.00832  1.0000
  C   C362      1.0  0.62393  0.33862  0.97666  1.0000
  H   H585      1.0  0.64591  0.25062  0.99656  1.0000
  H   H586      1.0  0.65311  0.02808  0.78752  1.0000
  H   H587      1.0  0.63104  0.34120  0.95566  1.0000
  H   H588      1.0  0.71746  0.42773  0.88810  1.0000
  C   C363      1.0  0.62889  0.25419  0.01067  1.0000
  S   S153      1.0  0.69858  0.06922  0.52989  1.0000
  C   C364      1.0  0.52880  0.16109  0.89996  1.0000
  H   H589      1.0  0.64038  0.07418  0.77432  1.0000
  S   S154      1.0  0.69135  0.38529  0.99152  1.0000
  S   S155      1.0  0.68227  0.45880  0.96917  1.0000
  C   C365      1.0  0.63543  0.34804  0.99531  1.0000
  H   H590      1.0  0.54297  0.32627  0.99230  1.0000
  H   H591      1.0  0.52386  0.14613  0.98507  1.0000
  H   H592      1.0  0.54133  0.09642  0.76972  1.0000
  H   H593      1.0  0.73271  0.47706  0.89679  1.0000
  S   S156      1.0  0.76078  0.35578  0.99390  1.0000
  C   C366      1.0  0.52682  0.01712  0.65087  1.0000
  H   H594      1.0  0.61289  0.03431  0.83346  1.0000
  H   H595      1.0  0.62929  0.00836  0.79809  1.0000
  H   H596      1.0  0.72775  0.47136  0.93266  1.0000
  H   H597      1.0  0.53778  0.08353  0.65824  1.0000
  H   H598      1.0  0.52479  0.11587  0.65134  1.0000
  C   C367      1.0  0.52215  0.35156  0.94870  1.0000
  H   H599      1.0  0.51315  0.05346  0.68699  1.0000
  H   H600      1.0  0.52987  0.00505  0.75283  1.0000
  C   C368      1.0  0.59001  0.04341  0.78779  1.0000
  S   S157      1.0  0.52747  0.22785  0.99676  1.0000
  H   H601      1.0  0.61860  0.27275  0.00281  1.0000
  H   H602      1.0  0.54168  0.39143  0.95661  1.0000
  C   C369      1.0  0.64752  0.47852  0.00611  1.0000
  H   H603      1.0  0.53358  0.10248  0.68440  1.0000
  C   C370      1.0  0.53691  0.01316  0.89377  1.0000
  C   C371      1.0  0.62132  0.07029  0.77245  1.0000
  C   C372      1.0  0.54341  0.37486  0.97269  1.0000
  N   N36       1.0  0.61548  0.04770  0.79101  1.0000
  H   H604      1.0  0.71993  0.01417  0.61294  1.0000
  H   H605      1.0  0.63335  0.02265  0.76387  1.0000
  S   S158      1.0  0.67351  0.00825  0.64442  1.0000
  Fe  Fe81      1.0  0.63549  0.02105  0.66457  1.0000
  C   C373      1.0  0.51511  0.15585  0.00221  1.0000
  H   H606      1.0  0.51383  0.17628  0.99495  1.0000
  H   H607      1.0  0.63167  0.66986  0.04822  1.0000
  C   C374      1.0  0.71344  0.57973  0.12267  1.0000
  C   C375      1.0  0.72932  0.56359  0.10738  1.0000
  H   H608      1.0  0.76017  0.60329  0.09467  1.0000
  H   H609      1.0  0.53959  0.93402  0.34414  1.0000
  S   S159      1.0  0.69016  0.60246  0.10810  1.0000
  H   H610      1.0  0.52140  0.96888  0.23655  1.0000
  H   H611      1.0  0.72741  0.56480  0.08636  1.0000
  H   H612      1.0  0.56263  0.79990  0.13020  1.0000
  H   H613      1.0  0.59430  0.95256  0.16018  1.0000
  H   H614      1.0  0.54964  0.77500  0.09912  1.0000
  H   H615      1.0  0.58564  0.75756  0.12508  1.0000
  Fe  Fe82      1.0  0.68244  0.60063  0.06600  1.0000
  H   H616      1.0  0.72679  0.94751  0.30362  1.0000
  S   S160      1.0  0.63484  0.54105  0.04000  1.0000
  H   H617      1.0  0.75672  0.99135  0.33344  1.0000
  C   C376      1.0  0.75167  0.54488  0.14634  1.0000
  H   H618      1.0  0.52167  0.00151  0.22554  1.0000
  H   H619      1.0  0.75503  0.63555  0.07958  1.0000
  N   N37       1.0  0.51423  0.90757  0.35887  1.0000
  H   H620      1.0  0.55011  0.98132  0.23448  1.0000
  Fe  Fe83      1.0  0.65840  0.57144  0.03382  1.0000
  S   S161      1.0  0.64308  0.60318  0.05598  1.0000
  S   S162      1.0  0.69679  0.56651  0.04704  1.0000
  H   H621      1.0  0.52697  0.90516  0.31742  1.0000
  C   C377      1.0  0.66691  0.52552  0.10684  1.0000
  H   H622      1.0  0.75360  0.58162  0.04521  1.0000
  H   H623      1.0  0.55774  0.79047  0.16600  1.0000
  H   H624      1.0  0.71929  0.97724  0.28268  1.0000
  H   H625      1.0  0.73590  0.61429  0.07266  1.0000
  C   C378      1.0  0.61491  0.68075  0.04048  1.0000
  C   C379      1.0  0.71620  0.96669  0.30331  1.0000
  C   C380      1.0  0.55013  0.79075  0.14654  1.0000
  H   H626      1.0  0.52547  0.93568  0.37762  1.0000
  H   H627      1.0  0.68241  0.53542  0.10984  1.0000
  H   H628      1.0  0.56110  0.58502  0.05862  1.0000
  H   H629      1.0  0.61357  0.97300  0.13890  1.0000
  C   C381      1.0  0.55424  0.98727  0.16713  1.0000
  H   H630      1.0  0.61240  0.99785  0.17568  1.0000
  H   H631      1.0  0.71040  0.50910  0.08010  1.0000
  H   H632      1.0  0.54431  0.98519  0.14989  1.0000
  C   C382      1.0  0.74835  0.54625  0.11917  1.0000
  C   C383      1.0  0.52196  0.93234  0.35743  1.0000
  C   C384      1.0  0.53558  0.96853  0.28631  1.0000
  N   N38       1.0  0.52376  0.98995  0.26798  1.0000
  C   C385      1.0  0.71651  0.57816  0.14993  1.0000
  C   C386      1.0  0.57135  0.70901  0.02061  1.0000
  Fe  Fe84      1.0  0.60855  0.95769  0.34125  1.0000
  C   C387      1.0  0.75533  0.61612  0.07591  1.0000
  S   S163      1.0  0.59339  0.92334  0.33647  1.0000
  C   C388      1.0  0.52957  0.98524  0.23990  1.0000
  H   H633      1.0  0.65321  0.52604  0.12494  1.0000
  H   H634      1.0  0.55226  0.88897  0.35676  1.0000
  H   H635      1.0  0.57116  0.73046  0.13806  1.0000
  H   H636      1.0  0.74828  0.50503  0.04316  1.0000
  C   C389      1.0  0.64726  0.51893  0.01917  1.0000
  H   H637      1.0  0.65736  0.53660  0.08948  1.0000
  S   S164      1.0  0.59928  0.97481  0.37881  1.0000
  S   S165      1.0  0.64925  0.96078  0.33815  1.0000
  C   C390      1.0  0.68562  0.98860  0.41127  1.0000
  S   S166      1.0  0.53871  0.86961  0.21639  1.0000
  N   N39       1.0  0.54767  0.76536  0.14223  1.0000
  N   N40       1.0  0.72363  0.97953  0.32378  1.0000
  Fe  Fe85      1.0  0.65467  0.62691  0.01757  1.0000
  C   C391      1.0  0.75051  0.98171  0.31834  1.0000
  C   C392      1.0  0.53064  0.75414  0.16419  1.0000
  Fe  Fe86      1.0  0.54437  0.90941  0.21520  1.0000
  S   S167      1.0  0.57927  0.92626  0.21484  1.0000
  H   H638      1.0  0.58095  0.74796  0.16087  1.0000
  C   C393      1.0  0.70030  0.98176  0.43297  1.0000
  H   H639      1.0  0.69874  0.96384  0.35621  1.0000
  H   H640      1.0  0.55616  0.63137  0.04616  1.0000
  Fe  Fe87      1.0  0.63928  0.98135  0.37343  1.0000
  H   H641      1.0  0.52800  0.73514  0.16129  1.0000
  H   H642      1.0  0.52377  0.97353  0.41811  1.0000
  H   H643      1.0  0.58481  0.96788  0.12806  1.0000
  S   S168      1.0  0.66173  0.97142  0.40926  1.0000
  H   H644      1.0  0.60574  0.70121  0.07390  1.0000
  Fe  Fe88      1.0  0.63834  0.99825  0.31362  1.0000
  C   C394      1.0  0.53731  0.76686  0.11634  1.0000
  H   H645      1.0  0.53779  0.75264  0.18412  1.0000
  H   H646      1.0  0.69693  0.96584  0.44803  1.0000
  H   H647      1.0  0.53493  0.60622  0.02209  1.0000
  H   H648      1.0  0.72908  0.94559  0.35223  1.0000
  H   H649      1.0  0.57983  0.56551  0.03628  1.0000
  H   H650      1.0  0.53759  0.89006  0.39015  1.0000
  C   C395      1.0  0.60021  0.69845  0.05499  1.0000
  H   H651      1.0  0.70430  0.59059  0.16191  1.0000
  C   C396      1.0  0.71946  0.99529  0.43517  1.0000
  H   H652      1.0  0.52931  0.86895  0.37033  1.0000
  H   H653      1.0  0.59363  0.97686  0.19688  1.0000
  H   H654      1.0  0.53173  0.97165  0.30762  1.0000
  S   S169      1.0  0.56088  0.73525  0.06312  1.0000
  C   C397      1.0  0.57838  0.71254  0.04512  1.0000
  C   C398      1.0  0.59275  0.92181  0.30237  1.0000
  C   C399      1.0  0.57901  0.90514  0.29499  1.0000
  C   C400      1.0  0.57558  0.90594  0.26793  1.0000
  C   C401      1.0  0.58621  0.92318  0.24815  1.0000
  C   C402      1.0  0.60119  0.93890  0.25534  1.0000
  C   C403      1.0  0.60446  0.93820  0.28248  1.0000
  H   H655      1.0  0.57087  0.89170  0.31017  1.0000
  H   H656      1.0  0.56481  0.89307  0.26238  1.0000
  H   H657      1.0  0.60990  0.95189  0.24006  1.0000
  H   H658      1.0  0.61596  0.95041  0.28797  1.0000
  C   C404      1.0  0.59284  0.99417  0.18175  1.0000
  H   H659      1.0  0.69596  0.96502  0.30658  1.0000
  H   H660      1.0  0.74689  0.62635  0.02386  1.0000
  H   H661      1.0  0.73779  0.55968  0.18284  1.0000
  H   H662      1.0  0.52882  0.95091  0.28452  1.0000
  C   C405      1.0  0.57248  0.74965  0.14164  1.0000
  C   C406      1.0  0.71899  0.96504  0.35084  1.0000
  H   H663      1.0  0.76024  0.53382  0.10725  1.0000
  H   H664      1.0  0.73094  0.98973  0.45178  1.0000
  H   H665      1.0  0.72521  0.97376  0.36666  1.0000
  C   C407      1.0  0.57755  0.58395  0.04334  1.0000
  S   S170      1.0  0.59839  0.99341  0.31371  1.0000
  C   C408      1.0  0.53418  0.88797  0.36950  1.0000
  N   N41       1.0  0.58022  0.99171  0.15832  1.0000
  H   H666      1.0  0.68515  0.51011  0.05984  1.0000
  H   H667      1.0  0.55625  0.96551  0.28175  1.0000
  Fe  Fe89      1.0  0.51940  0.74315  0.05924  1.0000
  S   S171      1.0  0.51468  0.91650  0.24843  1.0000
  H   H668      1.0  0.59444  0.58402  0.05367  1.0000
  H   H669      1.0  0.58954  0.63016  0.04046  1.0000
  H   H670      1.0  0.51865  0.77854  0.11595  1.0000
  C   C409      1.0  0.73545  0.56066  0.16178  1.0000
  H   H671      1.0  0.53169  0.80302  0.14691  1.0000
  C   C410      1.0  0.59386  0.97038  0.14575  1.0000
  C   C411      1.0  0.52085  0.98717  0.40024  1.0000
  S   S172      1.0  0.51926  0.92520  0.18292  1.0000
  H   H672      1.0  0.55365  0.96992  0.18204  1.0000
  S   S173      1.0  0.69268  0.62815  0.02986  1.0000
  H   H673      1.0  0.53495  0.74806  0.11262  1.0000
  H   H674      1.0  0.57029  0.64493  0.01438  1.0000
  N   N42       1.0  0.57473  0.60482  0.02075  1.0000
  C   C412      1.0  0.57252  0.62881  0.03095  1.0000
  H   H675      1.0  0.75466  0.99263  0.29812  1.0000
  C   C413      1.0  0.60823  0.67775  0.01561  1.0000
  H   H676      1.0  0.55468  0.72001  0.01278  1.0000
  C   C414      1.0  0.53107  0.00019  0.67440  1.0000
  C   C415      1.0  0.53679  0.97309  0.86633  1.0000
  H   H677      1.0  0.72464  0.52628  0.94033  1.0000
  H   H678      1.0  0.72034  0.93993  0.62903  1.0000
  H   H679      1.0  0.52104  0.79081  0.93291  1.0000
  C   C416      1.0  0.73891  0.53594  0.94504  1.0000
  C   C417      1.0  0.73241  0.55486  0.96113  1.0000
  H   H680      1.0  0.71314  0.55977  0.96883  1.0000
  H   H681      1.0  0.73722  0.96963  0.54643  1.0000
  S   S174      1.0  0.52778  0.89474  0.85869  1.0000
  S   S175      1.0  0.66797  0.59497  0.99455  1.0000
  C   C418      1.0  0.66768  0.52297  0.00027  1.0000
  C   C419      1.0  0.51355  0.98428  0.68529  1.0000
  H   H682      1.0  0.58136  0.68974  0.98637  1.0000
  H   H683      1.0  0.69356  0.50788  0.96943  1.0000
  H   H684      1.0  0.69365  0.94506  0.57849  1.0000
  H   H685      1.0  0.54028  0.94052  0.73153  1.0000
  H   H686      1.0  0.52260  0.90616  0.95803  1.0000
  C   C420      1.0  0.56988  0.95813  0.79004  1.0000
  C   C421      1.0  0.55163  0.94224  0.79552  1.0000
  C   C422      1.0  0.54078  0.93608  0.77443  1.0000
  C   C423      1.0  0.54833  0.94569  0.74785  1.0000
  C   C424      1.0  0.56607  0.96217  0.74238  1.0000
  H   H687      1.0  0.54601  0.93475  0.81605  1.0000
  C   C425      1.0  0.57675  0.96849  0.76352  1.0000
  H   H688      1.0  0.57150  0.96987  0.72184  1.0000
  N   N43       1.0  0.72999  0.95058  0.58665  1.0000
  C   C426      1.0  0.73017  0.97376  0.56697  1.0000
  H   H689      1.0  0.75640  0.91914  0.60204  1.0000
  C   C427      1.0  0.58650  0.69195  0.00567  1.0000
  H   H690      1.0  0.55308  0.58629  0.99989  1.0000
  S   S176      1.0  0.60518  0.99698  0.67620  1.0000
  H   H691      1.0  0.55571  0.99480  0.83288  1.0000
  H   H692      1.0  0.70183  0.96788  0.61405  1.0000
  S   S177      1.0  0.62637  0.65611  0.99668  1.0000
  H   H693      1.0  0.74268  0.98594  0.57226  1.0000
  S   S178      1.0  0.59753  0.99042  0.75758  1.0000
  C   C428      1.0  0.52674  0.97197  0.89315  1.0000
  C   C429      1.0  0.72101  0.95696  0.61367  1.0000
  H   H694      1.0  0.59563  0.61793  0.98368  1.0000
  H   H695      1.0  0.57833  0.96274  0.80642  1.0000
  H   H696      1.0  0.54952  0.61967  0.99051  1.0000
  H   H697      1.0  0.73343  0.96846  0.62028  1.0000
  H   H698      1.0  0.67567  0.54000  0.99810  1.0000
  H   H699      1.0  0.53106  0.99821  0.78856  1.0000
  C   C430      1.0  0.75088  0.56737  0.96716  1.0000
  S   S179      1.0  0.74375  0.58986  0.98874  1.0000
  H   H700      1.0  0.71116  0.98485  0.56597  1.0000
  H   H701      1.0  0.59941  0.58435  0.99292  1.0000
  C   C431      1.0  0.54755  0.99404  0.85346  1.0000
  H   H702      1.0  0.53677  0.95762  0.85574  1.0000
  H   H703      1.0  0.71940  0.93005  0.55846  1.0000
  C   C432      1.0  0.52682  0.99196  0.90686  1.0000
  C   C433      1.0  0.59687  0.60234  0.00092  1.0000
  H   H704      1.0  0.73398  0.50708  0.99806  1.0000
  H   H705      1.0  0.54788  0.99924  0.68410  1.0000
  H   H706      1.0  0.51674  0.97119  0.70343  1.0000
  H   H707      1.0  0.71273  0.91731  0.59315  1.0000
  H   H708      1.0  0.53016  0.84717  0.00724  1.0000
  C   C434      1.0  0.71318  0.93506  0.57884  1.0000
  C   C435      1.0  0.53463  0.86439  0.99362  1.0000
  H   H709      1.0  0.55827  0.84287  0.95200  1.0000
  H   H710      1.0  0.55216  0.88954  0.94663  1.0000
  C   C436      1.0  0.75561  0.93653  0.58705  1.0000
  C   C437      1.0  0.53755  0.84412  0.95448  1.0000
  S   S180      1.0  0.51634  0.91813  0.78108  1.0000
  H   H711      1.0  0.53139  0.84505  0.93413  1.0000
  N   N44       1.0  0.52550  0.86606  0.96700  1.0000
  H   H712      1.0  0.53284  0.82638  0.96676  1.0000
  C   C438      1.0  0.53165  0.88911  0.94953  1.0000
  H   H713      1.0  0.52515  0.89078  0.92921  1.0000
  H   H714      1.0  0.55527  0.86390  0.99193  1.0000
  H   H715      1.0  0.52587  0.88068  0.00361  1.0000
  H   H716      1.0  0.51895  0.99114  0.92757  1.0000
  C   C439      1.0  0.67780  0.50485  0.98403  1.0000
  C   C440      1.0  0.55204  0.60420  0.00774  1.0000
  S   S181      1.0  0.51333  0.94604  0.90964  1.0000
  Fe  Fe90      1.0  0.70497  0.59391  0.01013  1.0000
  H   H717      1.0  0.61422  0.60289  0.01010  1.0000
  N   N45       1.0  0.85446  0.17661  0.46326  1.0000
  H   H718      1.0  0.98788  0.24152  0.46941  1.0000
  H   H719      1.0  0.87849  0.14785  0.44464  1.0000
  H   H720      1.0  0.99244  0.27256  0.42826  1.0000
  C   C441      1.0  0.82506  0.09944  0.50542  1.0000
  C   C442      1.0  0.92020  0.28726  0.45791  1.0000
  C   C443      1.0  0.93674  0.24635  0.44595  1.0000
  C   C444      1.0  0.93659  0.27231  0.44175  1.0000
  H   H721      1.0  0.94954  0.23485  0.43346  1.0000
  H   H722      1.0  0.94898  0.28079  0.42586  1.0000
  H   H723      1.0  0.96382  0.29072  0.48823  1.0000
  H   H724      1.0  0.87377  0.47700  0.24276  1.0000
  C   C445      1.0  0.97986  0.16979  0.49351  1.0000
  C   C446      1.0  0.87672  0.15714  0.46275  1.0000
  H   H725      1.0  0.79716  0.45445  0.02269  1.0000
  S   S182      1.0  0.83270  0.47491  0.13933  1.0000
  H   H726      1.0  0.84244  0.45357  0.01594  1.0000
  C   C447      1.0  0.00866  0.26019  0.43532  1.0000
  Fe  Fe91      1.0  0.78918  0.06053  0.48780  1.0000
  H   H727      1.0  0.97427  0.46587  0.27944  1.0000
  H   H728      1.0  0.88257  0.48011  0.20732  1.0000
  C   C448      1.0  0.79542  0.43506  0.08324  1.0000
  H   H729      1.0  0.99327  0.12384  0.45480  1.0000
  H   H730      1.0  0.89421  0.16515  0.46271  1.0000
  H   H731      1.0  0.94371  0.31442  0.50399  1.0000
  N   N46       1.0  0.88212  0.44190  0.01343  1.0000
  C   C449      1.0  0.92075  0.23534  0.46661  1.0000
  S   S183      1.0  0.86556  0.49311  0.08255  1.0000
  S   S184      1.0  0.92178  0.20279  0.47274  1.0000
  S   S185      1.0  0.82108  0.08293  0.47990  1.0000
  C   C450      1.0  0.90373  0.27631  0.47801  1.0000
  S   S186      1.0  0.92068  0.31948  0.45417  1.0000
  C   C451      1.0  0.90420  0.25036  0.48256  1.0000
  C   C452      1.0  0.85272  0.18813  0.48780  1.0000
  C   C453      1.0  0.83173  0.16519  0.46318  1.0000
  H   H732      1.0  0.84047  0.21119  0.43923  1.0000
  C   C454      1.0  0.99842  0.37538  0.48703  1.0000
  H   H733      1.0  0.95777  0.45880  0.41710  1.0000
  H   H734      1.0  0.95946  0.47615  0.36777  1.0000
  S   S187      1.0  0.79638  0.02351  0.47296  1.0000
  C   C455      1.0  0.76232  0.41482  0.07239  1.0000
  H   H735      1.0  0.85171  0.17395  0.50627  1.0000
  H   H736      1.0  0.01193  0.41327  0.39713  1.0000
  H   H737      1.0  0.81460  0.17940  0.46300  1.0000
  H   H738      1.0  0.00934  0.38478  0.33061  1.0000
  S   S188      1.0  0.99147  0.32230  0.44176  1.0000
  S   S189      1.0  0.96602  0.32407  0.38543  1.0000
  H   H739      1.0  0.96395  0.36956  0.47388  1.0000
  H   H740      1.0  0.98842  0.40976  0.37670  1.0000
  C   C456      1.0  0.00613  0.24256  0.45852  1.0000
  Fe  Fe92      1.0  0.95344  0.33215  0.42722  1.0000
  H   H741      1.0  0.78427  0.46060  0.11183  1.0000
  C   C457      1.0  0.00168  0.40250  0.31963  1.0000
  C   C458      1.0  0.78757  0.41808  0.06958  1.0000
  N   N47       1.0  0.99407  0.14668  0.48502  1.0000
  C   C459      1.0  0.96114  0.30064  0.50600  1.0000
  H   H742      1.0  0.95771  0.44560  0.36054  1.0000
  C   C460      1.0  0.97400  0.36971  0.49092  1.0000
  C   C461      1.0  0.00073  0.42286  0.38032  1.0000
  H   H743      1.0  0.87577  0.14238  0.48064  1.0000
  C   C462      1.0  0.98303  0.14115  0.46190  1.0000
  H   H744      1.0  0.84530  0.46521  0.19847  1.0000
  H   H745      1.0  0.97684  0.31152  0.50477  1.0000
  C   C463      1.0  0.88062  0.42266  0.03758  1.0000
  C   C464      1.0  0.85680  0.19602  0.43938  1.0000
  N   N48       1.0  0.84495  0.49690  0.21820  1.0000
  C   C465      1.0  0.87154  0.48985  0.22344  1.0000
  S   S190      1.0  0.82614  0.44180  0.07634  1.0000
  C   C466      1.0  0.00784  0.44079  0.28922  1.0000
  S   S191      1.0  0.89946  0.48494  0.14791  1.0000
  H   H746      1.0  0.86925  0.19751  0.48809  1.0000
  Fe  Fe93      1.0  0.00464  0.31752  0.39920  1.0000
  H   H747      1.0  0.87390  0.20486  0.43896  1.0000
  H   H748      1.0  0.89689  0.40748  0.03731  1.0000
  H   H749      1.0  0.94596  0.43876  0.30772  1.0000
  S   S192      1.0  0.95590  0.37300  0.41735  1.0000
  C   C467      1.0  0.96599  0.43288  0.30657  1.0000
  H   H750      1.0  0.83548  0.46034  0.23381  1.0000
  C   C468      1.0  0.97582  0.41017  0.32140  1.0000
  H   H751      1.0  0.85810  0.18805  0.42043  1.0000
  H   H752      1.0  0.80087  0.40785  0.05630  1.0000
  H   H753      1.0  0.83267  0.15553  0.44543  1.0000
  C   C469      1.0  0.97081  0.45807  0.36399  1.0000
  H   H754      1.0  0.98296  0.46181  0.34487  1.0000
  H   H755      1.0  0.82914  0.15101  0.48139  1.0000
  Fe  Fe94      1.0  0.97170  0.36445  0.37649  1.0000
  H   H756      1.0  0.98072  0.18619  0.47725  1.0000
  H   H757      1.0  0.99213  0.48182  0.39527  1.0000
  C   C470      1.0  0.83462  0.47439  0.21521  1.0000
  C   C471      1.0  0.98198  0.44831  0.29072  1.0000
  H   H758      1.0  0.93988  0.47659  0.18113  1.0000
  Fe  Fe95      1.0  0.99522  0.36232  0.42798  1.0000
  S   S193      1.0  0.95540  0.39249  0.34294  1.0000
  H   H759      1.0  0.85915  0.47076  0.03282  1.0000
  Fe  Fe96      1.0  0.01127  0.50048  0.26112  1.0000
  H   H760      1.0  0.88004  0.43082  0.05634  1.0000
  Fe  Fe97      1.0  0.83172  0.47420  0.09545  1.0000
  N   N49       1.0  0.98581  0.44653  0.38657  1.0000
  H   H761      1.0  0.83159  0.49512  0.26002  1.0000
  H   H762      1.0  0.86334  0.41389  0.03916  1.0000
  C   C472      1.0  0.86008  0.46152  0.01476  1.0000
  S   S194      1.0  0.01166  0.35710  0.38642  1.0000
  H   H763      1.0  0.96308  0.13861  0.46726  1.0000
  C   C473      1.0  0.00276  0.46369  0.39059  1.0000
  H   H764      1.0  0.98355  0.15676  0.44470  1.0000
  C   C474      1.0  0.93098  0.49574  0.18099  1.0000
  H   H765      1.0  0.97967  0.43178  0.42859  1.0000
  H   H766      1.0  0.95559  0.42886  0.40863  1.0000
  C   C475      1.0  0.96897  0.44133  0.41133  1.0000
  C   C476      1.0  0.84925  0.10267  0.50926  1.0000
  H   H767      1.0  0.90504  0.46254  0.03019  1.0000
  H   H768      1.0  0.77489  0.48294  0.05332  1.0000
  H   H769      1.0  0.00302  0.10793  0.50193  1.0000
  C   C477      1.0  0.99283  0.12583  0.50762  1.0000
  C   C478      1.0  0.77823  0.44783  0.10080  1.0000
  H   H770      1.0  0.89084  0.28789  0.49034  1.0000
  H   H771      1.0  0.83577  0.20243  0.48934  1.0000
  H   H772      1.0  0.86518  0.09335  0.49806  1.0000
  H   H773      1.0  0.89154  0.24211  0.49825  1.0000
  H   H774      1.0  0.95983  0.16796  0.49907  1.0000
  H   H775      1.0  0.76858  0.44383  0.01926  1.0000
  Fe  Fe98      1.0  0.86455  0.49696  0.12613  1.0000
  H   H776      1.0  0.81474  0.47913  0.21054  1.0000
  N   N50       1.0  0.76680  0.48375  0.01278  1.0000
  H   H777      1.0  0.80010  0.50004  0.01306  1.0000
  C   C479      1.0  0.90509  0.45322  0.01232  1.0000
  H   H778      1.0  0.92213  0.43894  0.01161  1.0000
  C   C480      1.0  0.78054  0.45844  0.01101  1.0000
  C   C481      1.0  0.01128  0.37542  0.50928  1.0000
  N   N51       1.0  0.94646  0.16384  0.65842  1.0000
  H   H779      1.0  0.93396  0.40274  0.78080  1.0000
  H   H780      1.0  0.95724  0.49637  0.78202  1.0000
  Fe  Fe99      1.0  0.87476  0.16487  0.55683  1.0000
  H   H781      1.0  0.87165  0.11963  0.53085  1.0000
  C   C482      1.0  0.80825  0.12684  0.53819  1.0000
  Fe  Fe100     1.0  0.90445  0.20155  0.57346  1.0000
  S   S195      1.0  0.93846  0.18979  0.54677  1.0000
  S   S196      1.0  0.90479  0.23115  0.59907  1.0000
  C   C483      1.0  0.94726  0.16566  0.62900  1.0000
  C   C484      1.0  0.83248  0.13063  0.54144  1.0000
  Fe  Fe101     1.0  0.93030  0.15107  0.56250  1.0000
  H   H782      1.0  0.98528  0.14812  0.65928  1.0000
  H   H783      1.0  0.94315  0.36086  0.51989  1.0000
  S   S197      1.0  0.89765  0.16270  0.59131  1.0000
  C   C485      1.0  0.97927  0.24492  0.62228  1.0000
  C   C486      1.0  0.95694  0.25981  0.62967  1.0000
  C   C487      1.0  0.93421  0.25554  0.62224  1.0000
  C   C488      1.0  0.93377  0.23678  0.60687  1.0000
  C   C489      1.0  0.95629  0.22250  0.59870  1.0000
  C   C490      1.0  0.97894  0.22622  0.60683  1.0000
  H   H784      1.0  0.95705  0.27423  0.64171  1.0000
  H   H785      1.0  0.91690  0.26678  0.62851  1.0000
  H   H786      1.0  0.95636  0.20828  0.58654  1.0000
  H   H787      1.0  0.99622  0.21474  0.60090  1.0000
  H   H788      1.0  0.00680  0.39415  0.64920  1.0000
  H   H789      1.0  0.96565  0.17006  0.61897  1.0000
  H   H790      1.0  0.91824  0.13974  0.66589  1.0000
  C   C491      1.0  0.96647  0.14396  0.66841  1.0000
  H   H791      1.0  0.93651  0.49659  0.86485  1.0000
  H   H792      1.0  0.92039  0.28193  0.52995  1.0000
  C   C492      1.0  0.98495  0.12855  0.58789  1.0000
  Fe  Fe102     1.0  0.77698  0.00948  0.51283  1.0000
  C   C493      1.0  0.92179  0.15777  0.67081  1.0000
  H   H793      1.0  0.86057  0.47629  0.99683  1.0000
  C   C494      1.0  0.95030  0.18799  0.66515  1.0000
  S   S198      1.0  0.83672  0.15249  0.56154  1.0000
  H   H794      1.0  0.97935  0.38495  0.77913  1.0000
  H   H795      1.0  0.99923  0.27516  0.53346  1.0000
  H   H796      1.0  0.98421  0.16212  0.55892  1.0000
  S   S199      1.0  0.95915  0.11908  0.57714  1.0000
  H   H797      1.0  0.78577  0.10871  0.51740  1.0000
  S   S200      1.0  0.87801  0.20524  0.54180  1.0000
  S   S201      1.0  0.99996  0.49690  0.73856  1.0000
  S   S202      1.0  0.98097  0.32038  0.64110  1.0000
  H   H798      1.0  0.92036  0.15626  0.69307  1.0000
  H   H799      1.0  0.96868  0.19324  0.65591  1.0000
  H   H800      1.0  0.96432  0.12559  0.66316  1.0000
  H   H801      1.0  0.90637  0.17244  0.66335  1.0000
  H   H802      1.0  0.93254  0.18057  0.62070  1.0000
  H   H803      1.0  0.93559  0.20343  0.65764  1.0000
  H   H804      1.0  0.94425  0.14783  0.62313  1.0000
  H   H805      1.0  0.94977  0.18740  0.68723  1.0000
  N   N52       1.0  0.95946  0.28303  0.53143  1.0000
  H   H806      1.0  0.00986  0.36945  0.55250  1.0000
  H   H807      1.0  0.94518  0.41537  0.72030  1.0000
  H   H808      1.0  0.00129  0.12939  0.52527  1.0000
  H   H809      1.0  0.97252  0.45378  0.75978  1.0000
  H   H810      1.0  0.79232  0.13650  0.54907  1.0000
  H   H811      1.0  0.99085  0.09649  0.61872  1.0000
  H   H812      1.0  0.93773  0.31084  0.55339  1.0000
  C   C495      1.0  0.99327  0.15083  0.57550  1.0000
  S   S203      1.0  0.77263  0.04570  0.52885  1.0000
  H   H813      1.0  0.80741  0.42612  0.95906  1.0000
  H   H814      1.0  0.76976  0.40782  0.98098  1.0000
  H   H815      1.0  0.77004  0.44678  0.93413  1.0000
  S   S204      1.0  0.90707  0.14989  0.52939  1.0000
  H   H816      1.0  0.77456  0.45230  0.89824  1.0000
  Fe  Fe103     1.0  0.84993  0.44305  0.92252  1.0000
  S   S205      1.0  0.82721  0.45981  0.88812  1.0000
  S   S206      1.0  0.85656  0.40264  0.93991  1.0000
  C   C496      1.0  0.98301  0.26529  0.53341  1.0000
  H   H817      1.0  0.98685  0.25445  0.51632  1.0000
  C   C497      1.0  0.88262  0.43030  0.98910  1.0000
  S   S207      1.0  0.88301  0.46148  0.90489  1.0000
  C   C498      1.0  0.96221  0.36476  0.51699  1.0000
  H   H818      1.0  0.00177  0.40215  0.75837  1.0000
  H   H819      1.0  0.93614  0.25596  0.55106  1.0000
  H   H820      1.0  0.88408  0.44422  0.97045  1.0000
  C   C499      1.0  0.97513  0.36459  0.53923  1.0000
  H   H821      1.0  0.80962  0.33423  0.97606  1.0000
  S   S208      1.0  0.96060  0.35732  0.57174  1.0000
  C   C500      1.0  0.90617  0.48020  0.82300  1.0000
  H   H822      1.0  0.98221  0.25156  0.55224  1.0000
  C   C501      1.0  0.94635  0.48609  0.79803  1.0000
  C   C502      1.0  0.95820  0.46616  0.81531  1.0000
  C   C503      1.0  0.94394  0.45288  0.83591  1.0000
  C   C504      1.0  0.91798  0.45984  0.83970  1.0000
  Fe  Fe104     1.0  0.85892  0.48146  0.87280  1.0000
  H   H823      1.0  0.95301  0.43719  0.84906  1.0000
  H   H824      1.0  0.90713  0.44931  0.85547  1.0000
  H   H825      1.0  0.97788  0.40355  0.71847  1.0000
  C   C505      1.0  0.96053  0.40527  0.73243  1.0000
  Fe  Fe105     1.0  0.91180  0.18995  0.51653  1.0000
  H   H826      1.0  0.98584  0.41342  0.78786  1.0000
  C   C506      1.0  0.97003  0.44347  0.74350  1.0000
  N   N53       1.0  0.96340  0.41849  0.75467  1.0000
  C   C507      1.0  0.95528  0.29715  0.55429  1.0000
  H   H827      1.0  0.96641  0.14180  0.69062  1.0000
  C   C508      1.0  0.80783  0.40614  0.96288  1.0000
  C   C509      1.0  0.82972  0.39046  0.95553  1.0000
  C   C510      1.0  0.83035  0.36458  0.96063  1.0000
  C   C511      1.0  0.80907  0.35431  0.97252  1.0000
  H   H828      1.0  0.94124  0.43095  0.78920  1.0000
  H   H829      1.0  0.84724  0.35241  0.95504  1.0000
  H   H830      1.0  0.98788  0.44217  0.73019  1.0000
  H   H831      1.0  0.95530  0.45505  0.73145  1.0000
  H   H832      1.0  0.92411  0.43238  0.76085  1.0000
  C   C512      1.0  0.78655  0.39578  0.97526  1.0000
  C   C513      1.0  0.99720  0.11382  0.60917  1.0000
  S   S209      1.0  0.83414  0.47185  0.94858  1.0000
  S   S210      1.0  0.99061  0.45680  0.81135  1.0000
  H   H833      1.0  0.95634  0.38600  0.74000  1.0000
  H   H834      1.0  0.77880  0.42078  0.91596  1.0000
  Fe  Fe106     1.0  0.98980  0.34063  0.59957  1.0000
  C   C514      1.0  0.99980  0.36958  0.53538  1.0000
  C   C515      1.0  0.98344  0.40408  0.77070  1.0000
  C   C516      1.0  0.78712  0.36979  0.97987  1.0000
  C   C517      1.0  0.93962  0.42123  0.77211  1.0000
  Fe  Fe107     1.0  0.86528  0.49202  0.92777  1.0000
  C   C518      1.0  0.92030  0.49293  0.80173  1.0000
  H   H835      1.0  0.79035  0.50090  0.98031  1.0000
  H   H836      1.0  0.78708  0.45610  0.98984  1.0000
  H   H837      1.0  0.89879  0.41512  0.98755  1.0000
  Fe  Fe108     1.0  0.81357  0.49035  0.91300  1.0000
  H   H838      1.0  0.90689  0.46765  0.99416  1.0000
  C   C519      1.0  0.76717  0.43951  0.91574  1.0000
  H   H839      1.0  0.95385  0.28454  0.57387  1.0000
  H   H840      1.0  0.97079  0.30796  0.55446  1.0000
  H   H841      1.0  0.86537  0.42186  0.98911  1.0000
  C   C520      1.0  0.85295  0.11786  0.52754  1.0000
  H   H842      1.0  0.97314  0.12312  0.51467  1.0000
  H   H843      1.0  0.94124  0.25787  0.51522  1.0000
  C   C521      1.0  0.93840  0.26907  0.53195  1.0000
  C   C522      1.0  0.80452  0.11110  0.52034  1.0000
  H   H844      1.0  0.98730  0.17438  0.51121  1.0000
  S   S211      1.0  0.00758  0.24917  0.63273  1.0000
  Fe  Fe109     1.0  0.01035  0.29003  0.62796  1.0000
  S   S212      1.0  0.87419  0.49102  0.82955  1.0000
  H   H845      1.0  0.96994  0.77066  0.47775  1.0000
  S   S213      1.0  0.99362  0.57232  0.24453  1.0000
  C   C523      1.0  0.79866  0.61284  0.05792  1.0000
  C   C524      1.0  0.97529  0.78974  0.47461  1.0000
  Fe  Fe110     1.0  0.97277  0.54221  0.23743  1.0000
  S   S214      1.0  0.93627  0.55419  0.21840  1.0000
  Fe  Fe111     1.0  0.80822  0.51202  0.13175  1.0000
  Fe  Fe112     1.0  0.83820  0.52849  0.08005  1.0000
  S   S215      1.0  0.83600  0.55842  0.04439  1.0000
  S   S216      1.0  0.80451  0.50926  0.08898  1.0000
  S   S217      1.0  0.84001  0.53433  0.12232  1.0000
  C   C525      1.0  0.00864  0.87723  0.48848  1.0000
  H   H846      1.0  0.84781  0.94692  0.48974  1.0000
  C   C526      1.0  0.91095  0.50522  0.16534  1.0000
  C   C527      1.0  0.99633  0.66941  0.49793  1.0000
  N   N54       1.0  0.99896  0.79105  0.45715  1.0000
  H   H847      1.0  0.85155  0.92104  0.45344  1.0000
  C   C528      1.0  0.87156  0.91488  0.45705  1.0000
  H   H848      1.0  0.95955  0.80292  0.46557  1.0000
  H   H849      1.0  0.88203  0.91001  0.43797  1.0000
  H   H850      1.0  0.83825  0.52530  0.24358  1.0000
  H   H851      1.0  0.94224  0.74908  0.33008  1.0000
  H   H852      1.0  0.88844  0.97218  0.45415  1.0000
  C   C529      1.0  0.93929  0.51076  0.19691  1.0000
  H   H853      1.0  0.91040  0.90784  0.48732  1.0000
  H   H854      1.0  0.80512  0.59915  0.07549  1.0000
  C   C530      1.0  0.84293  0.51505  0.19318  1.0000
  C   C531      1.0  0.86780  0.93977  0.49264  1.0000
  H   H855      1.0  0.00745  0.82261  0.47241  1.0000
  C   C532      1.0  0.92747  0.53532  0.19739  1.0000
  C   C533      1.0  0.89953  0.52997  0.16531  1.0000
  C   C534      1.0  0.90761  0.54488  0.18151  1.0000
  H   H856      1.0  0.88439  0.53761  0.15299  1.0000
  H   H857      1.0  0.89854  0.56394  0.18168  1.0000
  N   N55       1.0  0.77318  0.61025  0.05269  1.0000
  C   C535      1.0  0.79295  0.94743  0.50026  1.0000
  N   N56       1.0  0.88218  0.93418  0.46720  1.0000
  H   H858      1.0  0.76223  0.96301  0.31907  1.0000
  C   C536      1.0  0.00491  0.81681  0.45307  1.0000
  H   H859      1.0  0.98975  0.83053  0.44371  1.0000
  C   C537      1.0  0.77268  0.58435  0.04859  1.0000
  H   H860      1.0  0.78203  0.96360  0.48964  1.0000
  H   H861      1.0  0.88709  0.53677  0.03420  1.0000
  Fe  Fe113     1.0  0.85719  0.85278  0.50226  1.0000
  H   H862      1.0  0.82315  0.52058  0.18836  1.0000
  H   H863      1.0  0.81062  0.51414  0.23725  1.0000
  H   H864      1.0  0.99224  0.76456  0.43322  1.0000
  H   H865      1.0  0.91998  0.91995  0.45335  1.0000
  C   C538      1.0  0.94596  0.73972  0.31182  1.0000
  H   H866      1.0  0.85046  0.53237  0.19461  1.0000
  H   H867      1.0  0.86097  0.96455  0.44306  1.0000
  C   C539      1.0  0.97240  0.70765  0.28977  1.0000
  H   H868      1.0  0.79401  0.92481  0.46921  1.0000
  C   C540      1.0  0.99609  0.78411  0.43093  1.0000
  S   S218      1.0  0.77604  0.52383  0.16124  1.0000
  C   C541      1.0  0.99009  0.73083  0.31717  1.0000
  H   H869      1.0  0.00717  0.58667  0.36759  1.0000
  H   H870      1.0  0.94606  0.69240  0.33640  1.0000
  C   C542      1.0  0.96288  0.70096  0.33785  1.0000
  H   H871      1.0  0.85366  0.50700  0.17584  1.0000
  S   S219      1.0  0.99754  0.56324  0.32435  1.0000
  H   H872      1.0  0.79960  0.63189  0.06201  1.0000
  H   H873      1.0  0.97672  0.79477  0.49463  1.0000
  S   S220      1.0  0.00678  0.51986  0.21889  1.0000
  C   C543      1.0  0.87712  0.53531  0.01746  1.0000
  H   H874      1.0  0.94901  0.75437  0.29417  1.0000
  H   H875      1.0  0.77883  0.57058  0.06620  1.0000
  C   C544      1.0  0.99572  0.64646  0.48982  1.0000
  H   H876      1.0  0.97625  0.72125  0.27139  1.0000
  S   S221      1.0  0.82318  0.87781  0.48705  1.0000
  Fe  Fe114     1.0  0.99930  0.71924  0.39529  1.0000
  H   H877      1.0  0.97890  0.68547  0.33999  1.0000
  H   H878      1.0  0.98739  0.73999  0.33546  1.0000
  C   C545      1.0  0.00992  0.59949  0.34911  1.0000
  H   H879      1.0  0.00694  0.71635  0.31904  1.0000
  S   S222      1.0  0.97555  0.52058  0.27921  1.0000
  H   H880      1.0  0.99339  0.87740  0.45124  1.0000
  H   H881      1.0  0.93167  0.79143  0.40218  1.0000
  H   H882      1.0  0.86825  0.92280  0.50821  1.0000
  S   S223      1.0  0.96839  0.75114  0.38779  1.0000
  C   C546      1.0  0.79970  0.92551  0.48875  1.0000
  H   H883      1.0  0.87226  0.89730  0.47167  1.0000
  S   S224      1.0  0.88410  0.83716  0.47016  1.0000
  H   H884      1.0  0.87534  0.95415  0.50102  1.0000
  H   H885      1.0  0.95965  0.70942  0.35667  1.0000
  H   H886      1.0  0.98035  0.79644  0.42103  1.0000
  S   S225      1.0  0.94381  0.86594  0.46554  1.0000
  H   H887      1.0  0.78534  0.57959  0.03065  1.0000
  S   S226      1.0  0.89507  0.76226  0.49255  1.0000
  H   H888      1.0  0.99438  0.74517  0.29965  1.0000
  C   C547      1.0  0.94779  0.75372  0.41677  1.0000
  C   C548      1.0  0.94782  0.73393  0.43821  1.0000
  C   C549      1.0  0.93133  0.73645  0.46141  1.0000
  C   C550      1.0  0.91527  0.75892  0.46336  1.0000
  C   C551      1.0  0.91563  0.77877  0.44208  1.0000
  C   C552      1.0  0.93169  0.77609  0.41871  1.0000
  H   H889      1.0  0.96024  0.71656  0.43679  1.0000
  H   H890      1.0  0.93112  0.72103  0.47783  1.0000
  H   H891      1.0  0.90301  0.79596  0.44326  1.0000
  S   S227      1.0  0.99518  0.67986  0.39305  1.0000
  H   H892      1.0  0.98888  0.69255  0.29118  1.0000
  C   C553      1.0  0.96664  0.86967  0.48534  1.0000
  C   C554      1.0  0.98980  0.87514  0.47291  1.0000
  C   C555      1.0  0.88071  0.95716  0.44710  1.0000
  C   C556      1.0  0.85174  0.54499  0.01717  1.0000
  H   H893      1.0  0.98152  0.61139  0.49983  1.0000
  Fe  Fe115     1.0  0.99902  0.54907  0.28480  1.0000
  H   H894      1.0  0.95606  0.69892  0.28693  1.0000
  H   H895      1.0  0.91742  0.93913  0.47925  1.0000
  H   H896      1.0  0.92874  0.73210  0.30963  1.0000
  H   H897      1.0  0.81243  0.60929  0.04039  1.0000
  H   H898      1.0  0.89142  0.95362  0.42767  1.0000
  Fe  Fe116     1.0  0.91301  0.84872  0.49101  1.0000
  N   N57       1.0  0.96781  0.71980  0.31411  1.0000
  C   C557      1.0  0.90862  0.92497  0.47196  1.0000
  Fe  Fe117     1.0  0.88881  0.80197  0.49985  1.0000
  C   C558      1.0  0.00610  0.59279  0.32461  1.0000
  H   H899      1.0  0.00604  0.60478  0.28197  1.0000
  C   C559      1.0  0.00946  0.60957  0.30085  1.0000
  H   H900      1.0  0.00674  0.68288  0.48545  1.0000
  H   H901      1.0  0.76654  0.64740  0.03042  1.0000
  C   C560      1.0  0.76607  0.62768  0.02829  1.0000
  H   H902      1.0  0.88044  0.50654  0.22426  1.0000
  C   C561      1.0  0.83070  0.50835  0.24080  1.0000
  C   C562      1.0  0.81403  0.90458  0.50232  1.0000
  C   C563      1.0  0.98208  0.62912  0.50614  1.0000
  H   H903      1.0  0.95454  0.50320  0.20916  1.0000
  S   S228      1.0  0.89239  0.50628  0.94870  1.0000
  S   S229      1.0  0.84323  0.51372  0.89468  1.0000
  H   H904      1.0  0.00704  0.79404  0.55163  1.0000
  H   H905      1.0  0.88233  0.54600  0.87553  1.0000
  H   H906      1.0  0.90282  0.53643  0.83148  1.0000
  H   H907      1.0  0.95875  0.62110  0.54300  1.0000
  H   H908      1.0  0.79001  0.57109  0.96104  1.0000
  C   C564      1.0  0.81421  0.92722  0.53929  1.0000
  Fe  Fe118     1.0  0.98665  0.68026  0.58632  1.0000
  C   C565      1.0  0.97164  0.61613  0.63828  1.0000
  H   H909      1.0  0.93290  0.71202  0.59320  1.0000
  H   H910      1.0  0.00313  0.55928  0.62765  1.0000
  C   C566      1.0  0.87676  0.52185  0.97451  1.0000
  C   C567      1.0  0.97077  0.65707  0.53922  1.0000
  H   H911      1.0  0.80159  0.53684  0.93370  1.0000
  H   H912      1.0  0.99638  0.61994  0.71452  1.0000
  S   S230      1.0  0.95826  0.66217  0.57168  1.0000
  C   C568      1.0  0.78229  0.54193  0.94111  1.0000
  C   C569      1.0  0.85121  0.53101  0.97446  1.0000
  S   S231      1.0  0.92047  0.81217  0.51771  1.0000
  H   H913      1.0  0.99833  0.62379  0.58994  1.0000
  C   C570      1.0  0.88974  0.52409  0.99590  1.0000
  H   H914      1.0  0.90066  0.54517  0.90283  1.0000
  N   N58       1.0  0.92182  0.53520  0.86658  1.0000
  C   C571      1.0  0.92032  0.54135  0.83723  1.0000
  C   C572      1.0  0.94555  0.54118  0.87332  1.0000
  C   C573      1.0  0.82127  0.90544  0.52760  1.0000
  Fe  Fe119     1.0  0.99846  0.71810  0.61741  1.0000
  H   H915      1.0  0.93631  0.53082  0.82605  1.0000
  H   H916      1.0  0.95784  0.60868  0.59192  1.0000
  H   H917      1.0  0.84114  0.52920  0.95796  1.0000
  H   H918      1.0  0.96197  0.53019  0.86323  1.0000
  H   H919      1.0  0.95586  0.60941  0.65210  1.0000
  H   H920      1.0  0.98556  0.69193  0.52943  1.0000
  H   H921      1.0  0.94992  0.58378  0.61773  1.0000
  H   H922      1.0  0.90946  0.51686  0.99603  1.0000
  H   H923      1.0  0.81904  0.55019  0.99566  1.0000
  C   C574      1.0  0.96207  0.86684  0.51336  1.0000
  H   H924      1.0  0.94703  0.56134  0.86692  1.0000
  H   H925      1.0  0.94710  0.53676  0.89539  1.0000
  C   C575      1.0  0.98428  0.67451  0.52286  1.0000
  S   S232      1.0  0.85894  0.81624  0.53022  1.0000
  H   H926      1.0  0.89151  0.69792  0.59592  1.0000
  H   H927      1.0  0.92431  0.72947  0.53440  1.0000
  H   H928      1.0  0.90081  0.57027  0.87496  1.0000
  C   C576      1.0  0.83875  0.54291  0.99568  1.0000
  H   H929      1.0  0.92051  0.56161  0.82995  1.0000
  H   H930      1.0  0.97469  0.57772  0.59174  1.0000
  C   C577      1.0  0.80020  0.94825  0.52555  1.0000
  H   H931      1.0  0.94414  0.86265  0.52307  1.0000
  C   C578      1.0  0.90050  0.54984  0.88058  1.0000
  C   C579      1.0  0.98073  0.86975  0.52891  1.0000
  C   C580      1.0  0.00412  0.87476  0.51644  1.0000
  C   C581      1.0  0.96921  0.63461  0.53056  1.0000
  H   H932      1.0  0.76277  0.93107  0.56706  1.0000
  N   N59       1.0  0.98404  0.59712  0.62170  1.0000
  H   H933      1.0  0.88385  0.76756  0.58153  1.0000
  S   S233      1.0  0.89193  0.82257  0.59109  1.0000
  H   H934      1.0  0.89432  0.71980  0.53582  1.0000
  H   H935      1.0  0.93727  0.77496  0.66529  1.0000
  C   C582      1.0  0.95748  0.76948  0.62709  1.0000
  H   H936      1.0  0.91876  0.69981  0.55320  1.0000
  C   C583      1.0  0.93799  0.79281  0.58792  1.0000
  C   C584      1.0  0.91765  0.80263  0.60449  1.0000
  C   C585      1.0  0.91757  0.79626  0.63241  1.0000
  C   C586      1.0  0.95783  0.77621  0.59918  1.0000
  H   H937      1.0  0.90355  0.76851  0.55057  1.0000
  H   H938      1.0  0.93864  0.79815  0.56651  1.0000
  H   H939      1.0  0.90202  0.80397  0.64537  1.0000
  Fe  Fe120     1.0  0.89050  0.82886  0.54634  1.0000
  S   S234      1.0  0.99132  0.67840  0.62982  1.0000
  C   C587      1.0  0.93751  0.77986  0.64368  1.0000
  H   H940      1.0  0.83209  0.88923  0.53827  1.0000
  H   H941      1.0  0.87652  0.72630  0.60782  1.0000
  C   C588      1.0  0.88326  0.71769  0.58943  1.0000
  H   H942      1.0  0.81978  0.92781  0.55891  1.0000
  C   C589      1.0  0.89013  0.75768  0.56390  1.0000
  H   H943      1.0  0.87369  0.75862  0.55247  1.0000
  H   H944      1.0  0.86667  0.71750  0.57866  1.0000
  C   C590      1.0  0.92343  0.73140  0.58698  1.0000
  S   S235      1.0  0.98181  0.74832  0.64163  1.0000
  H   H945      1.0  0.97351  0.76905  0.58621  1.0000
  H   H946      1.0  0.93747  0.74197  0.57435  1.0000
  N   N60       1.0  0.90172  0.73159  0.57206  1.0000
  H   H947      1.0  0.91786  0.74032  0.60538  1.0000
  S   S236      1.0  0.79147  0.97512  0.54068  1.0000
  C   C591      1.0  0.77573  0.56122  0.95668  1.0000
  H   H948      1.0  0.97708  0.86790  0.55054  1.0000
  H   H949      1.0  0.91116  0.50858  0.78861  1.0000
  C   C592      1.0  0.91015  0.71961  0.54789  1.0000
  C   C593      1.0  0.96582  0.59151  0.60507  1.0000
  S   S237      1.0  0.99008  0.72063  0.57489  1.0000
  S   S238      1.0  0.88602  0.86693  0.52128  1.0000
  H   H950      1.0  0.76899  0.94798  0.59204  1.0000
  H   H951      1.0  0.77356  0.52183  0.00208  1.0000
  C   C594      1.0  0.99365  0.57411  0.63942  1.0000
  H   H952      1.0  0.96400  0.63370  0.62553  1.0000
  S   S239      1.0  0.00605  0.56743  0.73381  1.0000
  H   H953      1.0  0.99223  0.81382  0.59218  1.0000
  H   H954      1.0  0.98493  0.62104  0.65082  1.0000
  C   C595      1.0  0.92086  0.50828  0.87520  1.0000
  H   H955      1.0  0.97838  0.56641  0.65330  1.0000
  H   H956      1.0  0.00887  0.83957  0.57883  1.0000
  C   C596      1.0  0.00505  0.60679  0.60402  1.0000
  C   C597      1.0  0.01068  0.82041  0.59068  1.0000
  C   C598      1.0  0.76392  0.52899  0.93566  1.0000
  H   H957      1.0  0.90311  0.50323  0.87053  1.0000
  S   S240      1.0  0.77213  0.50263  0.91940  1.0000
  C   C599      1.0  0.78344  0.50245  0.00158  1.0000
  H   H958      1.0  0.92200  0.50281  0.89723  1.0000
  H   H959      1.0  0.00747  0.57779  0.65210  1.0000
  C   C600      1.0  0.01171  0.61180  0.70159  1.0000
  H   H960      1.0  0.77881  0.62330  0.01026  1.0000
