data_image0
_chemical_formula_structural       CH4CHSC3NH2SHC2SH3FeC5H4CFeNH2CNH3SHSH2CHC2HCHSHCH4C3HCFe2HC2H4SHFeS2HC2SH2CFeH2C2H3SH3CFeHC2HCHCH2CHCSCHFeNH5FeHC2SHSCSC2HCHCH3CH2CSHFeCH2FeHS2CH3SHC2SH3CFeS2HSFeHFeNFeH2CH2C3H2NH2CH3S2HCHSH4SCHSHC3H5CSFe2CSCHFeCH2CHCHSH5SCHSCSCN2CH2CH2FeH4SHCSH3C4SH4SC2HNH2FeS2NFeHFeCFeS3CHC2HC2H2CHC5HC2H2C2HSCH2CHCSH2CSH2CHSH4C2HFe2HC3HC3H4SNHNHFeCNCH2SC3HFeSHS2H6CH2C2H6CH4SCS2HFeSFeSH2FeSFeSH2SHSCH2CH2CH4C4H3C4HCH2C2HFeHNH5NS2H2C3H3NHCH2CFeCHCHCHSH3C2HCHC3H8CHCH2NSCH2C2HCHFeH4S2H3C5H3CHCSHNHSHC2HCHC2H5CHFe3H2SHC3S2CHCN2CH3SH2C2H2C3H2CH3CSH3CHCHCH3SHC3HNHFeH5C2HCHCHCHCH7CH3CHCFeSCFeS2FeSHCS2CHFeHSH6SCH3NCNHFeHCSC7H3C5H4SCH5SCFeCH3C3HCH2NCH3CHFeCHCH4SC3HFeS2CFeSCFeC3FeH2CH2S2CH2S2HCH2CH2SCH3CH2CHCH2C2HSC3HC3HCH2C3HC4HNFeHCHS2H2NHCHCHC2H3NH2CH2SH3CHS2HFeS2H3SHFeSCSFeS2C2H6SHCHC2H2SH2C6H4SC5SH4CHCHNCH2SFeHFeHC2H3CH2SC3HC2HFeH4NH4CHCH2CH8CHSHNFeSHCS2HCFeSFeSH4CHSHCHCH2C4H2CHSCH4C4H3C2H2CFeH2CSH2CHC4H3SH5FeCHC3NH2CHSH2SCHSH5CH4CH3FeCFeS2H2C2NH3SH5CFeH2FeH2CHCHFeCSH4SFeHS2CSHSHCH2FeH5CSHCHCFeCH2CNCFeSC3SNH2CS2CHCH3CHCHSCHFeH2FeC2HC3H2CHNCHC2H5CHCHC2HSHCH4C2HC2SH5SHNSHCH2FeSH2FeCH3C2HFeCSNCH2CH3SHCHCH3SHCHFeH2SFeCNSH2CHCFeCFeS2H2CFeS2FeSCSHS2C6HCH2SH2CH2FeCH2FeH3FeNHC3HSCH3SHSHCHCSH3NCHC3H3C2H4C2HCH2CH2CH3CH2CFe2S2H2CH2S2CH4SCHCH2FeC3HCNCHCH3C2SCSNCH3FeS2CFeH2SHSH3NH2FeCHCHCNSH2CS2CH2CHCH2C4H5CH3CH2C2HSHNH2CHC2FeH2CH4FeCFeHCH2CHSCH4CSH2C2H2CH2C3H6CHCHSHCH3CH3CFeCHSHS2FeC3HCH2CH2NH2C3H5CFeCNHSH4SC4NSHSCH3S2CHCH
_chemical_formula_sum              "C480 H768 S192 N48 Fe96"
_cell_length_a       41.7424
_cell_length_b       38.4199
_cell_length_c       47.2915
_cell_angle_alpha    84.4562
_cell_angle_beta     89.9533
_cell_angle_gamma    89.7068

_space_group_name_H-M_alt    "P 1"
_space_group_IT_number       1

loop_
  _space_group_symop_operation_xyz
  'x, y, z'

loop_
  _atom_site_type_symbol
  _atom_site_label
  _atom_site_symmetry_multiplicity
  _atom_site_fract_x
  _atom_site_fract_y
  _atom_site_fract_z
  _atom_site_occupancy
  C   C1        1.0  0.11219  0.11827  0.19917  1.0000
  H   H1        1.0  0.19662  0.12590  0.28845  1.0000
  H   H2        1.0  0.16380  0.21251  0.30409  1.0000
  H   H3        1.0  0.13867  0.21804  0.27340  1.0000
  H   H4        1.0  0.17996  0.17533  0.23555  1.0000
  C   C2        1.0  0.19473  0.15461  0.29006  1.0000
  H   H5        1.0  0.13730  0.17187  0.23974  1.0000
  S   S1        1.0  0.16407  0.08790  0.17649  1.0000
  C   C3        1.0  0.13730  0.15104  0.29550  1.0000
  C   C4        1.0  0.51395  0.15221  0.31981  1.0000
  C   C5        1.0  0.49226  0.21929  0.24822  1.0000
  N   N1        1.0  0.51030  0.25066  0.25447  1.0000
  H   H6        1.0  0.42959  0.08630  0.22929  1.0000
  H   H7        1.0  0.32763  0.07391  0.17771  1.0000
  S   S2        1.0  0.31318  0.09615  0.23322  1.0000
  H   H8        1.0  0.53269  0.14378  0.30620  1.0000
  C   C6        1.0  0.46543  0.12342  0.10957  1.0000
  C   C7        1.0  0.13524  0.09170  0.20284  1.0000
  S   S3        1.0  0.07406  0.20856  0.24386  1.0000
  H   H9        1.0  0.50211  0.07189  0.13311  1.0000
  H   H10       1.0  0.19744  0.37086  0.30601  1.0000
  H   H11       1.0  0.17377  0.44674  0.29565  1.0000
  Fe  Fe1       1.0  0.53466  0.13686  0.21230  1.0000
  C   C8        1.0  0.16192  0.20669  0.28154  1.0000
  C   C9        1.0  0.12213  0.40487  0.30112  1.0000
  C   C10       1.0  0.49857  0.07180  0.10981  1.0000
  C   C11       1.0  0.40759  0.08437  0.21763  1.0000
  C   C12       1.0  0.13603  0.06945  0.22807  1.0000
  H   H12       1.0  0.18140  0.22097  0.26934  1.0000
  H   H13       1.0  0.47769  0.05451  0.10690  1.0000
  H   H14       1.0  0.11171  0.13567  0.17975  1.0000
  H   H15       1.0  0.10633  0.42008  0.31450  1.0000
  C   C13       1.0  0.34948  0.08727  0.21645  1.0000
  Fe  Fe2       1.0  0.04671  0.16485  0.26739  1.0000
  N   N2        1.0  0.15395  0.39823  0.31431  1.0000
  H   H16       1.0  0.07369  0.14472  0.21870  1.0000
  H   H17       1.0  0.37816  0.09879  0.25215  1.0000
  C   C14       1.0  0.08148  0.32260  0.33756  1.0000
  N   N3        1.0  0.16366  0.16866  0.27897  1.0000
  H   H18       1.0  0.19797  0.15901  0.31279  1.0000
  H   H19       1.0  0.46999  0.12576  0.13252  1.0000
  H   H20       1.0  0.50276  0.24188  0.29964  1.0000
  S   S4        1.0  0.44500  0.06862  0.17284  1.0000
  H   H21       1.0  0.13708  0.12240  0.29342  1.0000
  S   S5        1.0  0.06726  0.11061  0.27503  1.0000
  H   H22       1.0  0.11354  0.16161  0.28813  1.0000
  H   H23       1.0  0.37953  0.06438  0.15375  1.0000
  C   C15       1.0  0.09199  0.10186  0.24666  1.0000
  H   H24       1.0  0.47959  0.28645  0.22922  1.0000
  C   C16       1.0  0.16065  0.16219  0.24878  1.0000
  C   C17       1.0  0.11421  0.07439  0.24992  1.0000
  H   H25       1.0  0.11517  0.05755  0.26962  1.0000
  C   C18       1.0  0.09079  0.12351  0.22121  1.0000
  H   H26       1.0  0.46612  0.22481  0.24625  1.0000
  S   S6        1.0  0.08998  0.27353  0.29997  1.0000
  H   H27       1.0  0.52787  0.13073  0.12194  1.0000
  C   C19       1.0  0.07212  0.31124  0.31157  1.0000
  H   H28       1.0  0.19409  0.42788  0.32716  1.0000
  H   H29       1.0  0.15609  0.44869  0.33011  1.0000
  H   H30       1.0  0.05933  0.07499  0.16577  1.0000
  H   H31       1.0  0.16150  0.35102  0.29426  1.0000
  C   C20       1.0  0.17023  0.43188  0.31677  1.0000
  C   C21       1.0  0.40817  0.07503  0.18977  1.0000
  C   C22       1.0  0.15009  0.37951  0.34291  1.0000
  H   H32       1.0  0.12394  0.41987  0.27987  1.0000
  C   C23       1.0  0.37838  0.09111  0.23073  1.0000
  Fe  Fe3       1.0  0.27375  0.06233  0.21962  1.0000
  Fe  Fe4       1.0  0.50118  0.09632  0.26144  1.0000
  H   H33       1.0  0.13958  0.35320  0.34184  1.0000
  C   C24       1.0  0.49907  0.26243  0.28167  1.0000
  C   C25       1.0  0.17335  0.37656  0.29652  1.0000
  H   H34       1.0  0.51214  0.28621  0.28690  1.0000
  H   H35       1.0  0.47308  0.26899  0.28095  1.0000
  H   H36       1.0  0.51362  0.27090  0.21058  1.0000
  H   H37       1.0  0.14014  0.06189  0.12135  1.0000
  S   S7        1.0  0.47856  0.09690  0.30432  1.0000
  H   H38       1.0  0.49542  0.19749  0.26534  1.0000
  Fe  Fe5       1.0  0.48488  0.08252  0.20165  1.0000
  S   S8        1.0  0.48297  0.13133  0.22421  1.0000
  S   S9        1.0  0.22512  0.06166  0.24007  1.0000
  H   H39       1.0  0.17680  0.38987  0.27477  1.0000
  C   C26       1.0  0.50530  0.27896  0.23139  1.0000
  C   C27       1.0  0.37925  0.07120  0.17538  1.0000
  S   S10       1.0  0.53499  0.09187  0.18571  1.0000
  H   H40       1.0  0.21520  0.16710  0.27791  1.0000
  H   H41       1.0  0.51896  0.30287  0.23543  1.0000
  C   C28       1.0  0.34990  0.07675  0.18888  1.0000
  Fe  Fe6       1.0  0.20705  0.05928  0.19560  1.0000
  H   H42       1.0  0.50049  0.20962  0.22796  1.0000
  H   H43       1.0  0.10957  0.37998  0.29818  1.0000
  C   C29       1.0  0.51908  0.18055  0.33592  1.0000
  C   C30       1.0  0.48499  0.13402  0.32232  1.0000
  H   H44       1.0  0.45994  0.15005  0.09928  1.0000
  H   H45       1.0  0.16217  0.13376  0.24609  1.0000
  H   H46       1.0  0.08752  0.54838  0.33831  1.0000
  S   S11       1.0  0.25532  0.06522  0.17498  1.0000
  H   H47       1.0  0.44351  0.10717  0.10844  1.0000
  H   H48       1.0  0.43908  0.12980  0.34314  1.0000
  H   H49       1.0  0.54199  0.19313  0.33510  1.0000
  C   C31       1.0  0.04932  0.37537  0.32818  1.0000
  Fe  Fe7       1.0  0.05543  0.24116  0.27714  1.0000
  H   H50       1.0  0.52010  0.05948  0.10107  1.0000
  C   C32       1.0  0.46135  0.14413  0.34088  1.0000
  C   C33       1.0  0.07000  0.35449  0.34591  1.0000
  H   H51       1.0  0.13911  0.15468  0.31849  1.0000
  C   C34       1.0  0.52197  0.12896  0.09917  1.0000
  H   H52       1.0  0.04748  0.12309  0.12821  1.0000
  C   C35       1.0  0.05039  0.33137  0.29434  1.0000
  H   H53       1.0  0.04572  0.13714  0.17669  1.0000
  H   H54       1.0  0.46975  0.30087  0.46749  1.0000
  C   C36       1.0  0.36363  0.53795  0.43618  1.0000
  H   H55       1.0  0.41629  0.49647  0.43580  1.0000
  C   C37       1.0  0.52789  0.32986  0.46967  1.0000
  S   S12       1.0  0.10951  0.48322  0.43096  1.0000
  C   C38       1.0  0.14491  0.44918  0.54064  1.0000
  H   H56       1.0  0.38378  0.47294  0.45365  1.0000
  Fe  Fe8       1.0  0.06838  0.44607  0.43561  1.0000
  N   N4        1.0  0.11137  0.46155  0.53790  1.0000
  H   H57       1.0  0.08183  0.49039  0.50656  1.0000
  H   H58       1.0  0.09322  0.41253  0.52637  1.0000
  H   H59       1.0  0.44743  0.18113  0.37011  1.0000
  H   H60       1.0  0.52541  0.37450  0.38828  1.0000
  H   H61       1.0  0.49354  0.27564  0.49377  1.0000
  Fe  Fe9       1.0  0.12812  0.44889  0.39893  1.0000
  H   H62       1.0  0.50770  0.07505  0.35926  1.0000
  C   C39       1.0  0.19977  0.48646  0.42145  1.0000
  C   C40       1.0  0.20676  0.46497  0.39999  1.0000
  S   S13       1.0  0.25638  0.53804  0.50317  1.0000
  H   H63       1.0  0.12352  0.50091  0.50408  1.0000
  S   S14       1.0  0.08987  0.40845  0.40730  1.0000
  C   C41       1.0  0.23614  0.46824  0.38574  1.0000
  S   S15       1.0  0.17905  0.43410  0.39044  1.0000
  C   C42       1.0  0.54294  0.43330  0.44856  1.0000
  C   C43       1.0  0.10636  0.47918  0.50906  1.0000
  H   H64       1.0  0.54105  0.06994  0.38320  1.0000
  C   C44       1.0  0.22219  0.51115  0.42872  1.0000
  H   H65       1.0  0.34481  0.51788  0.43418  1.0000
  C   C45       1.0  0.10481  0.48633  0.55928  1.0000
  H   H66       1.0  0.28089  0.49606  0.38141  1.0000
  H   H67       1.0  0.17751  0.48349  0.43299  1.0000
  H   H68       1.0  0.12176  0.50870  0.55712  1.0000
  C   C46       1.0  0.25134  0.51475  0.41416  1.0000
  H   H69       1.0  0.50783  0.28110  0.41596  1.0000
  H   H70       1.0  0.45847  0.50918  0.58949  1.0000
  C   C47       1.0  0.53033  0.39063  0.40521  1.0000
  S   S16       1.0  0.27880  0.54660  0.42210  1.0000
  H   H71       1.0  0.10950  0.46063  0.49260  1.0000
  Fe  Fe10      1.0  0.54188  0.26221  0.36048  1.0000
  C   C48       1.0  0.25829  0.49337  0.39262  1.0000
  H   H72       1.0  0.08009  0.49732  0.55700  1.0000
  H   H73       1.0  0.54134  0.24735  0.45186  1.0000
  Fe  Fe11      1.0  0.08102  0.50925  0.39488  1.0000
  H   H74       1.0  0.43565  0.54656  0.55514  1.0000
  S   S17       1.0  0.49181  0.44340  0.59418  1.0000
  S   S18       1.0  0.49946  0.22856  0.37260  1.0000
  C   C49       1.0  0.40147  0.49416  0.45550  1.0000
  H   H75       1.0  0.24170  0.45150  0.36926  1.0000
  H   H76       1.0  0.48325  0.25778  0.46118  1.0000
  H   H77       1.0  0.13412  0.39420  0.35648  1.0000
  S   S19       1.0  0.04668  0.43088  0.47832  1.0000
  H   H78       1.0  0.38282  0.51606  0.50546  1.0000
  C   C50       1.0  0.46613  0.17307  0.35623  1.0000
  C   C51       1.0  0.08938  0.43149  0.54248  1.0000
  S   S20       1.0  0.53643  0.32013  0.34961  1.0000
  H   H79       1.0  0.21684  0.52729  0.44562  1.0000
  H   H80       1.0  0.07744  0.36296  0.36591  1.0000
  H   H81       1.0  0.48180  0.41014  0.40695  1.0000
  C   C52       1.0  0.52285  0.05533  0.37187  1.0000
  Fe  Fe12      1.0  0.49830  0.48160  0.48983  1.0000
  S   S21       1.0  0.46231  0.49530  0.52215  1.0000
  S   S22       1.0  0.48062  0.45488  0.45255  1.0000
  H   H82       1.0  0.16199  0.47143  0.53708  1.0000
  S   S23       1.0  0.52203  0.53158  0.55415  1.0000
  Fe  Fe13      1.0  0.50030  0.47835  0.55409  1.0000
  H   H83       1.0  0.53050  0.32539  0.49315  1.0000
  Fe  Fe14      1.0  0.06335  0.44004  0.37243  1.0000
  N   N5        1.0  0.38555  0.52762  0.46010  1.0000
  Fe  Fe15      1.0  0.48720  0.54721  0.51918  1.0000
  H   H84       1.0  0.09774  0.30674  0.35123  1.0000
  H   H85       1.0  0.37672  0.54156  0.41561  1.0000
  C   C53       1.0  0.51415  0.30507  0.42623  1.0000
  H   H86       1.0  0.41793  0.48536  0.47332  1.0000
  H   H87       1.0  0.15062  0.43051  0.52473  1.0000
  C   C54       1.0  0.49488  0.19159  0.35367  1.0000
  C   C55       1.0  0.50569  0.41089  0.41570  1.0000
  C   C56       1.0  0.51190  0.43185  0.43773  1.0000
  H   H88       1.0  0.09256  0.41721  0.56389  1.0000
  H   H89       1.0  0.50936  0.35059  0.46495  1.0000
  N   N6        1.0  0.51965  0.29729  0.45705  1.0000
  H   H90       1.0  0.06389  0.44014  0.54048  1.0000
  H   H91       1.0  0.38038  0.53182  0.56984  1.0000
  C   C57       1.0  0.36702  0.52345  0.48686  1.0000
  H   H92       1.0  0.53597  0.31623  0.41547  1.0000
  H   H93       1.0  0.10731  0.47353  0.58129  1.0000
  H   H94       1.0  0.34836  0.50293  0.48634  1.0000
  S   S24       1.0  0.52008  0.53499  0.48410  1.0000
  S   S25       1.0  0.10311  0.47827  0.36214  1.0000
  H   H95       1.0  0.49443  0.32443  0.42178  1.0000
  C   C58       1.0  0.49024  0.28219  0.47051  1.0000
  H   H96       1.0  0.14972  0.43583  0.56216  1.0000
  S   S26       1.0  0.53437  0.45994  0.52216  1.0000
  H   H97       1.0  0.35448  0.54817  0.49082  1.0000
  H   H98       1.0  0.42691  0.54806  0.47984  1.0000
  H   H99       1.0  0.20210  0.54253  0.37104  1.0000
  H   H100      1.0  0.17343  0.37585  0.35420  1.0000
  S   S27       1.0  0.16518  0.55084  0.52143  1.0000
  C   C59       1.0  0.31304  0.45706  0.79232  1.0000
  H   H101      1.0  0.35457  0.36474  0.80510  1.0000
  S   S28       1.0  0.13762  0.39709  0.75314  1.0000
  H   H102      1.0  0.30229  0.31045  0.81760  1.0000
  C   C60       1.0  0.26187  0.42721  0.79498  1.0000
  C   C61       1.0  0.28740  0.44255  0.80840  1.0000
  C   C62       1.0  0.26225  0.42589  0.76553  1.0000
  H   H103      1.0  0.28743  0.44085  0.72653  1.0000
  H   H104      1.0  0.33542  0.38920  0.77578  1.0000
  H   H105      1.0  0.34435  0.30137  0.81517  1.0000
  H   H106      1.0  0.53294  0.46096  0.69369  1.0000
  H   H107      1.0  0.35499  0.34808  0.74334  1.0000
  C   C63       1.0  0.28738  0.44136  0.74937  1.0000
  S   S29       1.0  0.23212  0.40383  0.74894  1.0000
  Fe  Fe16      1.0  0.12380  0.39174  0.79903  1.0000
  Fe  Fe17      1.0  0.18478  0.41569  0.76830  1.0000
  C   C64       1.0  0.42121  0.35283  0.80527  1.0000
  S   S30       1.0  0.08940  0.35067  0.81640  1.0000
  C   C65       1.0  0.31238  0.45763  0.76272  1.0000
  H   H108      1.0  0.33123  0.47044  0.75008  1.0000
  Fe  Fe18      1.0  0.12191  0.45265  0.75418  1.0000
  C   C66       1.0  0.35122  0.32626  0.76029  1.0000
  H   H109      1.0  0.24256  0.41514  0.80756  1.0000
  H   H110      1.0  0.41661  0.38050  0.80504  1.0000
  C   C67       1.0  0.29460  0.33860  0.76368  1.0000
  H   H111      1.0  0.32975  0.48898  0.66836  1.0000
  C   C68       1.0  0.33221  0.36698  0.79240  1.0000
  H   H112      1.0  0.27429  0.34498  0.77763  1.0000
  S   S31       1.0  0.10481  0.44624  0.79923  1.0000
  H   H113      1.0  0.09216  0.51743  0.76409  1.0000
  H   H114      1.0  0.34623  0.30216  0.74980  1.0000
  H   H115      1.0  0.28038  0.52646  0.60686  1.0000
  H   H116      1.0  0.51055  0.55012  0.66285  1.0000
  H   H117      1.0  0.31268  0.37410  0.80681  1.0000
  S   S32       1.0  0.34629  0.47301  0.80948  1.0000
  C   C69       1.0  0.34220  0.53044  0.62074  1.0000
  H   H118      1.0  0.06569  0.41179  0.75916  1.0000
  S   S33       1.0  0.08950  0.47253  0.71853  1.0000
  C   C70       1.0  0.32186  0.30528  0.80253  1.0000
  S   S34       1.0  0.17040  0.47219  0.76513  1.0000
  C   C71       1.0  0.30852  0.49835  0.65539  1.0000
  N   N7        1.0  0.32498  0.33424  0.77973  1.0000
  N   N8        1.0  0.54030  0.50432  0.66201  1.0000
  C   C72       1.0  0.54264  0.05181  0.82064  1.0000
  H   H119      1.0  0.28813  0.31446  0.75381  1.0000
  H   H120      1.0  0.51884  0.45410  0.65883  1.0000
  C   C73       1.0  0.53821  0.46635  0.67060  1.0000
  H   H121      1.0  0.50504  0.51764  0.69242  1.0000
  H   H122      1.0  0.20762  0.52128  0.79823  1.0000
  Fe  Fe19      1.0  0.15501  0.45966  0.81038  1.0000
  H   H123      1.0  0.31659  0.28008  0.79375  1.0000
  H   H124      1.0  0.37430  0.32193  0.77186  1.0000
  H   H125      1.0  0.48635  0.34048  0.82798  1.0000
  H   H126      1.0  0.29607  0.36036  0.74636  1.0000
  S   S35       1.0  0.17280  0.40434  0.81451  1.0000
  H   H127      1.0  0.28777  0.44209  0.83132  1.0000
  C   C74       1.0  0.23303  0.51423  0.80321  1.0000
  S   S36       1.0  0.44361  0.10115  0.82612  1.0000
  H   H128      1.0  0.52825  0.33196  0.82358  1.0000
  H   H129      1.0  0.39395  0.33969  0.84348  1.0000
  H   H130      1.0  0.23264  0.49000  0.81819  1.0000
  C   C75       1.0  0.04549  0.39808  0.74983  1.0000
  C   C76       1.0  0.46423  0.46141  0.61652  1.0000
  C   C77       1.0  0.28363  0.53307  0.82099  1.0000
  C   C78       1.0  0.52148  0.54795  0.76065  1.0000
  S   S37       1.0  0.46772  0.19665  0.84403  1.0000
  H   H131      1.0  0.28771  0.49912  0.67004  1.0000
  H   H132      1.0  0.24471  0.50748  0.78326  1.0000
  H   H133      1.0  0.36367  0.51976  0.63235  1.0000
  H   H134      1.0  0.49966  0.29791  0.82027  1.0000
  S   S38       1.0  0.41133  0.52056  0.76005  1.0000
  C   C79       1.0  0.50921  0.10296  0.82496  1.0000
  C   C80       1.0  0.45181  0.49494  0.60937  1.0000
  H   H135      1.0  0.52578  0.49936  0.61898  1.0000
  N   N9        1.0  0.24976  0.54296  0.81562  1.0000
  H   H136      1.0  0.43663  0.25305  0.80614  1.0000
  H   H137      1.0  0.46577  0.41705  0.64806  1.0000
  Fe  Fe20      1.0  0.44041  0.42439  0.75923  1.0000
  S   S39       1.0  0.39139  0.44108  0.74422  1.0000
  S   S40       1.0  0.45712  0.36897  0.75746  1.0000
  N   N10       1.0  0.31457  0.53301  0.63995  1.0000
  Fe  Fe21      1.0  0.45879  0.49674  0.77311  1.0000
  H   H138      1.0  0.45991  0.29412  0.76783  1.0000
  Fe  Fe22      1.0  0.39047  0.47170  0.78229  1.0000
  C   C81       1.0  0.45623  0.44308  0.64254  1.0000
  Fe  Fe23      1.0  0.41581  0.48844  0.72319  1.0000
  S   S41       1.0  0.40280  0.51328  0.68000  1.0000
  S   S42       1.0  0.43772  0.45084  0.79940  1.0000
  S   S43       1.0  0.46530  0.46881  0.73413  1.0000
  C   C82       1.0  0.53964  0.08767  0.82313  1.0000
  H   H139      1.0  0.30345  0.47841  0.64041  1.0000
  C   C83       1.0  0.42462  0.49249  0.65486  1.0000
  C   C84       1.0  0.43665  0.45873  0.66183  1.0000
  H   H140      1.0  0.42277  0.53671  0.62306  1.0000
  C   C85       1.0  0.07141  0.52451  0.75112  1.0000
  C   C86       1.0  0.43170  0.51041  0.62841  1.0000
  H   H141      1.0  0.43102  0.44466  0.68213  1.0000
  H   H142      1.0  0.29622  0.52808  0.80100  1.0000
  C   C87       1.0  0.48174  0.08273  0.82271  1.0000
  H   H143      1.0  0.48938  0.51061  0.65831  1.0000
  C   C88       1.0  0.43998  0.34009  0.78403  1.0000
  C   C89       1.0  0.44554  0.30407  0.78437  1.0000
  C   C90       1.0  0.43260  0.28087  0.80612  1.0000
  C   C91       1.0  0.41395  0.29374  0.82740  1.0000
  C   C92       1.0  0.40825  0.32968  0.82692  1.0000
  H   H144      1.0  0.05123  0.36962  0.75266  1.0000
  C   C93       1.0  0.14677  0.53335  0.83972  1.0000
  C   C94       1.0  0.50554  0.32046  0.83243  1.0000
  H   H145      1.0  0.04529  0.40676  0.72667  1.0000
  H   H146      1.0  0.13722  0.52898  0.79545  1.0000
  C   C95       1.0  0.06501  0.50697  0.72719  1.0000
  C   C96       1.0  0.51003  0.52148  0.66922  1.0000
  H   H147      1.0  0.50698  0.13055  0.82749  1.0000
  S   S44       1.0  0.50067  0.52550  0.78886  1.0000
  C   C97       1.0  0.13447  0.54486  0.81296  1.0000
  H   H148      1.0  0.33701  0.51298  0.60387  1.0000
  H   H149      1.0  0.28576  0.50877  0.83576  1.0000
  C   C98       1.0  0.28605  0.54476  0.62303  1.0000
  H   H150      1.0  0.26453  0.54683  0.63666  1.0000
  C   C99       1.0  0.23418  0.54965  0.84266  1.0000
  S   S45       1.0  0.16612  0.49290  0.84546  1.0000
  H   H151      1.0  0.34331  0.55051  0.67344  1.0000
  H   H152      1.0  0.15112  0.05417  0.08568  1.0000
  C   C100      1.0  0.52589  0.15723  0.97930  1.0000
  S   S46       1.0  0.39740  0.26577  0.85488  1.0000
  H   H153      1.0  0.41426  0.07911  0.00184  1.0000
  H   H154      1.0  0.53640  0.27381  0.89098  1.0000
  C   C101      1.0  0.47744  0.29463  0.87386  1.0000
  H   H155      1.0  0.47871  0.28550  0.89690  1.0000
  S   S47       1.0  0.40099  0.16395  0.87488  1.0000
  H   H156      1.0  0.11387  0.39185  0.90851  1.0000
  H   H157      1.0  0.08018  0.25092  0.99722  1.0000
  H   H158      1.0  0.53930  0.35199  0.87096  1.0000
  H   H159      1.0  0.05202  0.21594  0.99526  1.0000
  C   C102      1.0  0.09574  0.38122  0.89548  1.0000
  C   C103      1.0  0.06453  0.37635  0.90576  1.0000
  H   H160      1.0  0.51823  0.33275  0.90174  1.0000
  Fe  Fe24      1.0  0.42507  0.21616  0.86705  1.0000
  Fe  Fe25      1.0  0.48975  0.18758  0.88739  1.0000
  H   H161      1.0  0.45332  0.05599  0.87741  1.0000
  C   C104      1.0  0.08020  0.35904  0.85121  1.0000
  C   C105      1.0  0.05376  0.29492  0.95609  1.0000
  C   C106      1.0  0.05879  0.50994  0.86269  1.0000
  H   H162      1.0  0.04969  0.54433  0.90887  1.0000
  C   C107      1.0  0.53369  0.28275  0.86797  1.0000
  C   C108      1.0  0.07082  0.52651  0.90943  1.0000
  C   C109      1.0  0.38085  0.08511  0.93595  1.0000
  H   H163      1.0  0.05442  0.48814  0.84931  1.0000
  H   H164      1.0  0.06994  0.30900  0.96979  1.0000
  H   H165      1.0  0.06815  0.28699  0.93793  1.0000
  H   H166      1.0  0.09161  0.54241  0.90129  1.0000
  S   S48       1.0  0.47160  0.13304  0.89619  1.0000
  N   N11       1.0  0.49310  0.10753  0.09600  1.0000
  H   H167      1.0  0.52821  0.25911  0.85694  1.0000
  N   N12       1.0  0.06515  0.49671  0.89258  1.0000
  H   H168      1.0  0.52464  0.08015  0.91620  1.0000
  Fe  Fe26      1.0  0.42939  0.15814  0.91528  1.0000
  C   C110      1.0  0.40139  0.07137  0.98362  1.0000
  N   N13       1.0  0.50822  0.30952  0.86317  1.0000
  C   C111      1.0  0.52104  0.17211  0.95142  1.0000
  H   H169      1.0  0.07947  0.52509  0.85323  1.0000
  H   H170      1.0  0.37753  0.10356  0.91741  1.0000
  S   S49       1.0  0.05469  0.38871  0.93934  1.0000
  C   C112      1.0  0.48642  0.10590  0.06545  1.0000
  C   C113      1.0  0.39753  0.09509  0.95949  1.0000
  C   C114      1.0  0.04924  0.35302  0.86188  1.0000
  H   H171      1.0  0.50545  0.15033  0.99276  1.0000
  Fe  Fe27      1.0  0.44549  0.14398  0.85500  1.0000
  S   S50       1.0  0.41437  0.13670  0.95896  1.0000
  H   H172      1.0  0.46519  0.08930  0.06216  1.0000
  S   S51       1.0  0.54094  0.19758  0.89826  1.0000
  S   S52       1.0  0.44943  0.21220  0.90944  1.0000
  H   H173      1.0  0.49690  0.17634  0.94370  1.0000
  H   H174      1.0  0.47045  0.27179  0.86250  1.0000
  H   H175      1.0  0.23342  0.52552  0.85776  1.0000
  H   H176      1.0  0.50720  0.09486  0.05448  1.0000
  H   H177      1.0  0.09117  0.45243  0.87975  1.0000
  H   H178      1.0  0.11571  0.48839  0.88730  1.0000
  C   C115      1.0  0.51615  0.34014  0.87845  1.0000
  H   H179      1.0  0.49734  0.36080  0.87515  1.0000
  H   H180      1.0  0.07576  0.51756  0.93211  1.0000
  C   C116      1.0  0.06299  0.23908  0.98296  1.0000
  C   C117      1.0  0.09369  0.47369  0.89398  1.0000
  H   H181      1.0  0.07700  0.22937  0.96524  1.0000
  H   H182      1.0  0.12739  0.37776  0.85988  1.0000
  H   H183      1.0  0.45758  0.31409  0.87093  1.0000
  H   H184      1.0  0.51865  0.15607  0.08892  1.0000
  H   H185      1.0  0.15344  0.54551  0.88284  1.0000
  H   H186      1.0  0.48174  0.13236  0.05440  1.0000
  C   C118      1.0  0.10339  0.37329  0.86797  1.0000
  H   H187      1.0  0.09776  0.46110  0.91591  1.0000
  H   H188      1.0  0.04326  0.51231  0.98119  1.0000
  H   H189      1.0  0.41287  0.05137  0.88954  1.0000
  H   H190      1.0  0.17197  0.83749  0.18867  1.0000
  S   S53       1.0  0.20726  0.00110  0.19810  1.0000
  C   C119      1.0  0.35672  0.95116  0.16359  1.0000
  S   S54       1.0  0.23746  0.71438  0.33738  1.0000
  S   S55       1.0  0.28013  0.00417  0.22435  1.0000
  H   H191      1.0  0.37396  0.00197  0.10267  1.0000
  Fe  Fe28      1.0  0.25747  0.00679  0.18148  1.0000
  S   S56       1.0  0.27604  0.97599  0.14696  1.0000
  Fe  Fe29      1.0  0.22971  0.00332  0.24078  1.0000
  S   S57       1.0  0.21700  0.96546  0.27826  1.0000
  H   H192      1.0  0.23000  0.84246  0.17112  1.0000
  H   H193      1.0  0.16871  0.88034  0.33323  1.0000
  Fe  Fe30      1.0  0.12842  0.70897  0.29888  1.0000
  S   S58       1.0  0.10871  0.66018  0.28317  1.0000
  Fe  Fe31      1.0  0.14790  0.78448  0.28552  1.0000
  S   S59       1.0  0.16549  0.87096  0.12877  1.0000
  H   H194      1.0  0.09995  0.58550  0.29369  1.0000
  H   H195      1.0  0.11723  0.03218  0.10224  1.0000
  S   S60       1.0  0.17224  0.73379  0.27862  1.0000
  H   H196      1.0  0.14164  0.89948  0.22511  1.0000
  S   S61       1.0  0.14423  0.82933  0.25142  1.0000
  C   C120      1.0  0.22138  0.90457  0.11356  1.0000
  H   H197      1.0  0.42163  0.99259  0.13285  1.0000
  H   H198      1.0  0.21670  0.83502  0.22175  1.0000
  C   C121      1.0  0.15072  0.90168  0.33427  1.0000
  H   H199      1.0  0.15366  0.04867  0.23091  1.0000
  H   H200      1.0  0.20289  0.79370  0.23774  1.0000
  C   C122      1.0  0.21826  0.80624  0.22045  1.0000
  H   H201      1.0  0.24343  0.79800  0.22516  1.0000
  H   H202      1.0  0.49096  0.93843  0.10167  1.0000
  H   H203      1.0  0.26255  0.93566  0.10033  1.0000
  H   H204      1.0  0.12508  0.98545  0.14144  1.0000
  C   C123      1.0  0.19955  0.92709  0.26830  1.0000
  C   C124      1.0  0.17630  0.92855  0.24694  1.0000
  C   C125      1.0  0.19117  0.86447  0.27751  1.0000
  C   C126      1.0  0.20723  0.89494  0.28333  1.0000
  H   H205      1.0  0.16977  0.95337  0.23568  1.0000
  H   H206      1.0  0.19732  0.83980  0.28914  1.0000
  H   H207      1.0  0.22539  0.89373  0.29974  1.0000
  C   C127      1.0  0.16713  0.86620  0.25688  1.0000
  C   C128      1.0  0.20382  0.90766  0.16194  1.0000
  C   C129      1.0  0.22937  0.93000  0.16628  1.0000
  C   C130      1.0  0.24958  0.94149  0.14371  1.0000
  H   H208      1.0  0.18113  0.96398  0.10455  1.0000
  C   C131      1.0  0.08703  0.57649  0.33805  1.0000
  H   H209      1.0  0.18730  0.90027  0.17910  1.0000
  H   H210      1.0  0.23328  0.93854  0.18708  1.0000
  C   C132      1.0  0.20936  0.75847  0.19180  1.0000
  C   C133      1.0  0.09448  0.63390  0.31273  1.0000
  H   H211      1.0  0.40258  0.94483  0.10488  1.0000
  Fe  Fe32      1.0  0.12519  0.75919  0.34438  1.0000
  H   H212      1.0  0.16635  0.80407  0.16524  1.0000
  N   N14       1.0  0.16292  0.01228  0.11750  1.0000
  H   H213      1.0  0.23410  0.74833  0.19597  1.0000
  H   H214      1.0  0.20163  0.75060  0.17082  1.0000
  H   H215      1.0  0.16473  0.97354  0.15346  1.0000
  H   H216      1.0  0.20495  0.62283  0.32058  1.0000
  H   H217      1.0  0.39972  0.00248  0.16372  1.0000
  N   N15       1.0  0.37720  0.96469  0.13951  1.0000
  S   S62       1.0  0.10206  0.75954  0.30165  1.0000
  S   S63       1.0  0.16914  0.78823  0.32868  1.0000
  H   H218      1.0  0.15365  0.92010  0.31475  1.0000
  H   H219      1.0  0.19342  0.74504  0.20831  1.0000
  C   C134      1.0  0.17452  0.80892  0.18690  1.0000
  C   C135      1.0  0.09388  0.59746  0.31280  1.0000
  C   C136      1.0  0.24635  0.92774  0.11762  1.0000
  H   H220      1.0  0.11221  0.88666  0.29150  1.0000
  H   H221      1.0  0.40013  0.91491  0.13633  1.0000
  H   H222      1.0  0.36990  0.93220  0.17864  1.0000
  N   N16       1.0  0.20784  0.79685  0.19231  1.0000
  H   H223      1.0  0.42086  0.96177  0.16387  1.0000
  C   C137      1.0  0.16018  0.89809  0.24117  1.0000
  H   H224      1.0  0.20635  0.03789  0.10256  1.0000
  H   H225      1.0  0.49795  0.03092  0.32515  1.0000
  C   C138      1.0  0.08618  0.64931  0.33727  1.0000
  Fe  Fe33      1.0  0.18939  0.73516  0.32335  1.0000
  C   C139      1.0  0.22914  0.81372  0.17010  1.0000
  H   H226      1.0  0.14789  0.01496  0.16074  1.0000
  C   C140      1.0  0.11046  0.86904  0.31157  1.0000
  H   H227      1.0  0.33719  0.97945  0.11232  1.0000
  C   C141      1.0  0.35911  0.99102  0.12097  1.0000
  H   H228      1.0  0.22071  0.80935  0.14838  1.0000
  S   S64       1.0  0.14758  0.70638  0.34329  1.0000
  H   H229      1.0  0.21170  0.00444  0.13137  1.0000
  H   H230      1.0  0.25416  0.80377  0.17250  1.0000
  H   H231      1.0  0.34778  0.97271  0.17576  1.0000
  C   C142      1.0  0.19929  0.89574  0.13523  1.0000
  C   C143      1.0  0.38678  0.93556  0.12298  1.0000
  H   H232      1.0  0.15752  0.79541  0.20237  1.0000
  C   C144      1.0  0.51330  0.01240  0.33868  1.0000
  H   H233      1.0  0.19480  0.04587  0.13787  1.0000
  C   C145      1.0  0.40609  0.98105  0.15046  1.0000
  C   C146      1.0  0.14954  0.99586  0.14448  1.0000
  C   C147      1.0  0.19534  0.02572  0.12251  1.0000
  H   H234      1.0  0.08544  0.67740  0.33688  1.0000
  H   H235      1.0  0.15555  0.59294  0.33892  1.0000
  H   H236      1.0  0.08596  0.85769  0.31276  1.0000
  H   H237      1.0  0.35107  0.01315  0.13286  1.0000
  H   H238      1.0  0.36556  0.92294  0.11400  1.0000
  H   H239      1.0  0.09623  0.93575  0.31900  1.0000
  H   H240      1.0  0.33527  0.93757  0.15609  1.0000
  H   H241      1.0  0.12745  0.84706  0.30960  1.0000
  C   C148      1.0  0.09481  0.91674  0.33830  1.0000
  H   H242      1.0  0.52412  0.99405  0.32453  1.0000
  C   C149      1.0  0.14190  0.04144  0.10620  1.0000
  H   H243      1.0  0.20623  0.55912  0.33442  1.0000
  H   H244      1.0  0.06974  0.90702  0.34013  1.0000
  N   N17       1.0  0.11782  0.88764  0.33671  1.0000
  S   S65       1.0  0.49987  0.04685  0.23976  1.0000
  C   C150      1.0  0.21115  0.62673  0.34293  1.0000
  H   H245      1.0  0.23769  0.62872  0.34445  1.0000
  H   H246      1.0  0.20109  0.65254  0.34725  1.0000
  C   C151      1.0  0.09999  0.69162  0.46367  1.0000
  C   C152      1.0  0.15602  0.67696  0.46049  1.0000
  H   H247      1.0  0.17494  0.66361  0.44892  1.0000
  C   C153      1.0  0.09400  0.63777  0.53668  1.0000
  H   H248      1.0  0.40179  0.63660  0.50296  1.0000
  Fe  Fe34      1.0  0.24800  0.63786  0.48547  1.0000
  H   H249      1.0  0.15213  0.62293  0.36545  1.0000
  H   H250      1.0  0.39898  0.58061  0.46541  1.0000
  H   H251      1.0  0.27233  0.66720  0.37725  1.0000
  H   H252      1.0  0.34597  0.62272  0.51840  1.0000
  S   S66       1.0  0.29448  0.61021  0.47880  1.0000
  S   S67       1.0  0.23603  0.69360  0.47140  1.0000
  H   H253      1.0  0.13071  0.71329  0.41493  1.0000
  H   H254      1.0  0.13555  0.66979  0.54109  1.0000
  H   H255      1.0  0.10079  0.68399  0.48692  1.0000
  C   C154      1.0  0.21791  0.73003  0.38996  1.0000
  C   C155      1.0  0.21812  0.72584  0.41974  1.0000
  C   C156      1.0  0.23717  0.69985  0.43420  1.0000
  C   C157      1.0  0.25622  0.67825  0.41882  1.0000
  C   C158      1.0  0.25698  0.68337  0.38905  1.0000
  H   H256      1.0  0.53608  0.61394  0.52468  1.0000
  H   H257      1.0  0.20343  0.74266  0.43155  1.0000
  H   H258      1.0  0.27101  0.65817  0.42987  1.0000
  C   C159      1.0  0.08301  0.60451  0.53195  1.0000
  H   H259      1.0  0.16249  0.70513  0.45946  1.0000
  C   C160      1.0  0.36547  0.60586  0.52623  1.0000
  S   S68       1.0  0.24011  0.61264  0.52971  1.0000
  H   H260      1.0  0.11492  0.62396  0.47430  1.0000
  N   N18       1.0  0.12392  0.67200  0.44842  1.0000
  H   H261      1.0  0.15743  0.66643  0.48321  1.0000
  S   S69       1.0  0.21789  0.59993  0.46457  1.0000
  H   H262      1.0  0.10426  0.72031  0.46045  1.0000
  C   C161      1.0  0.12387  0.68517  0.41802  1.0000
  C   C162      1.0  0.12694  0.64409  0.53738  1.0000
  H   H263      1.0  0.17412  0.62276  0.53302  1.0000
  C   C163      1.0  0.11580  0.63440  0.45152  1.0000
  H   H264      1.0  0.09194  0.62961  0.44211  1.0000
  C   C164      1.0  0.14883  0.61746  0.53266  1.0000
  C   C165      1.0  0.10492  0.57783  0.52737  1.0000
  H   H265      1.0  0.14110  0.67047  0.40569  1.0000
  H   H266      1.0  0.09972  0.68296  0.40845  1.0000
  H   H267      1.0  0.07521  0.68670  0.45646  1.0000
  H   H268      1.0  0.13258  0.84093  0.36225  1.0000
  H   H269      1.0  0.20300  0.75002  0.37894  1.0000
  C   C166      1.0  0.23773  0.70919  0.37461  1.0000
  H   H270      1.0  0.13376  0.61860  0.44090  1.0000
  Fe  Fe35      1.0  0.28368  0.58098  0.52107  1.0000
  Fe  Fe36      1.0  0.26352  0.56993  0.46156  1.0000
  Fe  Fe37      1.0  0.21344  0.57224  0.50810  1.0000
  H   H271      1.0  0.15710  0.91611  0.35276  1.0000
  H   H272      1.0  0.06346  0.72754  0.35238  1.0000
  S   S70       1.0  0.06698  0.67230  0.53973  1.0000
  H   H273      1.0  0.07345  0.64063  0.38145  1.0000
  C   C167      1.0  0.13792  0.58426  0.52767  1.0000
  C   C168      1.0  0.35932  0.57614  0.54494  1.0000
  C   C169      1.0  0.08070  0.59213  0.36299  1.0000
  S   S71       1.0  0.46127  0.59883  0.51463  1.0000
  S   S72       1.0  0.07677  0.56728  0.39569  1.0000
  C   C170      1.0  0.42233  0.59203  0.52778  1.0000
  H   H274      1.0  0.06284  0.76744  0.43404  1.0000
  C   C171      1.0  0.39706  0.61394  0.51775  1.0000
  N   N19       1.0  0.53817  0.03096  0.35353  1.0000
  N   N20       1.0  0.19843  0.59843  0.36314  1.0000
  C   C172      1.0  0.20749  0.60485  0.39236  1.0000
  H   H275      1.0  0.09096  0.85137  0.36503  1.0000
  H   H276      1.0  0.42471  0.55869  0.44219  1.0000
  H   H277      1.0  0.19841  0.63060  0.39796  1.0000
  S   S73       1.0  0.10019  0.77528  0.38307  1.0000
  H   H278      1.0  0.35093  0.56295  0.43911  1.0000
  H   H279      1.0  0.53361  0.69317  0.52868  1.0000
  C   C173      1.0  0.05361  0.72756  0.37349  1.0000
  C   C174      1.0  0.07927  0.62850  0.36238  1.0000
  H   H280      1.0  0.49723  0.99714  0.35395  1.0000
  H   H281      1.0  0.52644  0.64677  0.49643  1.0000
  C   C175      1.0  0.16314  0.59767  0.36077  1.0000
  C   C176      1.0  0.05311  0.75023  0.41942  1.0000
  C   C177      1.0  0.06651  0.74956  0.39238  1.0000
  H   H282      1.0  0.12041  0.87612  0.38216  1.0000
  H   H283      1.0  0.05763  0.59921  0.53204  1.0000
  C   C178      1.0  0.41615  0.56299  0.54699  1.0000
  H   H284      1.0  0.15250  0.57667  0.37575  1.0000
  H   H285      1.0  0.19790  0.58409  0.40810  1.0000
  H   H286      1.0  0.23403  0.60496  0.39505  1.0000
  C   C179      1.0  0.11530  0.86307  0.36267  1.0000
  S   S74       1.0  0.32007  0.56395  0.55447  1.0000
  H   H287      1.0  0.50721  0.04129  0.38820  1.0000
  H   H288      1.0  0.09966  0.93136  0.35705  1.0000
  H   H289      1.0  0.23845  0.56383  0.35906  1.0000
  C   C180      1.0  0.41006  0.55496  0.46191  1.0000
  H   H290      1.0  0.09610  0.55254  0.52307  1.0000
  C   C181      1.0  0.21190  0.56450  0.35655  1.0000
  H   H291      1.0  0.54296  0.98951  0.38727  1.0000
  C   C182      1.0  0.38479  0.55503  0.55561  1.0000
  H   H292      1.0  0.54305  0.66060  0.55730  1.0000
  H   H293      1.0  0.26046  0.59719  0.80426  1.0000
  H   H294      1.0  0.46357  0.03154  0.81682  1.0000
  S   S75       1.0  0.09278  0.63681  0.82645  1.0000
  H   H295      1.0  0.06268  0.68568  0.77454  1.0000
  C   C183      1.0  0.52166  0.58575  0.71645  1.0000
  C   C184      1.0  0.50502  0.56427  0.73718  1.0000
  C   C185      1.0  0.11865  0.57722  0.80875  1.0000
  H   H296      1.0  0.10931  0.58626  0.78798  1.0000
  N   N21       1.0  0.52678  0.64812  0.79936  1.0000
  H   H297      1.0  0.53821  0.64286  0.75557  1.0000
  Fe  Fe38      1.0  0.53224  0.91460  0.84735  1.0000
  H   H298      1.0  0.51730  0.00386  0.81650  1.0000
  H   H299      1.0  0.51855  0.70317  0.78927  1.0000
  H   H300      1.0  0.05427  0.70118  0.80807  1.0000
  H   H301      1.0  0.49514  0.61070  0.78307  1.0000
  H   H302      1.0  0.49169  0.67535  0.77221  1.0000
  C   C186      1.0  0.48475  0.04715  0.81901  1.0000
  C   C187      1.0  0.11432  0.59751  0.83151  1.0000
  H   H303      1.0  0.22279  0.58303  0.79110  1.0000
  C   C188      1.0  0.24812  0.57492  0.79557  1.0000
  H   H304      1.0  0.52709  0.65348  0.84424  1.0000
  C   C189      1.0  0.50502  0.67815  0.79226  1.0000
  H   H305      1.0  0.50872  0.59960  0.69896  1.0000
  C   C190      1.0  0.50805  0.61543  0.80294  1.0000
  H   H306      1.0  0.32670  0.58490  0.64948  1.0000
  C   C191      1.0  0.51516  0.03151  0.81869  1.0000
  H   H307      1.0  0.52378  0.59226  0.80850  1.0000
  H   H308      1.0  0.48986  0.61593  0.82010  1.0000
  H   H309      1.0  0.20897  0.55855  0.83915  1.0000
  H   H310      1.0  0.48704  0.68059  0.80936  1.0000
  H   H311      1.0  0.30144  0.56114  0.67540  1.0000
  H   H312      1.0  0.29006  0.57084  0.61108  1.0000
  H   H313      1.0  0.25958  0.57069  0.77491  1.0000
  C   C192      1.0  0.04454  0.70005  0.78632  1.0000
  H   H314      1.0  0.47930  0.56145  0.73561  1.0000
  H   H315      1.0  0.05603  0.56532  0.77647  1.0000
  H   H316      1.0  0.29705  0.55393  0.83058  1.0000
  C   C193      1.0  0.32175  0.55854  0.66051  1.0000
  H   H317      1.0  0.34879  0.55650  0.61004  1.0000
  C   C194      1.0  0.05112  0.55166  0.75801  1.0000
  Fe  Fe39      1.0  0.12634  0.93656  0.03948  1.0000
  S   S76       1.0  0.10189  0.89844  0.07106  1.0000
  C   C195      1.0  0.54279  0.00994  0.06040  1.0000
  Fe  Fe40      1.0  0.17325  0.88122  0.02224  1.0000
  S   S77       1.0  0.15250  0.83872  0.05249  1.0000
  S   S78       1.0  0.21605  0.87105  0.99566  1.0000
  Fe  Fe41      1.0  0.10530  0.86160  0.03728  1.0000
  S   S79       1.0  0.06269  0.83018  0.02610  1.0000
  H   H318      1.0  0.46059  0.98090  0.85950  1.0000
  C   C196      1.0  0.24068  0.98157  0.98930  1.0000
  S   S80       1.0  0.12614  0.90117  0.00445  1.0000
  S   S81       1.0  0.17583  0.92110  0.05359  1.0000
  C   C197      1.0  0.07875  0.00505  0.05191  1.0000
  H   H319      1.0  0.06688  0.70141  0.03693  1.0000
  Fe  Fe42      1.0  0.07267  0.70375  0.91144  1.0000
  H   H320      1.0  0.24687  0.57019  0.85327  1.0000
  S   S82       1.0  0.10426  0.74691  0.92333  1.0000
  H   H321      1.0  0.12655  0.66096  0.97399  1.0000
  H   H322      1.0  0.29369  0.93985  0.03567  1.0000
  H   H323      1.0  0.13963  0.64852  0.02532  1.0000
  H   H324      1.0  0.47558  0.96271  0.89317  1.0000
  H   H325      1.0  0.25283  0.92964  0.02858  1.0000
  H   H326      1.0  0.12655  0.70701  0.97832  1.0000
  S   S83       1.0  0.09735  0.65237  0.90830  1.0000
  C   C198      1.0  0.53325  0.92420  0.02524  1.0000
  H   H327      1.0  0.24176  0.99553  0.96757  1.0000
  H   H328      1.0  0.26200  0.96913  0.04392  1.0000
  H   H329      1.0  0.50859  0.92704  0.97318  1.0000
  N   N22       1.0  0.27287  0.96984  0.99932  1.0000
  C   C199      1.0  0.11146  0.68304  0.98000  1.0000
  N   N23       1.0  0.44129  0.00426  0.89552  1.0000
  H   H330      1.0  0.22421  0.95889  0.98835  1.0000
  Fe  Fe43      1.0  0.07142  0.65213  0.86703  1.0000
  H   H331      1.0  0.05693  0.70956  0.99998  1.0000
  C   C200      1.0  0.14355  0.55421  0.86219  1.0000
  S   S84       1.0  0.11239  0.99346  0.03247  1.0000
  C   C201      1.0  0.07726  0.70554  0.01520  1.0000
  C   C202      1.0  0.24960  0.86139  0.01736  1.0000
  C   C203      1.0  0.24685  0.86008  0.04692  1.0000
  C   C204      1.0  0.27448  0.86041  0.06385  1.0000
  C   C205      1.0  0.30480  0.86173  0.05115  1.0000
  C   C206      1.0  0.30739  0.85968  0.02188  1.0000
  C   C207      1.0  0.27987  0.85940  0.00500  1.0000
  H   H332      1.0  0.22343  0.86015  0.05655  1.0000
  H   H333      1.0  0.51516  0.90329  0.02384  1.0000
  H   H334      1.0  0.39175  0.99415  0.90550  1.0000
  C   C208      1.0  0.28632  0.94589  0.97966  1.0000
  C   C209      1.0  0.07336  0.80754  0.99700  1.0000
  C   C210      1.0  0.10486  0.80915  0.98698  1.0000
  C   C211      1.0  0.11381  0.79090  0.96401  1.0000
  C   C212      1.0  0.09140  0.77075  0.95101  1.0000
  H   H335      1.0  0.47280  0.02830  0.92374  1.0000
  H   H336      1.0  0.09237  0.68750  0.96369  1.0000
  H   H337      1.0  0.12254  0.82438  0.99691  1.0000
  H   H338      1.0  0.13830  0.79227  0.95640  1.0000
  S   S85       1.0  0.36138  0.98370  0.95952  1.0000
  C   C213      1.0  0.43267  0.03774  0.87928  1.0000
  H   H339      1.0  0.39351  0.01891  0.00231  1.0000
  H   H340      1.0  0.49784  0.03468  0.04792  1.0000
  H   H341      1.0  0.33057  0.85836  0.01216  1.0000
  H   H342      1.0  0.05798  0.64668  0.99398  1.0000
  H   H343      1.0  0.29066  0.95956  0.95817  1.0000
  S   S86       1.0  0.33891  0.86904  0.07149  1.0000
  C   C214      1.0  0.41313  0.98098  0.89734  1.0000
  Fe  Fe44      1.0  0.37702  0.89734  0.04484  1.0000
  C   C215      1.0  0.07794  0.64372  0.00968  1.0000
  H   H344      1.0  0.22958  0.99949  0.00366  1.0000
  H   H345      1.0  0.11417  0.66509  0.05169  1.0000
  H   H346      1.0  0.09111  0.73039  0.01380  1.0000
  C   C216      1.0  0.27029  0.95139  0.02815  1.0000
  C   C217      1.0  0.05974  0.76917  0.96083  1.0000
  C   C218      1.0  0.38956  0.03732  0.98389  1.0000
  H   H347      1.0  0.13891  0.69455  0.02945  1.0000
  C   C219      1.0  0.50931  0.01275  0.05997  1.0000
  H   H348      1.0  0.05546  0.90414  0.01031  1.0000
  H   H349      1.0  0.28210  0.85916  0.98222  1.0000
  N   N24       1.0  0.09760  0.67573  0.00869  1.0000
  C   C220      1.0  0.12374  0.67072  0.02976  1.0000
  H   H350      1.0  0.26978  0.92382  0.97699  1.0000
  H   H351      1.0  0.30970  0.93456  0.98743  1.0000
  H   H352      1.0  0.06706  0.63721  0.03100  1.0000
  C   C221      1.0  0.29411  0.00040  0.00012  1.0000
  H   H353      1.0  0.28456  0.01937  0.01438  1.0000
  Fe  Fe45      1.0  0.05248  0.62910  0.92767  1.0000
  C   C222      1.0  0.16496  0.98596  0.09680  1.0000
  H   H354      1.0  0.21907  0.89377  0.09357  1.0000
  C   C223      1.0  0.45157  0.01090  0.92440  1.0000
  H   H355      1.0  0.31845  0.99228  0.00785  1.0000
  H   H356      1.0  0.40666  0.97263  0.87619  1.0000
  H   H357      1.0  0.52503  0.85632  0.94982  1.0000
  H   H358      1.0  0.08571  0.96457  0.08616  1.0000
  S   S87       1.0  0.43932  0.95510  0.00155  1.0000
  C   C224      1.0  0.07075  0.98593  0.07757  1.0000
  C   C225      1.0  0.52839  0.94565  0.97572  1.0000
  C   C226      1.0  0.50560  0.87601  0.90935  1.0000
  H   H359      1.0  0.42817  0.90060  0.89732  1.0000
  Fe  Fe46      1.0  0.43722  0.89669  0.00938  1.0000
  S   S88       1.0  0.47562  0.86491  0.99067  1.0000
  S   S89       1.0  0.42924  0.89598  0.05644  1.0000
  C   C227      1.0  0.44946  0.89175  0.90894  1.0000
  Fe  Fe47      1.0  0.15153  0.87998  0.08284  1.0000
  S   S90       1.0  0.37361  0.95580  0.04037  1.0000
  C   C228      1.0  0.37306  0.02723  0.96033  1.0000
  Fe  Fe48      1.0  0.42657  0.95423  0.04762  1.0000
  C   C229      1.0  0.50402  0.86674  0.93865  1.0000
  C   C230      1.0  0.47563  0.87177  0.95346  1.0000
  C   C231      1.0  0.44830  0.88433  0.93857  1.0000
  Fe  Fe49      1.0  0.38637  0.95157  0.99492  1.0000
  H   H360      1.0  0.09237  0.62070  0.00449  1.0000
  H   H361      1.0  0.42616  0.88784  0.94977  1.0000
  C   C232      1.0  0.49061  0.98714  0.07496  1.0000
  H   H362      1.0  0.41748  0.95705  0.91202  1.0000
  H   H363      1.0  0.42467  0.03382  0.85736  1.0000
  S   S91       1.0  0.44888  0.99183  0.07510  1.0000
  S   S92       1.0  0.05577  0.58379  0.96102  1.0000
  C   C233      1.0  0.47836  0.88853  0.89442  1.0000
  H   H364      1.0  0.43228  0.02396  0.93573  1.0000
  H   H365      1.0  0.29726  0.01450  0.97859  1.0000
  S   S93       1.0  0.38532  0.89320  0.99839  1.0000
  S   S94       1.0  0.48098  0.90271  0.85814  1.0000
  H   H366      1.0  0.45763  0.98608  0.93748  1.0000
  C   C234      1.0  0.05948  0.03340  0.04148  1.0000
  H   H367      1.0  0.12414  0.60180  0.87568  1.0000
  H   H368      1.0  0.52788  0.87314  0.89837  1.0000
  C   C235      1.0  0.05071  0.78761  0.98389  1.0000
  H   H369      1.0  0.35513  0.04368  0.91838  1.0000
  H   H370      1.0  0.48902  0.00493  0.87811  1.0000
  S   S95       1.0  0.05025  0.70560  0.86842  1.0000
  C   C236      1.0  0.50538  0.95830  0.09003  1.0000
  H   H371      1.0  0.05841  0.94648  0.02306  1.0000
  H   H372      1.0  0.17417  0.99750  0.07588  1.0000
  H   H373      1.0  0.54063  0.95022  0.95477  1.0000
  C   C237      1.0  0.46781  0.98753  0.88102  1.0000
  H   H374      1.0  0.52009  0.94765  0.03115  1.0000
  H   H375      1.0  0.27234  0.86113  0.08658  1.0000
  C   C238      1.0  0.53893  0.95520  0.09012  1.0000
  H   H376      1.0  0.14114  0.97456  0.09294  1.0000
  C   C239      1.0  0.12689  0.58602  0.85819  1.0000
  H   H377      1.0  0.51722  0.97063  0.98086  1.0000
  H   H378      1.0  0.06564  0.04837  0.02167  1.0000
  C   C240      1.0  0.36806  0.05134  0.93659  1.0000
  C   C241      1.0  0.04339  0.99470  0.09252  1.0000
  H   H379      1.0  0.61434  0.23147  0.18744  1.0000
  S   S96       1.0  0.55933  0.18663  0.19741  1.0000
  C   C242      1.0  0.64398  0.13522  0.19728  1.0000
  C   C243      1.0  0.83569  0.10613  0.32961  1.0000
  C   C244      1.0  0.66513  0.32483  0.23117  1.0000
  H   H380      1.0  0.75853  0.31428  0.29280  1.0000
  C   C245      1.0  0.60038  0.17742  0.19485  1.0000
  C   C246      1.0  0.62253  0.20457  0.19006  1.0000
  C   C247      1.0  0.65542  0.19696  0.18872  1.0000
  H   H381      1.0  0.67245  0.21804  0.18492  1.0000
  C   C248      1.0  0.67604  0.14802  0.30041  1.0000
  H   H382      1.0  0.65699  0.37647  0.21031  1.0000
  H   H383      1.0  0.67211  0.17181  0.31170  1.0000
  C   C249      1.0  0.61607  0.35827  0.23528  1.0000
  C   C250      1.0  0.64701  0.35520  0.22418  1.0000
  C   C251      1.0  0.66605  0.16219  0.19193  1.0000
  H   H384      1.0  0.60223  0.38189  0.23002  1.0000
  C   C252      1.0  0.62185  0.30110  0.26116  1.0000
  C   C253      1.0  0.60373  0.33148  0.25422  1.0000
  C   C254      1.0  0.54478  0.24202  0.25653  1.0000
  C   C255      1.0  0.65212  0.29742  0.24902  1.0000
  H   H385      1.0  0.66552  0.27366  0.25397  1.0000
  N   N25       1.0  0.89972  0.29242  0.12218  1.0000
  Fe  Fe50      1.0  0.57131  0.31194  0.31485  1.0000
  H   H386      1.0  0.61260  0.28030  0.27579  1.0000
  C   C256      1.0  0.61123  0.14274  0.19858  1.0000
  H   H387      1.0  0.97246  0.08147  0.18280  1.0000
  S   S97       1.0  0.56650  0.33662  0.27041  1.0000
  S   S98       1.0  0.70468  0.32274  0.21897  1.0000
  H   H388      1.0  0.88774  0.24292  0.14477  1.0000
  H   H389      1.0  0.01879  0.11501  0.20216  1.0000
  N   N26       1.0  0.64621  0.13661  0.28736  1.0000
  H   H390      1.0  0.57787  0.06513  0.34318  1.0000
  C   C257      1.0  0.63318  0.16570  0.26792  1.0000
  H   H391      1.0  0.59449  0.12158  0.20260  1.0000
  C   C258      1.0  0.88431  0.13895  0.31973  1.0000
  H   H392      1.0  0.85941  0.31672  0.14099  1.0000
  C   C259      1.0  0.65322  0.10625  0.27133  1.0000
  C   C260      1.0  0.88571  0.31306  0.14399  1.0000
  H   H393      1.0  0.69491  0.15452  0.28418  1.0000
  H   H394      1.0  0.79788  0.21003  0.15093  1.0000
  H   H395      1.0  0.66296  0.08382  0.28552  1.0000
  N   N27       1.0  0.71595  0.30687  0.31816  1.0000
  H   H396      1.0  0.65228  0.10853  0.20098  1.0000
  H   H397      1.0  0.00764  0.14056  0.12445  1.0000
  C   C261      1.0  0.03323  0.06902  0.16627  1.0000
  H   H398      1.0  0.62821  0.18922  0.27931  1.0000
  H   H399      1.0  0.75871  0.07423  0.28596  1.0000
  S   S99       1.0  0.03812  0.41764  0.33619  1.0000
  H   H400      1.0  0.83625  0.14237  0.11006  1.0000
  H   H401      1.0  0.67876  0.27325  0.30552  1.0000
  H   H402      1.0  0.67135  0.11293  0.25438  1.0000
  C   C262      1.0  0.65349  0.08133  0.14409  1.0000
  H   H403      1.0  0.63286  0.09153  0.15574  1.0000
  S   S100      1.0  0.70696  0.15221  0.19103  1.0000
  S   S101      1.0  0.61519  0.32040  0.34034  1.0000
  H   H404      1.0  0.82822  0.17425  0.31325  1.0000
  Fe  Fe51      1.0  0.02759  0.22146  0.22135  1.0000
  S   S102      1.0  0.00176  0.17493  0.24250  1.0000
  S   S103      1.0  0.02652  0.23153  0.17354  1.0000
  H   H405      1.0  0.80034  0.10159  0.13762  1.0000
  H   H406      1.0  0.54477  0.07049  0.31876  1.0000
  H   H407      1.0  0.61625  0.14909  0.32190  1.0000
  S   S104      1.0  0.57294  0.25390  0.32328  1.0000
  H   H408      1.0  0.97310  0.07240  0.14622  1.0000
  Fe  Fe52      1.0  0.98893  0.21100  0.27533  1.0000
  S   S105      1.0  0.93898  0.21031  0.29308  1.0000
  C   C263      1.0  0.74865  0.13434  0.34666  1.0000
  S   S106      1.0  0.01139  0.25876  0.25236  1.0000
  Fe  Fe53      1.0  0.79239  0.23808  0.21147  1.0000
  S   S107      1.0  0.84131  0.24586  0.19256  1.0000
  S   S108      1.0  0.77533  0.26581  0.24826  1.0000
  C   C264      1.0  0.74844  0.07634  0.33035  1.0000
  C   C265      1.0  0.62248  0.12654  0.30984  1.0000
  H   H409      1.0  0.88915  0.29976  0.16576  1.0000
  H   H410      1.0  0.84469  0.17494  0.16661  1.0000
  H   H411      1.0  0.71548  0.25130  0.31554  1.0000
  H   H412      1.0  0.89682  0.33938  0.14349  1.0000
  H   H413      1.0  0.76021  0.33246  0.32633  1.0000
  H   H414      1.0  0.70691  0.34224  0.28083  1.0000
  S   S109      1.0  0.90196  0.16518  0.12679  1.0000
  H   H415      1.0  0.76564  0.12785  0.12748  1.0000
  C   C266      1.0  0.93444  0.28755  0.12744  1.0000
  H   H416      1.0  0.71268  0.27763  0.28200  1.0000
  C   C267      1.0  0.93580  0.18610  0.13874  1.0000
  C   C268      1.0  0.75534  0.14904  0.31904  1.0000
  H   H417      1.0  0.00815  0.21934  0.11651  1.0000
  H   H418      1.0  0.63189  0.10535  0.32542  1.0000
  S   S110      1.0  0.74726  0.24689  0.18617  1.0000
  H   H419      1.0  0.76543  0.19114  0.13251  1.0000
  H   H420      1.0  0.61045  0.15827  0.25786  1.0000
  C   C269      1.0  0.91187  0.22319  0.26575  1.0000
  C   C270      1.0  0.92294  0.23559  0.23880  1.0000
  C   C271      1.0  0.90133  0.24290  0.21628  1.0000
  C   C272      1.0  0.86849  0.23810  0.22082  1.0000
  C   C273      1.0  0.85735  0.22687  0.24810  1.0000
  C   C274      1.0  0.87899  0.21972  0.27055  1.0000
  H   H421      1.0  0.94821  0.23962  0.23542  1.0000
  H   H422      1.0  0.91022  0.25188  0.19545  1.0000
  H   H423      1.0  0.83212  0.22348  0.25205  1.0000
  H   H424      1.0  0.87032  0.21144  0.29157  1.0000
  S   S111      1.0  0.03165  0.19622  0.30264  1.0000
  C   C275      1.0  0.70529  0.27588  0.30465  1.0000
  C   C276      1.0  0.98846  0.21186  0.13067  1.0000
  C   C277      1.0  0.99080  0.21663  0.15956  1.0000
  C   C278      1.0  0.96518  0.20731  0.17760  1.0000
  C   C279      1.0  0.93770  0.19215  0.16729  1.0000
  S   S112      1.0  0.76032  0.19445  0.31220  1.0000
  H   H425      1.0  0.81903  0.14491  0.18712  1.0000
  H   H426      1.0  0.96674  0.21141  0.19967  1.0000
  H   H427      1.0  0.91821  0.18450  0.18165  1.0000
  H   H428      1.0  0.54948  0.21971  0.27281  1.0000
  C   C280      1.0  0.75848  0.12728  0.29717  1.0000
  H   H429      1.0  0.87765  0.14543  0.29702  1.0000
  C   C281      1.0  0.75111  0.31004  0.31550  1.0000
  H   H430      1.0  0.83581  0.18795  0.11527  1.0000
  N   N28       1.0  0.80497  0.15623  0.14339  1.0000
  C   C282      1.0  0.96091  0.19655  0.12025  1.0000
  H   H431      1.0  0.63133  0.09705  0.26087  1.0000
  H   H432      1.0  0.68589  0.12727  0.31615  1.0000
  S   S113      1.0  0.70922  0.22002  0.24551  1.0000
  Fe  Fe54      1.0  0.75751  0.21312  0.26577  1.0000
  H   H433      1.0  0.02297  0.37933  0.28883  1.0000
  Fe  Fe55      1.0  0.73206  0.19600  0.20928  1.0000
  H   H434      1.0  0.67517  0.09656  0.14889  1.0000
  C   C283      1.0  0.02166  0.11623  0.13026  1.0000
  C   C284      1.0  0.78393  0.18564  0.14932  1.0000
  H   H435      1.0  0.85773  0.26049  0.12038  1.0000
  H   H436      1.0  0.84649  0.12934  0.16166  1.0000
  H   H437      1.0  0.96408  0.11568  0.15512  1.0000
  C   C285      1.0  0.82981  0.15102  0.16571  1.0000
  H   H438      1.0  0.00458  0.14940  0.17706  1.0000
  H   H439      1.0  0.59990  0.11713  0.30082  1.0000
  S   S114      1.0  0.77894  0.18487  0.23106  1.0000
  C   C286      1.0  0.78555  0.12416  0.14316  1.0000
  C   C287      1.0  0.82050  0.16428  0.11545  1.0000
  C   C288      1.0  0.97936  0.09222  0.16097  1.0000
  H   H440      1.0  0.65034  0.17367  0.25051  1.0000
  C   C289      1.0  0.75558  0.09100  0.30288  1.0000
  C   C290      1.0  0.02108  0.12663  0.17974  1.0000
  H   H441      1.0  0.02759  0.05652  0.18792  1.0000
  Fe  Fe56      1.0  0.72881  0.27034  0.22465  1.0000
  H   H442      1.0  0.77426  0.11694  0.16426  1.0000
  H   H443      1.0  0.67382  0.33658  0.30481  1.0000
  H   H444      1.0  0.76361  0.13815  0.27589  1.0000
  H   H445      1.0  0.70745  0.36247  0.31361  1.0000
  N   N29       1.0  0.01382  0.10099  0.15932  1.0000
  H   H446      1.0  0.77087  0.17961  0.16966  1.0000
  H   H447      1.0  0.82720  0.11154  0.30729  1.0000
  H   H448      1.0  0.90000  0.16044  0.32573  1.0000
  H   H449      1.0  0.55445  0.23496  0.23597  1.0000
  C   C291      1.0  0.03910  0.36341  0.30261  1.0000
  H   H450      1.0  0.93914  0.27329  0.14869  1.0000
  C   C292      1.0  0.70041  0.33847  0.30380  1.0000
  H   H451      1.0  0.84905  0.08088  0.33120  1.0000
  H   H452      1.0  0.94576  0.27217  0.11129  1.0000
  C   C293      1.0  0.88404  0.25788  0.12364  1.0000
  H   H453      1.0  0.94712  0.31303  0.12670  1.0000
  H   H454      1.0  0.76343  0.28585  0.32495  1.0000
  H   H455      1.0  0.04308  0.32285  0.27420  1.0000
  H   H456      1.0  0.01631  0.09761  0.11427  1.0000
  H   H457      1.0  0.89379  0.24166  0.10730  1.0000
  H   H458      1.0  0.55891  0.26479  0.26204  1.0000
  H   H459      1.0  0.64866  0.08751  0.12111  1.0000
  H   H460      1.0  0.85143  0.19038  0.34111  1.0000
  C   C294      1.0  0.83693  0.16783  0.33541  1.0000
  H   H461      1.0  0.81402  0.10225  0.34329  1.0000
  S   S115      1.0  0.55282  0.10678  0.25193  1.0000
  H   H462      1.0  0.89911  0.11469  0.32114  1.0000
  N   N30       1.0  0.85570  0.13496  0.33819  1.0000
  Fe  Fe57      1.0  0.54997  0.06104  0.22613  1.0000
  S   S116      1.0  0.90694  0.07397  0.09974  1.0000
  H   H463      1.0  0.80257  0.16929  0.09819  1.0000
  C   C295      1.0  0.02176  0.46388  0.48965  1.0000
  S   S117      1.0  0.60921  0.07601  0.40011  1.0000
  S   S118      1.0  0.58260  0.26665  0.39064  1.0000
  H   H464      1.0  0.88099  0.14833  0.37517  1.0000
  C   C296      1.0  0.56736  0.41269  0.43843  1.0000
  Fe  Fe58      1.0  0.61340  0.26271  0.35239  1.0000
  S   S119      1.0  0.65556  0.22651  0.35306  1.0000
  Fe  Fe59      1.0  0.58054  0.32393  0.37619  1.0000
  S   S120      1.0  0.59111  0.36168  0.40824  1.0000
  H   H465      1.0  0.96470  0.47484  0.53954  1.0000
  H   H466      1.0  0.88007  0.10235  0.37097  1.0000
  H   H467      1.0  0.69018  0.16225  0.36645  1.0000
  H   H468      1.0  0.98148  0.52281  0.42306  1.0000
  C   C297      1.0  0.61078  0.17883  0.37378  1.0000
  H   H469      1.0  0.59341  0.19966  0.37047  1.0000
  S   S121      1.0  0.60596  0.52503  0.52318  1.0000
  H   H470      1.0  0.71430  0.32586  0.35953  1.0000
  C   C298      1.0  0.66522  0.15746  0.37132  1.0000
  H   H471      1.0  0.55108  0.26511  0.48469  1.0000
  C   C299      1.0  0.86584  0.12702  0.36807  1.0000
  H   H472      1.0  0.74648  0.15102  0.36375  1.0000
  H   H473      1.0  0.84479  0.12393  0.38257  1.0000
  C   C300      1.0  0.65503  0.12376  0.38137  1.0000
  C   C301      1.0  0.64311  0.18498  0.36739  1.0000
  C   C302      1.0  0.60064  0.14536  0.38425  1.0000
  C   C303      1.0  0.62272  0.11783  0.38803  1.0000
  H   H474      1.0  0.67219  0.10253  0.38423  1.0000
  H   H475      1.0  0.57559  0.14081  0.38921  1.0000
  C   C304      1.0  0.70700  0.30284  0.34855  1.0000
  H   H476      1.0  0.71822  0.27903  0.35982  1.0000
  S   S122      1.0  0.03836  0.47432  0.40156  1.0000
  C   C305      1.0  0.00473  0.52474  0.48787  1.0000
  H   H477      1.0  0.04033  0.50520  0.46011  1.0000
  H   H478      1.0  0.73920  0.08679  0.37357  1.0000
  H   H479      1.0  0.99899  0.42889  0.52176  1.0000
  H   H480      1.0  0.68071  0.29970  0.35132  1.0000
  C   C306      1.0  0.00063  0.45558  0.51221  1.0000
  C   C307      1.0  0.98125  0.48159  0.52228  1.0000
  C   C308      1.0  0.98336  0.51624  0.51030  1.0000
  C   C309      1.0  0.74449  0.09805  0.35223  1.0000
  H   H481      1.0  0.91193  0.54959  0.59088  1.0000
  H   H482      1.0  0.55104  0.34071  0.46119  1.0000
  H   H483      1.0  0.59112  0.41326  0.44751  1.0000
  C   C310      1.0  0.96342  0.54344  0.41631  1.0000
  C   C311      1.0  0.56103  0.39087  0.41710  1.0000
  H   H484      1.0  0.56901  0.28297  0.45198  1.0000
  H   H485      1.0  0.01384  0.54344  0.38087  1.0000
  C   C312      1.0  0.54640  0.27199  0.46166  1.0000
  Fe  Fe60      1.0  0.55326  0.51471  0.51932  1.0000
  H   H486      1.0  0.54823  0.45017  0.46488  1.0000
  H   H487      1.0  0.94524  0.53144  0.40313  1.0000
  C   C313      1.0  0.02371  0.49850  0.47731  1.0000
  S   S123      1.0  0.95870  0.54805  0.52375  1.0000
  H   H488      1.0  0.81541  0.16604  0.34940  1.0000
  H   H489      1.0  0.95136  0.55065  0.43598  1.0000
  C   C314      1.0  0.54577  0.51011  0.63101  1.0000
  H   H490      1.0  0.96511  0.39233  0.76040  1.0000
  C   C315      1.0  0.03819  0.51623  0.71037  1.0000
  C   C316      1.0  0.93293  0.41433  0.84222  1.0000
  C   C317      1.0  0.89951  0.37113  0.82299  1.0000
  C   C318      1.0  0.56705  0.51934  0.67721  1.0000
  H   H491      1.0  0.88642  0.34678  0.82573  1.0000
  H   H492      1.0  0.03603  0.40702  0.80479  1.0000
  H   H493      1.0  0.99349  0.39932  0.80511  1.0000
  S   S124      1.0  0.91603  0.44618  0.75921  1.0000
  H   H494      1.0  0.98579  0.45106  0.76977  1.0000
  H   H495      1.0  0.88737  0.38115  0.77870  1.0000
  H   H496      1.0  0.56349  0.51551  0.70066  1.0000
  H   H497      1.0  0.76380  0.53497  0.74525  1.0000
  H   H498      1.0  0.56814  0.49703  0.62463  1.0000
  Fe  Fe61      1.0  0.91220  0.50427  0.75968  1.0000
  C   C319      1.0  0.89996  0.39062  0.79642  1.0000
  H   H499      1.0  0.03324  0.50267  0.69184  1.0000
  C   C320      1.0  0.01751  0.54275  0.71764  1.0000
  C   C321      1.0  0.91590  0.42262  0.79287  1.0000
  C   C322      1.0  0.00879  0.44410  0.75976  1.0000
  N   N31       1.0  0.01477  0.40596  0.76347  1.0000
  H   H500      1.0  0.98607  0.39682  0.72722  1.0000
  H   H501      1.0  0.56752  0.53848  0.78045  1.0000
  C   C323      1.0  0.98855  0.38764  0.75017  1.0000
  H   H502      1.0  0.99267  0.35888  0.75205  1.0000
  S   S125      1.0  0.93796  0.53340  0.79138  1.0000
  H   H503      1.0  0.81654  0.53685  0.72129  1.0000
  H   H504      1.0  0.56088  0.45260  0.66605  1.0000
  S   S126      1.0  0.86505  0.53137  0.76467  1.0000
  C   C324      1.0  0.93259  0.43447  0.81575  1.0000
  H   H505      1.0  0.59034  0.50706  0.67233  1.0000
  S   S127      1.0  0.92729  0.53959  0.72148  1.0000
  H   H506      1.0  0.02099  0.36530  0.79757  1.0000
  H   H507      1.0  0.86234  0.50694  0.84063  1.0000
  H   H508      1.0  0.00736  0.45394  0.73687  1.0000
  H   H509      1.0  0.54760  0.53844  0.62371  1.0000
  H   H510      1.0  0.94578  0.45866  0.81288  1.0000
  C   C325      1.0  0.01631  0.39396  0.79409  1.0000
  H   H511      1.0  0.02833  0.45878  0.76927  1.0000
  H   H512      1.0  0.56086  0.10355  0.82401  1.0000
  H   H513      1.0  0.87657  0.46272  0.84232  1.0000
  H   H514      1.0  0.56918  0.54802  0.67126  1.0000
  C   C326      1.0  0.91574  0.38300  0.84603  1.0000
  H   H515      1.0  0.99679  0.54982  0.70459  1.0000
  H   H516      1.0  0.03752  0.52761  0.86089  1.0000
  H   H517      1.0  0.54837  0.05956  0.94503  1.0000
  Fe  Fe62      1.0  0.65660  0.05554  0.99802  1.0000
  C   C327      1.0  0.57837  0.17518  0.94415  1.0000
  Fe  Fe63      1.0  0.60637  0.09650  0.02694  1.0000
  S   S128      1.0  0.56233  0.12995  0.02384  1.0000
  S   S129      1.0  0.61974  0.07236  0.07013  1.0000
  H   H518      1.0  0.59871  0.18221  0.93063  1.0000
  H   H519      1.0  0.76776  0.13528  0.07311  1.0000
  C   C328      1.0  0.55694  0.15044  0.98945  1.0000
  C   C329      1.0  0.58324  0.15927  0.97185  1.0000
  N   N32       1.0  0.57540  0.08011  0.90846  1.0000
  H   H520      1.0  0.78212  0.07822  0.93289  1.0000
  H   H521      1.0  0.60730  0.15437  0.97973  1.0000
  H   H522      1.0  0.02876  0.23946  0.93428  1.0000
  S   S130      1.0  0.65698  0.10880  0.01364  1.0000
  H   H523      1.0  0.80905  0.11253  0.96800  1.0000
  H   H524      1.0  0.01657  0.06342  0.04789  1.0000
  H   H525      1.0  0.75509  0.13065  0.94909  1.0000
  H   H526      1.0  0.90445  0.29603  0.07662  1.0000
  H   H527      1.0  0.00477  0.22413  0.96446  1.0000
  C   C330      1.0  0.60537  0.08168  0.92484  1.0000
  Fe  Fe64      1.0  0.67046  0.07948  0.05535  1.0000
  H   H528      1.0  0.79370  0.11131  0.00360  1.0000
  H   H529      1.0  0.92634  0.50340  0.89544  1.0000
  Fe  Fe65      1.0  0.95441  0.06998  0.07818  1.0000
  H   H530      1.0  0.54323  0.11781  0.08889  1.0000
  H   H531      1.0  0.93061  0.28777  0.96708  1.0000
  C   C331      1.0  0.02012  0.27649  0.99636  1.0000
  H   H532      1.0  0.01704  0.35860  0.89669  1.0000
  C   C332      1.0  0.74442  0.11329  0.96679  1.0000
  H   H533      1.0  0.72066  0.10457  0.95948  1.0000
  Fe  Fe66      1.0  0.93766  0.12817  0.03264  1.0000
  C   C333      1.0  0.57395  0.11019  0.88650  1.0000
  S   S131      1.0  0.95217  0.16381  0.99449  1.0000
  H   H534      1.0  0.89423  0.45507  0.91948  1.0000
  H   H535      1.0  0.86877  0.31570  0.08911  1.0000
  H   H536      1.0  0.03579  0.31433  0.94709  1.0000
  H   H537      1.0  0.00143  0.29610  0.98913  1.0000
  S   S132      1.0  0.91300  0.35843  0.87925  1.0000
  Fe  Fe67      1.0  0.88632  0.07818  0.05589  1.0000
  H   H538      1.0  0.91235  0.52609  0.86285  1.0000
  S   S133      1.0  0.96339  0.12758  0.07429  1.0000
  S   S134      1.0  0.88867  0.13668  0.05027  1.0000
  C   C334      1.0  0.77188  0.10774  0.07152  1.0000
  S   S135      1.0  0.90960  0.39093  0.95487  1.0000
  H   H539      1.0  0.01514  0.49306  0.90357  1.0000
  S   S136      1.0  0.93164  0.49102  0.95624  1.0000
  H   H540      1.0  0.83897  0.47226  0.85829  1.0000
  C   C335      1.0  0.91304  0.50009  0.87547  1.0000
  H   H541      1.0  0.86060  0.53769  0.88516  1.0000
  H   H542      1.0  0.00763  0.25434  0.00864  1.0000
  Fe  Fe68      1.0  0.94610  0.35862  0.98064  1.0000
  H   H543      1.0  0.89608  0.43290  0.88790  1.0000
  H   H544      1.0  0.83776  0.50229  0.90256  1.0000
  H   H545      1.0  0.55732  0.29278  0.86005  1.0000
  H   H546      1.0  0.87464  0.51547  0.91791  1.0000
  H   H547      1.0  0.99510  0.47560  0.97854  1.0000
  C   C336      1.0  0.80694  0.06054  0.06013  1.0000
  S   S137      1.0  0.97139  0.34076  0.94276  1.0000
  H   H548      1.0  0.85814  0.44129  0.90355  1.0000
  C   C337      1.0  0.80227  0.09582  0.06406  1.0000
  H   H549      1.0  0.59254  0.10819  0.86983  1.0000
  C   C338      1.0  0.74633  0.08436  0.07560  1.0000
  Fe  Fe69      1.0  0.91402  0.13171  0.09208  1.0000
  C   C339      1.0  0.75033  0.06093  0.99884  1.0000
  H   H550      1.0  0.82169  0.11413  0.06015  1.0000
  H   H551      1.0  0.60756  0.05903  0.94124  1.0000
  C   C340      1.0  0.88230  0.45247  0.89883  1.0000
  N   N33       1.0  0.76554  0.08310  0.97540  1.0000
  C   C341      1.0  0.93698  0.27735  0.01229  1.0000
  Fe  Fe70      1.0  0.00151  0.38832  0.94499  1.0000
  S   S138      1.0  0.93344  0.06962  0.03451  1.0000
  C   C342      1.0  0.94493  0.20721  0.00142  1.0000
  C   C343      1.0  0.93972  0.23310  0.97897  1.0000
  C   C344      1.0  0.93544  0.26809  0.98443  1.0000
  S   S139      1.0  0.70814  0.10011  0.08317  1.0000
  N   N34       1.0  0.88040  0.48654  0.88152  1.0000
  H   H552      1.0  0.93876  0.22607  0.95738  1.0000
  H   H553      1.0  0.60654  0.10582  0.93603  1.0000
  C   C345      1.0  0.89467  0.31110  0.09368  1.0000
  S   S140      1.0  0.97924  0.40365  0.98499  1.0000
  S   S141      1.0  0.93517  0.32139  0.01927  1.0000
  C   C346      1.0  0.94147  0.25131  0.03478  1.0000
  H   H554      1.0  0.73994  0.12934  0.98480  1.0000
  C   C347      1.0  0.96589  0.51705  0.95822  1.0000
  H   H555      1.0  0.94293  0.25821  0.05636  1.0000
  H   H556      1.0  0.74462  0.07627  0.01696  1.0000
  H   H557      1.0  0.94901  0.19643  0.04674  1.0000
  C   C348      1.0  0.99427  0.50265  0.97005  1.0000
  H   H558      1.0  0.03273  0.45349  0.89246  1.0000
  C   C349      1.0  0.86247  0.51158  0.89745  1.0000
  H   H559      1.0  0.57782  0.13531  0.89577  1.0000
  S   S142      1.0  0.97033  0.42279  0.91578  1.0000
  C   C350      1.0  0.77060  0.06236  0.95102  1.0000
  H   H560      1.0  0.94636  0.42303  0.85963  1.0000
  Fe  Fe71      1.0  0.93776  0.37679  0.91714  1.0000
  H   H561      1.0  0.62681  0.08144  0.91084  1.0000
  H   H562      1.0  0.81315  0.07357  0.99203  1.0000
  Fe  Fe72      1.0  0.94522  0.43451  0.95557  1.0000
  C   C351      1.0  0.94517  0.21628  0.02935  1.0000
  C   C352      1.0  0.79670  0.09573  0.98510  1.0000
  H   H563      1.0  0.92726  0.48220  0.86325  1.0000
  C   C353      1.0  0.86382  0.48195  0.85452  1.0000
  C   C354      1.0  0.54720  0.18120  0.93379  1.0000
  C   C355      1.0  0.01613  0.24780  0.95326  1.0000
  H   H564      1.0  0.99643  0.26589  0.94548  1.0000
  H   H565      1.0  0.55018  0.11222  0.87583  1.0000
  C   C356      1.0  0.04124  0.36231  0.88895  1.0000
  H   H566      1.0  0.54738  0.10619  0.93821  1.0000
  N   N35       1.0  0.03824  0.26461  0.97215  1.0000
  C   C357      1.0  0.54770  0.08142  0.92783  1.0000
  H   H567      1.0  0.03601  0.28903  0.01126  1.0000
  C   C358      1.0  0.03725  0.47666  0.90430  1.0000
  C   C359      1.0  0.02152  0.52354  0.97170  1.0000
  H   H568      1.0  0.74745  0.05247  0.94326  1.0000
  H   H569      1.0  0.90680  0.33697  0.09152  1.0000
  H   H570      1.0  0.04117  0.46664  0.92696  1.0000
  H   H571      1.0  0.03125  0.34195  0.84900  1.0000
  H   H572      1.0  0.95908  0.19313  0.09794  1.0000
  C   C360      1.0  0.60899  0.95927  0.30758  1.0000
  H   H573      1.0  0.65863  0.97400  0.30334  1.0000
  C   C361      1.0  0.57369  0.98449  0.27019  1.0000
  H   H574      1.0  0.70572  0.04423  0.13401  1.0000
  C   C362      1.0  0.59977  0.00168  0.25659  1.0000
  C   C363      1.0  0.68263  0.03006  0.13269  1.0000
  H   H575      1.0  0.60867  0.03416  0.16253  1.0000
  S   S143      1.0  0.59451  0.02862  0.22494  1.0000
  H   H576      1.0  0.61857  0.02873  0.12618  1.0000
  C   C364      1.0  0.57845  0.96265  0.29541  1.0000
  H   H577      1.0  0.68732  0.00167  0.13813  1.0000
  H   H578      1.0  0.03723  0.97966  0.11231  1.0000
  H   H579      1.0  0.65063  0.01070  0.25788  1.0000
  H   H580      1.0  0.67485  0.03367  0.11008  1.0000
  C   C365      1.0  0.63495  0.97673  0.29407  1.0000
  C   C366      1.0  0.63043  0.99747  0.26836  1.0000
  H   H581      1.0  0.55843  0.94890  0.30572  1.0000
  C   C367      1.0  0.66914  0.03727  0.18142  1.0000
  C   C368      1.0  0.62762  0.02486  0.14839  1.0000
  S   S144      1.0  0.61437  0.93568  0.34080  1.0000
  H   H582      1.0  0.55003  0.98743  0.26094  1.0000
  H   H583      1.0  0.02866  0.04932  0.15092  1.0000
  H   H584      1.0  0.63030  0.99618  0.15402  1.0000
  H   H585      1.0  0.55031  0.93272  0.10158  1.0000
  H   H586      1.0  0.67233  0.00889  0.18812  1.0000
  S   S145      1.0  0.74665  0.03080  0.33710  1.0000
  H   H587      1.0  0.57108  0.03329  0.31837  1.0000
  N   N36       1.0  0.65821  0.04338  0.15162  1.0000
  S   S146      1.0  0.98883  0.03130  0.10039  1.0000
  H   H588      1.0  0.65140  0.04740  0.19617  1.0000
  C   C369      1.0  0.55892  0.05086  0.33247  1.0000
  H   H589      1.0  0.69226  0.05065  0.18466  1.0000
  H   H590      1.0  0.57656  0.01825  0.38287  1.0000
  Fe  Fe73      1.0  0.64717  0.96793  0.36492  1.0000
  S   S147      1.0  0.63221  0.97915  0.40834  1.0000
  H   H591      1.0  0.59618  0.66453  0.47980  1.0000
  H   H592      1.0  0.55821  0.61611  0.49210  1.0000
  Fe  Fe74      1.0  0.68394  0.97129  0.41974  1.0000
  C   C370      1.0  0.65062  0.73819  0.58866  1.0000
  H   H593      1.0  0.60165  0.69780  0.50341  1.0000
  H   H594      1.0  0.71265  0.61906  0.57330  1.0000
  H   H595      1.0  0.99025  0.59951  0.43756  1.0000
  C   C371      1.0  0.63661  0.88090  0.41254  1.0000
  C   C372      1.0  0.60365  0.56981  0.47420  1.0000
  H   H596      1.0  0.65652  0.89106  0.42500  1.0000
  Fe  Fe75      1.0  0.67631  0.72553  0.52440  1.0000
  C   C373      1.0  0.65838  0.82229  0.41688  1.0000
  S   S148      1.0  0.67215  0.74066  0.47757  1.0000
  N   N37       1.0  0.97863  0.57415  0.40054  1.0000
  C   C374      1.0  0.62049  0.84004  0.37961  1.0000
  H   H597      1.0  0.61335  0.65305  0.54358  1.0000
  H   H598      1.0  0.66660  0.55946  0.51983  1.0000
  C   C375      1.0  0.95400  0.60081  0.39180  1.0000
  H   H599      1.0  0.84813  0.73655  0.55243  1.0000
  H   H600      1.0  0.01787  0.68867  0.36716  1.0000
  H   H601      1.0  0.68723  0.87489  0.49749  1.0000
  S   S149      1.0  0.65405  0.65476  0.44453  1.0000
  H   H602      1.0  0.79337  0.71212  0.55064  1.0000
  C   C376      1.0  0.02742  0.72825  0.42785  1.0000
  H   H603      1.0  0.72587  0.68061  0.57951  1.0000
  C   C377      1.0  0.71642  0.83695  0.47845  1.0000
  H   H604      1.0  0.59992  0.60993  0.43913  1.0000
  H   H605      1.0  0.01558  0.61121  0.40756  1.0000
  H   H606      1.0  0.66731  0.79992  0.40573  1.0000
  S   S150      1.0  0.63608  0.73401  0.55450  1.0000
  H   H607      1.0  0.59981  0.83126  0.39330  1.0000
  C   C378      1.0  0.66312  0.59917  0.48449  1.0000
  H   H608      1.0  0.73702  0.91307  0.42133  1.0000
  Fe  Fe76      1.0  0.64570  0.03434  0.39451  1.0000
  H   H609      1.0  0.58650  0.61660  0.55098  1.0000
  H   H610      1.0  0.62748  0.90316  0.39793  1.0000
  S   S151      1.0  0.69791  0.95518  0.37706  1.0000
  Fe  Fe77      1.0  0.68353  0.68437  0.47350  1.0000
  C   C379      1.0  0.59596  0.63578  0.53391  1.0000
  N   N38       1.0  0.64738  0.85165  0.39666  1.0000
  S   S152      1.0  0.68375  0.66876  0.52026  1.0000
  H   H611      1.0  0.68640  0.61001  0.48819  1.0000
  H   H612      1.0  0.57041  0.69601  0.54808  1.0000
  C   C380      1.0  0.64382  0.61425  0.46240  1.0000
  H   H613      1.0  0.71048  0.81579  0.49434  1.0000
  C   C381      1.0  0.55775  0.00516  0.37119  1.0000
  Fe  Fe78      1.0  0.72553  0.74711  0.47922  1.0000
  C   C382      1.0  0.70326  0.87036  0.48021  1.0000
  Fe  Fe79      1.0  0.70623  0.01271  0.36605  1.0000
  S   S153      1.0  0.69649  0.02819  0.40992  1.0000
  S   S154      1.0  0.69199  0.93871  0.46129  1.0000
  H   H614      1.0  0.93567  0.59050  0.37779  1.0000
  H   H615      1.0  0.61181  0.86163  0.36399  1.0000
  C   C383      1.0  0.02766  0.70578  0.38182  1.0000
  Fe  Fe80      1.0  0.98117  0.66510  0.46726  1.0000
  S   S155      1.0  0.98870  0.70327  0.49953  1.0000
  S   S156      1.0  0.65647  0.02390  0.34990  1.0000
  Fe  Fe81      1.0  0.94766  0.67594  0.52258  1.0000
  S   S157      1.0  0.90985  0.70735  0.54266  1.0000
  C   C384      1.0  0.65211  0.57028  0.50213  1.0000
  S   S158      1.0  0.93726  0.64119  0.48831  1.0000
  H   H616      1.0  0.66646  0.88557  0.36193  1.0000
  S   S159      1.0  0.01489  0.62469  0.48773  1.0000
  S   S160      1.0  0.77117  0.64362  0.54006  1.0000
  C   C385      1.0  0.87154  0.68899  0.54279  1.0000
  C   C386      1.0  0.84486  0.70969  0.54796  1.0000
  C   C387      1.0  0.81390  0.69594  0.54686  1.0000
  C   C388      1.0  0.80966  0.66120  0.54127  1.0000
  C   C389      1.0  0.83636  0.64023  0.53680  1.0000
  C   C390      1.0  0.86729  0.65426  0.53716  1.0000
  H   H617      1.0  0.94148  0.60994  0.41057  1.0000
  C   C391      1.0  0.85392  0.72557  0.43385  1.0000
  H   H618      1.0  0.83307  0.61332  0.53246  1.0000
  H   H619      1.0  0.88779  0.63814  0.53324  1.0000
  S   S161      1.0  0.97865  0.63700  0.54814  1.0000
  H   H620      1.0  0.79802  0.72897  0.46113  1.0000
  H   H621      1.0  0.62776  0.81792  0.36740  1.0000
  C   C392      1.0  0.01475  0.70581  0.40917  1.0000
  H   H622      1.0  0.81890  0.78394  0.43570  1.0000
  H   H623      1.0  0.91376  0.64657  0.58691  1.0000
  Fe  Fe82      1.0  0.97176  0.60412  0.51198  1.0000
  C   C393      1.0  0.67404  0.86350  0.37756  1.0000
  H   H624      1.0  0.67832  0.83045  0.43025  1.0000
  H   H625      1.0  0.88250  0.71434  0.48449  1.0000
  Fe  Fe83      1.0  0.01895  0.66081  0.52191  1.0000
  H   H626      1.0  0.87176  0.75516  0.49743  1.0000
  H   H627      1.0  0.89724  0.75443  0.46687  1.0000
  H   H628      1.0  0.85945  0.69745  0.43996  1.0000
  Fe  Fe84      1.0  0.73592  0.68134  0.51811  1.0000
  N   N39       1.0  0.84743  0.74429  0.45915  1.0000
  H   H629      1.0  0.61709  0.87281  0.42775  1.0000
  C   C394      1.0  0.81976  0.72809  0.47478  1.0000
  C   C395      1.0  0.84000  0.78139  0.45018  1.0000
  C   C396      1.0  0.87594  0.74203  0.47775  1.0000
  H   H630      1.0  0.86052  0.79477  0.43881  1.0000
  S   S162      1.0  0.72903  0.73722  0.52677  1.0000
  C   C397      1.0  0.61462  0.59877  0.45658  1.0000
  H   H631      1.0  0.81362  0.74207  0.49363  1.0000
  H   H632      1.0  0.82457  0.70022  0.48244  1.0000
  H   H633      1.0  0.83285  0.72677  0.41933  1.0000
  S   S163      1.0  0.75243  0.78908  0.45278  1.0000
  H   H634      1.0  0.87476  0.73701  0.42158  1.0000
  S   S164      1.0  0.73651  0.69186  0.47074  1.0000
  H   H635      1.0  0.74798  0.60461  0.59241  1.0000
  C   C398      1.0  0.68080  0.75265  0.59245  1.0000
  H   H636      1.0  0.83400  0.79600  0.46873  1.0000
  C   C399      1.0  0.73718  0.83107  0.45617  1.0000
  S   S165      1.0  0.98306  0.67753  0.41986  1.0000
  H   H637      1.0  0.01732  0.72901  0.44873  1.0000
  H   H638      1.0  0.76081  0.85413  0.41842  1.0000
  H   H639      1.0  0.69464  0.87274  0.38971  1.0000
  N   N40       1.0  0.56993  0.65629  0.51902  1.0000
  C   C400      1.0  0.74473  0.85861  0.43567  1.0000
  H   H640      1.0  0.68298  0.84208  0.36536  1.0000
  C   C401      1.0  0.73108  0.89186  0.43715  1.0000
  C   C402      1.0  0.71031  0.89776  0.45942  1.0000
  C   C403      1.0  0.99499  0.56335  0.37504  1.0000
  H   H641      1.0  0.60961  0.62069  0.51900  1.0000
  H   H642      1.0  0.69469  0.76281  0.57423  1.0000
  H   H643      1.0  0.96496  0.62438  0.38008  1.0000
  C   C404      1.0  0.62181  0.55638  0.49763  1.0000
  C   C405      1.0  0.58369  0.67968  0.49549  1.0000
  H   H644      1.0  0.56485  0.69577  0.48379  1.0000
  H   H645      1.0  0.00711  0.58589  0.36292  1.0000
  H   H646      1.0  0.57003  0.98668  0.35801  1.0000
  H   H647      1.0  0.63887  0.81247  0.43155  1.0000
  C   C406      1.0  0.00221  0.58917  0.41911  1.0000
  C   C407      1.0  0.92079  0.57699  0.58854  1.0000
  H   H648      1.0  0.58092  0.55835  0.46990  1.0000
  C   C408      1.0  0.55352  0.67747  0.53919  1.0000
  H   H649      1.0  0.02013  0.56931  0.42754  1.0000
  H   H650      1.0  0.67334  0.65811  0.59528  1.0000
  C   C409      1.0  0.72226  0.61151  0.59502  1.0000
  H   H651      1.0  0.94745  0.57572  0.58779  1.0000
  H   H652      1.0  0.91265  0.58913  0.56741  1.0000
  C   C410      1.0  0.54669  0.63230  0.50756  1.0000
  H   H653      1.0  0.86431  0.61078  0.59166  1.0000
  H   H654      1.0  0.97796  0.55186  0.36047  1.0000
  H   H655      1.0  0.00654  0.55142  0.47864  1.0000
  C   C411      1.0  0.63886  0.76991  0.77772  1.0000
  H   H656      1.0  0.59770  0.86363  0.65800  1.0000
  H   H657      1.0  0.62051  0.85790  0.72034  1.0000
  C   C412      1.0  0.02414  0.56065  0.74130  1.0000
  Fe  Fe85      1.0  0.57704  0.97417  0.83038  1.0000
  Fe  Fe86      1.0  0.61728  0.64416  0.71506  1.0000
  S   S166      1.0  0.61746  0.70136  0.72123  1.0000
  S   S167      1.0  0.57489  0.62021  0.69487  1.0000
  H   H658      1.0  0.62268  0.77415  0.68696  1.0000
  H   H659      1.0  0.97809  0.66735  0.75723  1.0000
  C   C413      1.0  0.59773  0.83788  0.67102  1.0000
  H   H660      1.0  0.03502  0.63131  0.78950  1.0000
  H   H661      1.0  0.64758  0.80939  0.64609  1.0000
  S   S168      1.0  0.62088  0.94030  0.83573  1.0000
  S   S169      1.0  0.61787  0.87206  0.78143  1.0000
  C   C414      1.0  0.63804  0.85696  0.70261  1.0000
  H   H662      1.0  0.61020  0.79473  0.71782  1.0000
  H   H663      1.0  0.82283  0.58754  0.79443  1.0000
  H   H664      1.0  0.98669  0.72902  0.79384  1.0000
  H   H665      1.0  0.67787  0.82152  0.66996  1.0000
  S   S170      1.0  0.69112  0.74174  0.67754  1.0000
  C   C415      1.0  0.89611  0.61067  0.84747  1.0000
  H   H666      1.0  0.91272  0.59434  0.65745  1.0000
  C   C416      1.0  0.61668  0.75295  0.79639  1.0000
  H   H667      1.0  0.57892  0.83896  0.68764  1.0000
  H   H668      1.0  0.59708  0.57382  0.74258  1.0000
  Fe  Fe87      1.0  0.59218  0.90149  0.81390  1.0000
  C   C417      1.0  0.61693  0.82627  0.78740  1.0000
  C   C418      1.0  0.59454  0.80927  0.80584  1.0000
  C   C419      1.0  0.59470  0.77264  0.81065  1.0000
  H   H669      1.0  0.86455  0.61233  0.62954  1.0000
  C   C420      1.0  0.63924  0.80652  0.77356  1.0000
  N   N41       1.0  0.90935  0.59693  0.61187  1.0000
  C   C421      1.0  0.83268  0.65756  0.78886  1.0000
  H   H670      1.0  0.81290  0.60612  0.75958  1.0000
  C   C422      1.0  0.67501  0.74131  0.64351  1.0000
  H   H671      1.0  0.78299  0.66289  0.75293  1.0000
  H   H672      1.0  0.99394  0.63160  0.80059  1.0000
  H   H673      1.0  0.65703  0.81954  0.75975  1.0000
  C   C423      1.0  0.80098  0.55952  0.71890  1.0000
  C   C424      1.0  0.62847  0.79531  0.70061  1.0000
  S   S171      1.0  0.71763  0.58832  0.75234  1.0000
  C   C425      1.0  0.69281  0.75465  0.61990  1.0000
  S   S172      1.0  0.61629  0.70722  0.80186  1.0000
  N   N42       1.0  0.80179  0.63895  0.79244  1.0000
  C   C426      1.0  0.64466  0.72719  0.63979  1.0000
  H   H674      1.0  0.63078  0.71684  0.65797  1.0000
  H   H675      1.0  0.65600  0.85481  0.64845  1.0000
  H   H676      1.0  0.66210  0.85199  0.71233  1.0000
  Fe  Fe88      1.0  0.63779  0.68450  0.76418  1.0000
  S   S173      1.0  0.99811  0.59351  0.75049  1.0000
  S   S174      1.0  0.68925  0.68746  0.75048  1.0000
  C   C427      1.0  0.65378  0.82895  0.66109  1.0000
  Fe  Fe89      1.0  0.66854  0.69983  0.70693  1.0000
  H   H677      1.0  0.65605  0.75482  0.76683  1.0000
  H   H678      1.0  0.94760  0.57872  0.64013  1.0000
  S   S175      1.0  0.66655  0.64435  0.69618  1.0000
  H   H679      1.0  0.65202  0.78845  0.71078  1.0000
  S   S176      1.0  0.63347  0.62744  0.75946  1.0000
  H   H680      1.0  0.68031  0.66920  0.63072  1.0000
  H   H681      1.0  0.99826  0.70786  0.74658  1.0000
  H   H682      1.0  0.59045  0.81771  0.65690  1.0000
  N   N43       1.0  0.62952  0.82980  0.68383  1.0000
  H   H683      1.0  0.63850  0.88346  0.69081  1.0000
  H   H684      1.0  0.60894  0.71482  0.60945  1.0000
  Fe  Fe90      1.0  0.68286  0.63185  0.74107  1.0000
  C   C428      1.0  0.68400  0.64847  0.61621  1.0000
  H   H685      1.0  0.72963  0.65038  0.65630  1.0000
  C   C429      1.0  0.98988  0.70159  0.80329  1.0000
  H   H686      1.0  0.76952  0.62097  0.82606  1.0000
  C   C430      1.0  0.55476  0.59035  0.71896  1.0000
  N   N44       1.0  0.71840  0.64014  0.61352  1.0000
  S   S177      1.0  0.85157  0.59441  0.69329  1.0000
  H   H687      1.0  0.86378  0.57096  0.61501  1.0000
  H   H688      1.0  0.83122  0.68407  0.79638  1.0000
  C   C431      1.0  0.63231  0.72601  0.61234  1.0000
  S   S178      1.0  0.87132  0.58008  0.83332  1.0000
  S   S179      1.0  0.90572  0.60483  0.75807  1.0000
  C   C432      1.0  0.80494  0.60407  0.78207  1.0000
  H   H689      1.0  0.02481  0.64622  0.82305  1.0000
  H   H690      1.0  0.56517  0.67011  0.77309  1.0000
  C   C433      1.0  0.00145  0.68118  0.75760  1.0000
  H   H691      1.0  0.84032  0.66054  0.76618  1.0000
  C   C434      1.0  0.81129  0.59029  0.70355  1.0000
  H   H692      1.0  0.75774  0.62235  0.64063  1.0000
  H   H693      1.0  0.68143  0.86284  0.84770  1.0000
  C   C435      1.0  0.75113  0.58791  0.73007  1.0000
  C   C436      1.0  0.76031  0.61794  0.71288  1.0000
  C   C437      1.0  0.79049  0.61913  0.69959  1.0000
  C   C438      1.0  0.92095  0.57993  0.63939  1.0000
  H   H694      1.0  0.75324  0.64528  0.77753  1.0000
  H   H695      1.0  0.74503  0.64088  0.71126  1.0000
  H   H696      1.0  0.79849  0.64303  0.68776  1.0000
  H   H697      1.0  0.85213  0.64305  0.80109  1.0000
  H   H698      1.0  0.70961  0.58741  0.60376  1.0000
  C   C439      1.0  0.77098  0.55834  0.73221  1.0000
  H   H699      1.0  0.93953  0.59224  0.82905  1.0000
  H   H700      1.0  0.57660  0.82420  0.81589  1.0000
  H   H701      1.0  0.94835  0.63351  0.60782  1.0000
  C   C440      1.0  0.92901  0.61121  0.84179  1.0000
  H   H702      1.0  0.96598  0.68878  0.80415  1.0000
  H   H703      1.0  0.71618  0.76589  0.62276  1.0000
  C   C441      1.0  0.01681  0.64632  0.80066  1.0000
  C   C442      1.0  0.73546  0.67154  0.60094  1.0000
  H   H704      1.0  0.99777  0.70255  0.82569  1.0000
  S   S180      1.0  0.58074  0.03236  0.82184  1.0000
  H   H705      1.0  0.57728  0.75957  0.82487  1.0000
  N   N45       1.0  0.01315  0.68233  0.78698  1.0000
  H   H706      1.0  0.01854  0.66670  0.74483  1.0000
  H   H707      1.0  0.77309  0.68540  0.78339  1.0000
  C   C443      1.0  0.77669  0.65911  0.77589  1.0000
  H   H708      1.0  0.73310  0.69365  0.61439  1.0000
  C   C444      1.0  0.57135  0.57214  0.74143  1.0000
  C   C445      1.0  0.73185  0.62917  0.64193  1.0000
  Fe  Fe91      1.0  0.89243  0.56400  0.79298  1.0000
  H   H709      1.0  0.91311  0.64905  0.62459  1.0000
  H   H710      1.0  0.56678  0.62350  0.78074  1.0000
  C   C446      1.0  0.54395  0.65276  0.82606  1.0000
  H   H711      1.0  0.64093  0.85392  0.83837  1.0000
  H   H712      1.0  0.78185  0.58963  0.78368  1.0000
  H   H713      1.0  0.81111  0.61935  0.83575  1.0000
  H   H714      1.0  0.71930  0.60581  0.65232  1.0000
  Fe  Fe92      1.0  0.94901  0.57128  0.75371  1.0000
  C   C447      1.0  0.79278  0.63488  0.82280  1.0000
  Fe  Fe93      1.0  0.88240  0.56961  0.72903  1.0000
  H   H715      1.0  0.55778  0.67759  0.82431  1.0000
  C   C448      1.0  0.92168  0.63307  0.60765  1.0000
  H   H716      1.0  0.67013  0.62522  0.62499  1.0000
  H   H717      1.0  0.56137  0.63109  0.83148  1.0000
  C   C449      1.0  0.87394  0.59779  0.61197  1.0000
  H   H718      1.0  0.79048  0.66065  0.83151  1.0000
  S   S181      1.0  0.55009  0.93767  0.80481  1.0000
  C   C450      1.0  0.55023  0.64611  0.77616  1.0000
  H   H719      1.0  0.65552  0.79102  0.83959  1.0000
  H   H720      1.0  0.76148  0.66617  0.59828  1.0000
  H   H721      1.0  0.91187  0.55270  0.64342  1.0000
  H   H722      1.0  0.04289  0.72728  0.77606  1.0000
  C   C451      1.0  0.55468  0.55159  0.76257  1.0000
  S   S182      1.0  0.62132  0.90577  0.91773  1.0000
  H   H723      1.0  0.65796  0.02669  0.90037  1.0000
  H   H724      1.0  0.00899  0.97633  0.03799  1.0000
  C   C452      1.0  0.55767  0.98090  0.07511  1.0000
  C   C453      1.0  0.65677  0.97915  0.96491  1.0000
  H   H725      1.0  0.96815  0.89475  0.02143  1.0000
  H   H726      1.0  0.02626  0.78644  0.99151  1.0000
  C   C454      1.0  0.88267  0.63527  0.86399  1.0000
  H   H727      1.0  0.67178  0.76842  0.87137  1.0000
  H   H728      1.0  0.66246  0.98129  0.98698  1.0000
  C   C455      1.0  0.64142  0.97361  0.90797  1.0000
  C   C456      1.0  0.63726  0.94479  0.92803  1.0000
  C   C457      1.0  0.67098  0.79415  0.85837  1.0000
  H   H729      1.0  0.54975  0.91536  0.04301  1.0000
  H   H730      1.0  0.59547  0.04528  0.88008  1.0000
  H   H731      1.0  0.94314  0.56366  0.93841  1.0000
  H   H732      1.0  0.58849  0.96577  0.98159  1.0000
  H   H733      1.0  0.64223  0.92517  0.97207  1.0000
  H   H734      1.0  0.98991  0.97004  0.00497  1.0000
  C   C458      1.0  0.99457  0.95759  0.02682  1.0000
  H   H735      1.0  0.97390  0.63624  0.84900  1.0000
  C   C459      1.0  0.64531  0.94743  0.95648  1.0000
  H   H736      1.0  0.57573  0.02384  0.91050  1.0000
  S   S183      1.0  0.59938  0.97547  0.07325  1.0000
  H   H737      1.0  0.68146  0.80128  0.91377  1.0000
  C   C460      1.0  0.57579  0.95809  0.00187  1.0000
  H   H738      1.0  0.58399  0.88897  0.00629  1.0000
  H   H739      1.0  0.62610  0.78809  0.89968  1.0000
  H   H740      1.0  0.63524  0.97192  0.88601  1.0000
  C   C461      1.0  0.65422  0.00475  0.91614  1.0000
  H   H741      1.0  0.03155  0.92568  0.06798  1.0000
  H   H742      1.0  0.56525  0.98211  0.00950  1.0000
  H   H743      1.0  0.64901  0.87723  0.86862  1.0000
  C   C462      1.0  0.62607  0.81287  0.88540  1.0000
  Fe  Fe94      1.0  0.59697  0.91712  0.87551  1.0000
  C   C463      1.0  0.66155  0.00769  0.94464  1.0000
  H   H744      1.0  0.73169  0.03063  0.07600  1.0000
  S   S184      1.0  0.67415  0.02694  0.03866  1.0000
  H   H745      1.0  0.60944  0.80930  0.86753  1.0000
  S   S185      1.0  0.55557  0.95421  0.87209  1.0000
  S   S186      1.0  0.57193  0.87530  0.85438  1.0000
  Fe  Fe95      1.0  0.00941  0.67756  0.89113  1.0000
  C   C464      1.0  0.01687  0.90821  0.05580  1.0000
  C   C465      1.0  0.02365  0.02237  0.08173  1.0000
  C   C466      1.0  0.02077  0.55869  0.96077  1.0000
  H   H746      1.0  0.98755  0.91027  0.98864  1.0000
  C   C467      1.0  0.78150  0.03704  0.06473  1.0000
  H   H747      1.0  0.72752  0.04954  0.99205  1.0000
  H   H748      1.0  0.89156  0.68033  0.88670  1.0000
  C   C468      1.0  0.57468  0.04718  0.89468  1.0000
  H   H749      1.0  0.61579  0.83370  0.89761  1.0000
  H   H750      1.0  0.70461  0.83326  0.89235  1.0000
  N   N46       1.0  0.65863  0.82206  0.87495  1.0000
  H   H751      1.0  0.59404  0.94804  0.01784  1.0000
  H   H752      1.0  0.99391  0.90345  0.06745  1.0000
  C   C469      1.0  0.90202  0.66095  0.87428  1.0000
  C   C470      1.0  0.93501  0.66123  0.86900  1.0000
  C   C471      1.0  0.99254  0.57306  0.94855  1.0000
  H   H753      1.0  0.55267  0.04542  0.88163  1.0000
  H   H754      1.0  0.99172  0.60027  0.94021  1.0000
  H   H755      1.0  0.97116  0.95453  0.03806  1.0000
  H   H756      1.0  0.78510  0.00970  0.06180  1.0000
  H   H757      1.0  0.67093  0.84683  0.91229  1.0000
  C   C472      1.0  0.67990  0.82594  0.89941  1.0000
  Fe  Fe96      1.0  0.62196  0.02245  0.04978  1.0000
  C   C473      1.0  0.99185  0.89962  0.01105  1.0000
  N   N47       1.0  0.01143  0.92371  0.02634  1.0000
  H   H758      1.0  0.57837  0.90357  0.96931  1.0000
  S   S187      1.0  0.95867  0.69407  0.88145  1.0000
  H   H759      1.0  0.85729  0.63487  0.86855  1.0000
  H   H760      1.0  0.55695  0.03017  0.04912  1.0000
  H   H761      1.0  0.00404  0.87376  0.01049  1.0000
  H   H762      1.0  0.02974  0.88267  0.05623  1.0000
  S   S188      1.0  0.60473  0.04587  0.00733  1.0000
  C   C474      1.0  0.65747  0.85543  0.85661  1.0000
  C   C475      1.0  0.56599  0.89929  0.99023  1.0000
  C   C476      1.0  0.94852  0.63609  0.85305  1.0000
  C   C477      1.0  0.03174  0.04192  0.05627  1.0000
  N   N48       1.0  0.55085  0.93178  0.99824  1.0000
  S   S189      1.0  0.67547  0.04758  0.95480  1.0000
  H   H763      1.0  0.69557  0.80011  0.85024  1.0000
  S   S190      1.0  0.84333  0.04589  0.04690  1.0000
  C   C478      1.0  0.96501  0.55235  0.94758  1.0000
  H   H764      1.0  0.78625  0.03924  0.95695  1.0000
  H   H765      1.0  0.76622  0.03876  0.00681  1.0000
  H   H766      1.0  0.54786  0.87842  0.98875  1.0000
  S   S191      1.0  0.02851  0.62391  0.88600  1.0000
  S   S192      1.0  0.02986  0.68051  0.93479  1.0000
  C   C479      1.0  0.75124  0.04889  0.07260  1.0000
  H   H767      1.0  0.03950  0.94178  0.98963  1.0000
  C   C480      1.0  0.04254  0.92931  0.01170  1.0000
  H   H768      1.0  0.04224  0.75399  0.95058  1.0000
