data_image0
_chemical_formula_structural       CSHSFeS2FeSFeSFeCSCHCH3NC2H3CH3SH2NCHC3SH4SHFeHC2S2H3CHCNCH2CHC6H4C3H7SCH4CHCH4NCH2CH3C3H5C3SC2NH2CHCH4SHCH3CHNHC2H2CFeSHCH4CH2FeNFeS2FeHFeS2CHCHSHSH3FeHFeHCH7S2CHSFeS2FeS2FeSFeS4C2H2NC6H4C6H4C6H4C2SH3C6H6C2H2FeH2CSCH7FeSHC7HFeH2C6H4C4HSCNH2C2H3NC4H12C2HC2H2SCH2CH4SH4SH2NSCHSCNC4H12NC3H4CH4NC4H2NCH6NHCHCHCSHNCH2SFeCFeH8SCH2C2HSFeS2H3CSHFeCH2SH2CH4C2HCH5FeH5CH3CSCHSNHC2HSHCFeSCFeCH2CSHC2SHCHC5FeCH2SH3CH2SHFeHC3HC3HNH2C2HSHCH2CH2C3H2SH2CH5CSCHCHS2H2SC2HSCH3NFeH2C2HFeS2H2CHSH3SHCFeS2CH2FeCFeHS2HCSH2CHCHCH6CHCHC2H2NHCHC2HCHSC2NH3SHC2HNH2C2HCSHSH2CHCH3SHCFeCFeH2CH4C2H2CFeH4SFeHCH2FeCSCH2FeS2FeS2H2CFeS2H4CH4C2SCHC6H4SNS2HC3HSH4CHC3HSCH3C3FeH2SHSH2CFeC2H2CH4CSFeSH3CSCH5CNCFeHFeNHSCHFeH4FeNH5C2SCSH2FeCHNH2SCFeSHFeS2FeS2FeCFeS4FeS2H2FeSFeSCHFeSHSH3FeC5H6C5HSC2H2C2HC3HCH4FeCHC2HCHC6H4C3HC2H4CSHCH2SHSH2CH3CHSH2SHCH3CHCHCSH2SH2CSHNC4H11NC5H9CHCH2C2HNSCH5CHCH3CFeNHC3SHNHSHFeH2CNH6FeNH3CSCH3CH2CHCHCHS2HC3H3FeHCH3SFeHC2H2FeCH5CH3C2HSFeH2FeS3FeS2FeSHFeSFeHS2H5FeSNH2NSHFeS2FeS2FeHFeS3CHSH2SH3SH2CSCHNC2HCNCHCH4NSH2SH3C7H4CHCH6C6H4C2HC3H4NHC9H4CHNC4H12CSHC2H2C2H5CHSFe2CHSCHC2HSCH3CFeCHC2H6CHCHCHCHCNCHFeCHSH2CFeCHSH2CH2CH4CHCH2CSH2S2HNC4HSCH4SHFeH4CHFeCHC2HCH2C3HSH3CH2CH3CHNSC2H5SH4C2SH6FeS2FeS2FeSFeS2HSFeSHFeSFeSH3CSH4SHFeS2FeSFeS2C2S2CH3NCHFeS2FeSFeSFeCS2H2FeH6SHC6H4C6H4CH2C2NHCH4CNHC6H6CH2C3HC3HC8H4C3H2SHCHC5NH2CHFeC2HCH5C2H2SCFeHC2HSHCH4CH5NC4H3CH3CSCH5NC4H12SHCH4SH4CS2H2N2CH3SH8C3H2CH3C2HSHNH2CFeH2FeS2FeHCHSCFeS3FeSHCSHFeSFeS2FeCFeS3CH5NHCH2CNHC2HC3HFeCH3C6H5CSHSH2C3HC2H2SCHCHCH5SCHFeHC2H3CSC2H2C2H3C2H2FeH7S2CHCHCH2NC2H3CH3CHCHC2HCH4CH3CHCHC3H3CNH2NSH2C2FeSFeC2HCH2C3HCSHNHCFeSCFeS2FeSHS2H2SC6H2CHCH5CHSHNHC6H4SHC4HSHCSH5CH3NHC3HSHCHCH2FeHC2H3CFeHCS2H3CHCH3CHFeHNH4C2NFeC5FeC4FeCH8C4H2S2HFeCH4CNHFeCS2FeHCHC2HC2SH7CHSH13SH2SHFeSHFeH3SCSH4FeSFeCSCHSFeCSHCHCHFe2S2FeSNFeSCS3FeH3SNFeSHS2C2HCFeHSCH3FeNC6H4S2CHSCFeSH2Fe2C4HCH4SH2C2FeC3HCH2SH2CHFeCH3CHCHS2C4H4C2SC7H4CSFeH2C3NSH3SC2H6C2HC2NC3H10SC3H4FeH5CH2CFeHSCHC2HCSHCHNH5CH2FeH2CS2H2SCH5C2HCS2FeH6FeS2FeS2FeSFeS3CSC2SHFeSFeSHS2FeS2FeHSFeSFeHS2HCHC2HFeHCH2C8H2CHCHC4H4C6H4C6H5C2HCHC4H3SH2C2H2C3H3SH2CSHCNSH6CH3CH2C3NC2HCH4NH3SHCH2CHCNH4NH7CFeH4CH2C2H2C3NCNC2H6SH3C2FeHCH4CHC2HSH7SHC2SCH4SH5SHCH4SH2FeC2FeS2FeSFeCSCHCFeS2FeSCFeHFeS2C6H4C4H4C6H2CHC3H2CH7NH2CFeHCSN2HFeSH3CHCSCHSH2C2H2FeHCSCH6CHCSC2HSC4HCNH2CSNCHCH2CHSHNHCH4CH2SNH2CH4SH3C4HCSHCHC2NC2H4SCFeH4CHSH7C4HC2HSH2CHCHSHCH2CNCHSH3FeCHC2H2CH3CH2SCH4NH3CH3SH15CHCH5CH2CHFeH4SFe2S2NH2C2FeS3H2Fe3H4CFeHCH2CH5CHNHC2H6FeH2SH3C2HCSHSHNHC6H3CHCH2CNH2C2H4SH3C2HSCHFeH2CHCHC2H3CHSCNCHSCHFeSH2C3FeSCH2SH2SH2CHCH5CH2CHSCHCHCH4C3HS2FeSH2FeS2FeS2FeHFeHS2HCSHCH3FeHFeSHCFeHFeS3HC2FeS2FeS2FeHFeS3H3C6H3C6H4CH3CH3C2H2CH2C6H3SHCH5C4H4FeCH4CNFeC6H4NC5H9CHCFeCH6CH2NHNH2SHC2HCH3NHCHNC2HCSHN2SCH3CHCHC4S2CH3SH3CHCHCHCFeH5CH3FeH3SHCSH2CH2C2HSH3SC2HC2SHSHFeS2FeSFeSFeS3HCS2FeS3HCH5CHFeS2HSHFeS2FeS2FeSFeHS2CFeSCHCH2C8H5S2H2CH3NCHSHCHCH4CH2C4HC2H2C6H4C4H3C6H4SC2H2SHC2HC2H3C6HCH2C6H4CN2H2CHC2HCH6SHC2HNC3H2C2H3C2H2CHCNC4H12NHCHC2NHCSHFeC2H4C2SFeC2HS3CNFeSHCHSHC3H2CHCH2Fe2CHCH5C2NCH3CH9CSH3SHC2H4CSC3H2CNH2SHCSH3NCH3C2H2CH5NH4C2H3CNCH2FeCH10C2H2CH5CH4CH3CH2C2H2SH4CSH3SHS2CH4CHFeS2HFeSH2CFeH3CSHFeSFeS2HSCFeS2FeHFeS3FeS2FeCSCFeS3HC2HCSHFeHSC2SHSFeH3C6H4C6H4CH2C6H4CH2C2HC2H2CH3FeHC2H2C2H4C2HSCH3SH4C2H3FeSH2CH2C2HCNHCFeCHSCH2S2H3CFeCH2SNFeHNHC4H3NCHSH4C2NHCHCNCH2CHFeHSCH2NH5CHSH3SH3C2HSH2CHCHFeH2CH2CH2SHCHNSC2SCFeHCH3CH5CHSCH2SH4NC2H3CHC4FeHCHCHCH3CSHFeS2FeSH2SCHSHSCSHCSCHFeHNH3SCS2Fe2S3FeSFeSC4H4C6HCH2C2H2FeHCSH3C7H4SCSCHC2HFeHC2HC3H5CH2FeC2HNC5HCH10FeHC2H6SH2CFeC2HC2HCH3NHC3NFeH2CHCH3CHSCFeNCH3C2H3CH6CNCSC2HFeH2SNCFeSFeCH3SHCH2SHCSH9CH3CH2C2H2CH4CH3SH4NH3S2H2C2HCHSHCHFeNSH2SCFeS2FeS2FeSFeS3HC6H6CH2C3HC2H5C5HNHC4HCH2C2HNHC3NSC3H3CH3CHCH5FeH2CH6C2H5CHNH2CH3C2H2SH3CH3C4H4CH5CH2C2HSHNCHSH5FeS2FeS2HCFeHS2HSH2CSHS2FeCH4CFeH4CSH2FeH2CH2CHCHCH2C6H2CHCNSH3C6H5NCH2FeCHSH2CHCSHSH2CSHCFeCH3CH2CH3CFeHS3CH2CH3C2H4CFeHSC2HCHCFeCHFe2HSFe2SHSCS3H2CSH3CH2CHS3H2CN2C3H3C7H3CFeH4NHNHCHC2FeHCS2FeHC4FeH2NH2CFeCH2CH4SCHSH2CH3SHCH2C2H4SH3CH2CHCHCH3CHC3H
_chemical_formula_sum              "C1440 S576 H2304 Fe288 N144"
_cell_length_a       77.1166
_cell_length_b       77.9456
_cell_length_c       77.5163
_cell_angle_alpha    74.133
_cell_angle_beta     73.9255
_cell_angle_gamma    73.9376

_space_group_name_H-M_alt    "P 1"
_space_group_IT_number       1

loop_
  _space_group_symop_operation_xyz
  'x, y, z'

loop_
  _atom_site_type_symbol
  _atom_site_label
  _atom_site_symmetry_multiplicity
  _atom_site_fract_x
  _atom_site_fract_y
  _atom_site_fract_z
  _atom_site_occupancy
  C   C1        1.0  0.31857  0.03737  0.46742  1.0000
  S   S1        1.0  0.46392  0.08717  0.32517  1.0000
  H   H1        1.0  0.48338  0.99819  0.33489  1.0000
  S   S2        1.0  0.45466  0.99614  0.31795  1.0000
  Fe  Fe1       1.0  0.43409  0.08675  0.33686  1.0000
  S   S3        1.0  0.42608  0.11520  0.34174  1.0000
  S   S4        1.0  0.41726  0.07717  0.32347  1.0000
  Fe  Fe2       1.0  0.46736  0.07614  0.35407  1.0000
  S   S5        1.0  0.46256  0.10371  0.36028  1.0000
  Fe  Fe3       1.0  0.43274  0.10163  0.36940  1.0000
  S   S6        1.0  0.41512  0.11161  0.39469  1.0000
  Fe  Fe4       1.0  0.45641  0.11460  0.33222  1.0000
  C   C2        1.0  0.36121  0.99859  0.39703  1.0000
  S   S7        1.0  0.43808  0.07300  0.36538  1.0000
  C   C3        1.0  0.41810  0.04427  0.31709  1.0000
  H   H2        1.0  0.21243  0.12541  0.48352  1.0000
  C   C4        1.0  0.46930  0.13186  0.28938  1.0000
  H   H3        1.0  0.45779  0.07733  0.27204  1.0000
  H   H4        1.0  0.40356  0.04930  0.31709  1.0000
  H   H5        1.0  0.42783  0.10445  0.46259  1.0000
  N   N1        1.0  0.48769  0.16462  0.19043  1.0000
  C   C5        1.0  0.40744  0.07493  0.45429  1.0000
  C   C6        1.0  0.36302  0.05473  0.38538  1.0000
  H   H6        1.0  0.49266  0.14385  0.27450  1.0000
  H   H7        1.0  0.46903  0.98657  0.35446  1.0000
  H   H8        1.0  0.35010  0.03737  0.47582  1.0000
  C   C7        1.0  0.42842  0.05555  0.31899  1.0000
  H   H9        1.0  0.49277  0.15107  0.16824  1.0000
  H   H10       1.0  0.47844  0.13934  0.20049  1.0000
  H   H11       1.0  0.47046  0.02612  0.31603  1.0000
  S   S8        1.0  0.35385  0.06978  0.44560  1.0000
  H   H12       1.0  0.34911  0.06367  0.38466  1.0000
  H   H13       1.0  0.48184  0.03283  0.24457  1.0000
  N   N2        1.0  0.40913  0.08775  0.46439  1.0000
  C   C8        1.0  0.44736  0.04905  0.31832  1.0000
  H   H14       1.0  0.35795  0.06745  0.35111  1.0000
  C   C9        1.0  0.20398  0.13919  0.47869  1.0000
  C   C10       1.0  0.47183  0.12153  0.25667  1.0000
  C   C11       1.0  0.42639  0.02610  0.31603  1.0000
  S   S9        1.0  0.36851  0.00771  0.37357  1.0000
  H   H15       1.0  0.36646  0.05556  0.39811  1.0000
  H   H16       1.0  0.36480  0.08894  0.36581  1.0000
  H   H17       1.0  0.36190  0.04042  0.38692  1.0000
  H   H18       1.0  0.47207  0.05691  0.28243  1.0000
  S   S10       1.0  0.46945  0.13573  0.31059  1.0000
  H   H19       1.0  0.32207  0.99641  0.43074  1.0000
  Fe  Fe5       1.0  0.34166  0.07934  0.47220  1.0000
  H   H20       1.0  0.38891  0.08370  0.35519  1.0000
  C   C12       1.0  0.44517  0.01943  0.31608  1.0000
  C   C13       1.0  0.47003  0.06613  0.26905  1.0000
  S   S11       1.0  0.47448  0.11329  0.23697  1.0000
  S   S12       1.0  0.47249  0.00311  0.21045  1.0000
  H   H21       1.0  0.47839  0.07437  0.23198  1.0000
  H   H22       1.0  0.47011  0.02729  0.34774  1.0000
  H   H23       1.0  0.21269  0.14926  0.47611  1.0000
  C   C14       1.0  0.48429  0.13118  0.25755  1.0000
  H   H24       1.0  0.48562  0.03127  0.26679  1.0000
  C   C15       1.0  0.45585  0.03112  0.31640  1.0000
  N   N3        1.0  0.46748  0.05619  0.25650  1.0000
  C   C16       1.0  0.48961  0.01452  0.20986  1.0000
  H   H25       1.0  0.33246  0.01152  0.39814  1.0000
  H   H26       1.0  0.20125  0.13921  0.46532  1.0000
  C   C17       1.0  0.42619  0.09466  0.45535  1.0000
  H   H27       1.0  0.43870  0.08333  0.45508  1.0000
  C   C18       1.0  0.39721  0.10047  0.40726  1.0000
  C   C19       1.0  0.38258  0.10919  0.41940  1.0000
  C   C20       1.0  0.36909  0.09989  0.43109  1.0000
  C   C21       1.0  0.37007  0.08190  0.43049  1.0000
  C   C22       1.0  0.38446  0.07326  0.41806  1.0000
  C   C23       1.0  0.39808  0.08251  0.40651  1.0000
  H   H28       1.0  0.38181  0.12314  0.41989  1.0000
  H   H29       1.0  0.35785  0.10674  0.44042  1.0000
  H   H30       1.0  0.38543  0.05922  0.41781  1.0000
  H   H31       1.0  0.40953  0.07556  0.39750  1.0000
  C   C24       1.0  0.47430  0.15367  0.20249  1.0000
  C   C25       1.0  0.45752  0.11790  0.27184  1.0000
  C   C26       1.0  0.45640  0.12285  0.28826  1.0000
  H   H32       1.0  0.44758  0.11081  0.27113  1.0000
  H   H33       1.0  0.44557  0.11960  0.30009  1.0000
  H   H34       1.0  0.45607  0.01413  0.36623  1.0000
  H   H35       1.0  0.45548  0.05771  0.31951  1.0000
  H   H36       1.0  0.33903  0.01782  0.44290  1.0000
  H   H37       1.0  0.31915  0.00203  0.47076  1.0000
  H   H38       1.0  0.37182  0.04460  0.35258  1.0000
  S   S13       1.0  0.33815  0.10664  0.47884  1.0000
  C   C27       1.0  0.34664  0.01934  0.45245  1.0000
  H   H39       1.0  0.48590  0.99892  0.38904  1.0000
  H   H40       1.0  0.32352  0.05017  0.46032  1.0000
  H   H41       1.0  0.45397  0.08082  0.24041  1.0000
  H   H42       1.0  0.35796  0.00692  0.45404  1.0000
  C   C28       1.0  0.48864  0.16510  0.17100  1.0000
  H   H43       1.0  0.39417  0.07026  0.46004  1.0000
  C   C29       1.0  0.48288  0.13656  0.27382  1.0000
  H   H44       1.0  0.39240  0.11134  0.45017  1.0000
  H   H45       1.0  0.44809  0.04144  0.25546  1.0000
  H   H46       1.0  0.18346  0.17252  0.48317  1.0000
  H   H47       1.0  0.38186  0.06377  0.33961  1.0000
  N   N4        1.0  0.37710  0.06020  0.36886  1.0000
  C   C30       1.0  0.39528  0.04786  0.37036  1.0000
  H   H48       1.0  0.38179  0.08081  0.37963  1.0000
  H   H49       1.0  0.47258  0.04148  0.20365  1.0000
  C   C31       1.0  0.39298  0.10329  0.46433  1.0000
  H   H50       1.0  0.39488  0.03338  0.37157  1.0000
  H   H51       1.0  0.39975  0.04858  0.38257  1.0000
  H   H52       1.0  0.40618  0.05150  0.35802  1.0000
  C   C32       1.0  0.37817  0.07923  0.36733  1.0000
  C   C33       1.0  0.34448  0.02485  0.48219  1.0000
  C   C34       1.0  0.37193  0.05895  0.35233  1.0000
  H   H53       1.0  0.41820  0.01723  0.31528  1.0000
  H   H54       1.0  0.48218  0.07257  0.26300  1.0000
  H   H55       1.0  0.43811  0.05997  0.26732  1.0000
  H   H56       1.0  0.31019  0.03515  0.45893  1.0000
  H   H57       1.0  0.49499  0.13457  0.24571  1.0000
  C   C35       1.0  0.46976  0.01797  0.36148  1.0000
  C   C36       1.0  0.34246  0.00237  0.40576  1.0000
  C   C37       1.0  0.40988  0.07815  0.48355  1.0000
  S   S14       1.0  0.28881  0.99030  0.46042  1.0000
  C   C38       1.0  0.48361  0.04090  0.25358  1.0000
  C   C39       1.0  0.46570  0.06886  0.23868  1.0000
  N   N5        1.0  0.33416  0.02164  0.47034  1.0000
  H   H58       1.0  0.30909  0.03966  0.48069  1.0000
  H   H59       1.0  0.27800  0.09945  0.48416  1.0000
  C   C40       1.0  0.45056  0.04887  0.26466  1.0000
  H   H60       1.0  0.35305  0.03135  0.44570  1.0000
  C   C41       1.0  0.37409  0.98678  0.40693  1.0000
  H   H61       1.0  0.41894  0.06262  0.45476  1.0000
  H   H62       1.0  0.39332  0.11279  0.47260  1.0000
  H   H63       1.0  0.45156  0.03907  0.27801  1.0000
  H   H64       1.0  0.42598  0.10196  0.44082  1.0000
  S   S15       1.0  0.49202  0.05337  0.35817  1.0000
  H   H65       1.0  0.17207  0.16241  0.47241  1.0000
  C   C42       1.0  0.48265  0.99059  0.34938  1.0000
  H   H66       1.0  0.37980  0.09854  0.47034  1.0000
  H   H67       1.0  0.40782  0.08147  0.43959  1.0000
  H   H68       1.0  0.17192  0.12940  0.48269  1.0000
  C   C43       1.0  0.32691  0.00497  0.47936  1.0000
  H   H69       1.0  0.46342  0.06194  0.22894  1.0000
  N   N6        1.0  0.48512  0.00168  0.36087  1.0000
  H   H70       1.0  0.47335  0.15286  0.21729  1.0000
  C   C44       1.0  0.48515  0.99068  0.37970  1.0000
  C   C45       1.0  0.33657  0.99371  0.42415  1.0000
  H   H71       1.0  0.48109  0.18352  0.20813  1.0000
  H   H72       1.0  0.46020  0.15951  0.19976  1.0000
  C   C46       1.0  0.48183  0.18343  0.19360  1.0000
  Fe  Fe6       1.0  0.39444  0.98837  0.36273  1.0000
  S   S16       1.0  0.42215  0.98917  0.36598  1.0000
  H   H73       1.0  0.33822  0.99277  0.48199  1.0000
  C   C47       1.0  0.48594  0.03372  0.20621  1.0000
  H   H74       1.0  0.47510  0.17167  0.16713  1.0000
  H   H75       1.0  0.35628  0.01318  0.48472  1.0000
  H   H76       1.0  0.48708  0.07682  0.38303  1.0000
  H   H77       1.0  0.47056  0.02607  0.37093  1.0000
  C   C48       1.0  0.17569  0.16168  0.48557  1.0000
  H   H78       1.0  0.49656  0.04591  0.24684  1.0000
  H   H79       1.0  0.42205  0.06651  0.48422  1.0000
  Fe  Fe7       1.0  0.40238  0.07830  0.73225  1.0000
  N   N7        1.0  0.35763  0.04907  0.67503  1.0000
  Fe  Fe8       1.0  0.36740  0.06639  0.75541  1.0000
  S   S17       1.0  0.35156  0.09482  0.75711  1.0000
  S   S18       1.0  0.35793  0.04071  0.77037  1.0000
  Fe  Fe9       1.0  0.36533  0.10160  0.72709  1.0000
  H   H80       1.0  0.43505  0.02291  0.62644  1.0000
  Fe  Fe10      1.0  0.37767  0.09818  0.76225  1.0000
  S   S19       1.0  0.37874  0.07255  0.72512  1.0000
  S   S20       1.0  0.39244  0.06923  0.76233  1.0000
  C   C49       1.0  0.44795  0.07597  0.64623  1.0000
  H   H81       1.0  0.42047  0.01582  0.71871  1.0000
  C   C50       1.0  0.48859  0.02164  0.74001  1.0000
  H   H82       1.0  0.40269  0.00995  0.77690  1.0000
  S   S21       1.0  0.46890  0.01550  0.73872  1.0000
  H   H83       1.0  0.20274  0.02176  0.60545  1.0000
  S   S22       1.0  0.45310  0.02070  0.65480  1.0000
  H   H84       1.0  0.18363  0.11552  0.50044  1.0000
  H   H85       1.0  0.45550  0.07551  0.92258  1.0000
  H   H86       1.0  0.48022  0.02063  0.76913  1.0000
  Fe  Fe11      1.0  0.46878  0.00445  0.67663  1.0000
  H   H87       1.0  0.37320  0.04860  0.69432  1.0000
  Fe  Fe12      1.0  0.47902  0.09264  0.83465  1.0000
  H   H88       1.0  0.19335  0.04941  0.63041  1.0000
  C   C51       1.0  0.09311  0.18030  0.55016  1.0000
  H   H89       1.0  0.43670  0.10640  0.89481  1.0000
  H   H90       1.0  0.38237  0.04695  0.65370  1.0000
  H   H91       1.0  0.20808  0.99558  0.51763  1.0000
  H   H92       1.0  0.48500  0.06976  0.63994  1.0000
  H   H93       1.0  0.44250  0.09153  0.75195  1.0000
  H   H94       1.0  0.17823  0.14645  0.52043  1.0000
  H   H95       1.0  0.45085  0.05699  0.91619  1.0000
  S   S23       1.0  0.42658  0.02697  0.82484  1.0000
  S   S24       1.0  0.23594  0.99950  0.61710  1.0000
  C   C52       1.0  0.23062  0.00717  0.54337  1.0000
  H   H96       1.0  0.47837  0.05752  0.88980  1.0000
  S   S25       1.0  0.19530  0.08390  0.60399  1.0000
  Fe  Fe13      1.0  0.29843  0.09595  0.64849  1.0000
  S   S26       1.0  0.32422  0.07774  0.63633  1.0000
  S   S27       1.0  0.29381  0.09459  0.67879  1.0000
  Fe  Fe14      1.0  0.28238  0.10431  0.61432  1.0000
  S   S28       1.0  0.30657  0.08589  0.59996  1.0000
  S   S29       1.0  0.26067  0.12078  0.59831  1.0000
  Fe  Fe15      1.0  0.30508  0.06679  0.62749  1.0000
  S   S30       1.0  0.30765  0.03665  0.63517  1.0000
  Fe  Fe16      1.0  0.32337  0.09874  0.61015  1.0000
  S   S31       1.0  0.34867  0.10871  0.59280  1.0000
  S   S32       1.0  0.27910  0.08380  0.64093  1.0000
  S   S33       1.0  0.29927  0.11844  0.62306  1.0000
  S   S34       1.0  0.37106  0.09976  0.51051  1.0000
  C   C53       1.0  0.30050  0.01200  0.52880  1.0000
  C   C54       1.0  0.28790  0.00686  0.52221  1.0000
  H   H97       1.0  0.47770  0.04846  0.64943  1.0000
  H   H98       1.0  0.30993  0.00167  0.53634  1.0000
  N   N8        1.0  0.45932  0.07132  0.66007  1.0000
  C   C55       1.0  0.35575  0.10491  0.57035  1.0000
  C   C56       1.0  0.36741  0.11533  0.55714  1.0000
  C   C57       1.0  0.37242  0.11335  0.53886  1.0000
  C   C58       1.0  0.36572  0.10100  0.53371  1.0000
  C   C59       1.0  0.35446  0.09018  0.54699  1.0000
  C   C60       1.0  0.34952  0.09211  0.56532  1.0000
  H   H99       1.0  0.37235  0.12516  0.56100  1.0000
  H   H100      1.0  0.38120  0.12167  0.52867  1.0000
  H   H101      1.0  0.34985  0.08009  0.54324  1.0000
  H   H102      1.0  0.34120  0.08346  0.57557  1.0000
  C   C61       1.0  0.28702  0.01806  0.59528  1.0000
  C   C62       1.0  0.27977  0.01367  0.61419  1.0000
  C   C63       1.0  0.28607  0.01952  0.62639  1.0000
  C   C64       1.0  0.29939  0.03012  0.61969  1.0000
  C   C65       1.0  0.30658  0.03475  0.60079  1.0000
  C   C66       1.0  0.30064  0.02839  0.58860  1.0000
  H   H103      1.0  0.26939  0.00561  0.61957  1.0000
  H   H104      1.0  0.28050  0.01585  0.64100  1.0000
  H   H105      1.0  0.31716  0.04269  0.59561  1.0000
  H   H106      1.0  0.30682  0.03124  0.57405  1.0000
  C   C67       1.0  0.21344  0.09423  0.60224  1.0000
  C   C68       1.0  0.21504  0.11099  0.59016  1.0000
  C   C69       1.0  0.22953  0.11911  0.58915  1.0000
  C   C70       1.0  0.24257  0.11040  0.60005  1.0000
  C   C71       1.0  0.24118  0.09346  0.61184  1.0000
  C   C72       1.0  0.22651  0.08549  0.61308  1.0000
  H   H107      1.0  0.20487  0.11793  0.58194  1.0000
  H   H108      1.0  0.23055  0.13223  0.58002  1.0000
  H   H109      1.0  0.25125  0.08659  0.62018  1.0000
  H   H110      1.0  0.22535  0.07250  0.62243  1.0000
  C   C73       1.0  0.15478  0.04492  0.53863  1.0000
  C   C74       1.0  0.15444  0.03532  0.52584  1.0000
  S   S35       1.0  0.15246  0.09547  0.58095  1.0000
  H   H111      1.0  0.24497  0.99978  0.53832  1.0000
  H   H112      1.0  0.15846  0.05809  0.53390  1.0000
  H   H113      1.0  0.43650  0.06672  0.68277  1.0000
  C   C75       1.0  0.46612  0.05238  0.83957  1.0000
  C   C76       1.0  0.44994  0.06319  0.83421  1.0000
  C   C77       1.0  0.43766  0.05506  0.83042  1.0000
  C   C78       1.0  0.44172  0.03617  0.83134  1.0000
  C   C79       1.0  0.45791  0.02533  0.83668  1.0000
  C   C80       1.0  0.46997  0.03341  0.84098  1.0000
  H   H114      1.0  0.44672  0.07779  0.83322  1.0000
  H   H115      1.0  0.42495  0.06350  0.82676  1.0000
  H   H116      1.0  0.46115  0.01074  0.83749  1.0000
  H   H117      1.0  0.31736  0.00632  0.49281  1.0000
  H   H118      1.0  0.31109  0.13056  0.52226  1.0000
  H   H119      1.0  0.43213  0.02431  0.73070  1.0000
  C   C81       1.0  0.45171  0.10015  0.89120  1.0000
  C   C82       1.0  0.09296  0.15644  0.57773  1.0000
  H   H120      1.0  0.34081  0.02937  0.68149  1.0000
  H   H121      1.0  0.42010  0.07945  0.77858  1.0000
  Fe  Fe17      1.0  0.47631  0.00494  0.71288  1.0000
  H   H122      1.0  0.33185  0.05758  0.69331  1.0000
  H   H123      1.0  0.44657  0.09578  0.67060  1.0000
  C   C83       1.0  0.23425  0.11112  0.52179  1.0000
  S   S36       1.0  0.14888  0.04993  0.57379  1.0000
  C   C84       1.0  0.24947  0.11884  0.51907  1.0000
  H   H124      1.0  0.36337  0.06493  0.64746  1.0000
  H   H125      1.0  0.08621  0.15092  0.59157  1.0000
  H   H126      1.0  0.28844  0.05798  0.51404  1.0000
  H   H127      1.0  0.37601  0.06752  0.66251  1.0000
  H   H128      1.0  0.11725  0.17656  0.52834  1.0000
  H   H129      1.0  0.19666  0.04616  0.59904  1.0000
  H   H130      1.0  0.27251  0.04563  0.66198  1.0000
  Fe  Fe18      1.0  0.27711  0.98816  0.49072  1.0000
  S   S37       1.0  0.45734  0.14572  0.86792  1.0000
  H   H131      1.0  0.45430  0.09504  0.76726  1.0000
  C   C85       1.0  0.17163  0.01704  0.63008  1.0000
  C   C86       1.0  0.31039  0.10164  0.68538  1.0000
  C   C87       1.0  0.31191  0.09656  0.70381  1.0000
  C   C88       1.0  0.32559  0.10138  0.70920  1.0000
  C   C89       1.0  0.33739  0.11185  0.69626  1.0000
  C   C90       1.0  0.33579  0.11698  0.67786  1.0000
  C   C91       1.0  0.32253  0.11165  0.67237  1.0000
  H   H132      1.0  0.30252  0.08884  0.71393  1.0000
  Fe  Fe19      1.0  0.18282  0.09189  0.57921  1.0000
  H   H133      1.0  0.34484  0.12515  0.66782  1.0000
  H   H134      1.0  0.32146  0.11562  0.65812  1.0000
  C   C92       1.0  0.34531  0.03613  0.75723  1.0000
  C   C93       1.0  0.33619  0.05033  0.74522  1.0000
  C   C94       1.0  0.32697  0.04634  0.73403  1.0000
  C   C95       1.0  0.32767  0.02815  0.73425  1.0000
  C   C96       1.0  0.33689  0.01399  0.74618  1.0000
  C   C97       1.0  0.34534  0.01804  0.75795  1.0000
  H   H135      1.0  0.33607  0.06439  0.74467  1.0000
  H   H136      1.0  0.31966  0.05733  0.72499  1.0000
  H   H137      1.0  0.47785  0.05631  0.77401  1.0000
  H   H138      1.0  0.35238  0.00717  0.76723  1.0000
  C   C98       1.0  0.44721  0.07832  0.71576  1.0000
  C   C99       1.0  0.47894  0.08066  0.71114  1.0000
  C   C100      1.0  0.46590  0.07001  0.71479  1.0000
  C   C101      1.0  0.47527  0.14700  0.73599  1.0000
  H   H139      1.0  0.47029  0.05528  0.71707  1.0000
  S   S38       1.0  0.31839  0.02304  0.71858  1.0000
  C   C102      1.0  0.28856  0.04372  0.51609  1.0000
  N   N9        1.0  0.21679  0.99905  0.54032  1.0000
  H   H140      1.0  0.48088  0.07860  0.87403  1.0000
  H   H141      1.0  0.15781  0.04119  0.51128  1.0000
  C   C103      1.0  0.14522  0.02047  0.56339  1.0000
  C   C104      1.0  0.14991  0.03761  0.55745  1.0000
  H   H142      1.0  0.43329  0.07750  0.91815  1.0000
  H   H143      1.0  0.45891  0.05572  0.68768  1.0000
  H   H144      1.0  0.31013  0.10117  0.55727  1.0000
  N   N10       1.0  0.36936  0.04800  0.81788  1.0000
  C   C105      1.0  0.35422  0.05874  0.80851  1.0000
  C   C106      1.0  0.38039  0.03307  0.80844  1.0000
  C   C107      1.0  0.36150  0.04008  0.83716  1.0000
  C   C108      1.0  0.38132  0.06009  0.81744  1.0000
  H   H145      1.0  0.34519  0.04999  0.80804  1.0000
  H   H146      1.0  0.35970  0.06523  0.79404  1.0000
  H   H147      1.0  0.34541  0.06995  0.81541  1.0000
  H   H148      1.0  0.39208  0.02484  0.81501  1.0000
  H   H149      1.0  0.37180  0.02362  0.80855  1.0000
  H   H150      1.0  0.38630  0.03852  0.79383  1.0000
  H   H151      1.0  0.37263  0.03175  0.84452  1.0000
  H   H152      1.0  0.35231  0.03098  0.83794  1.0000
  H   H153      1.0  0.35322  0.05095  0.84478  1.0000
  H   H154      1.0  0.37326  0.07211  0.82349  1.0000
  H   H155      1.0  0.38822  0.06556  0.80313  1.0000
  H   H156      1.0  0.39235  0.05273  0.82518  1.0000
  C   C109      1.0  0.21855  0.00127  0.52039  1.0000
  C   C110      1.0  0.47525  0.07258  0.88860  1.0000
  H   H157      1.0  0.20045  0.02504  0.63714  1.0000
  C   C111      1.0  0.40811  0.01870  0.76355  1.0000
  C   C112      1.0  0.46047  0.08821  0.66451  1.0000
  H   H158      1.0  0.34706  0.07316  0.68644  1.0000
  H   H159      1.0  0.43172  0.13319  0.75710  1.0000
  S   S39       1.0  0.44780  0.13520  0.78536  1.0000
  C   C113      1.0  0.47810  0.06139  0.65273  1.0000
  H   H160      1.0  0.28743  0.01490  0.70402  1.0000
  H   H161      1.0  0.44954  0.04679  0.67422  1.0000
  C   C114      1.0  0.29722  0.11155  0.55532  1.0000
  H   H162      1.0  0.18720  0.00243  0.54661  1.0000
  H   H163      1.0  0.27830  0.14173  0.53643  1.0000
  H   H164      1.0  0.29238  0.10912  0.54411  1.0000
  H   H165      1.0  0.38380  0.01896  0.74376  1.0000
  S   S40       1.0  0.26242  0.01376  0.50116  1.0000
  H   H166      1.0  0.45035  0.12279  0.70622  1.0000
  H   H167      1.0  0.34251  0.04310  0.65862  1.0000
  H   H168      1.0  0.11739  0.13451  0.57753  1.0000
  H   H169      1.0  0.43367  0.08348  0.65134  1.0000
  S   S41       1.0  0.28502  0.12260  0.50371  1.0000
  H   H170      1.0  0.44676  0.06341  0.64278  1.0000
  H   H171      1.0  0.43015  0.08047  0.88647  1.0000
  N   N11       1.0  0.41150  0.00966  0.74814  1.0000
  S   S42       1.0  0.48138  0.06221  0.84514  1.0000
  C   C115      1.0  0.41235  0.00944  0.63940  1.0000
  H   H172      1.0  0.30054  0.05069  0.69154  1.0000
  S   S43       1.0  0.49450  0.10815  0.84367  1.0000
  C   C116      1.0  0.08697  0.10025  0.54834  1.0000
  N   N12       1.0  0.25827  0.06735  0.56103  1.0000
  C   C117      1.0  0.25450  0.08702  0.56083  1.0000
  C   C118      1.0  0.27844  0.06001  0.55765  1.0000
  C   C119      1.0  0.25092  0.06467  0.54648  1.0000
  C   C120      1.0  0.24931  0.05769  0.57913  1.0000
  H   H173      1.0  0.23948  0.09330  0.56233  1.0000
  H   H174      1.0  0.26194  0.09450  0.54777  1.0000
  H   H175      1.0  0.25909  0.08934  0.57225  1.0000
  H   H176      1.0  0.28185  0.04520  0.55749  1.0000
  H   H177      1.0  0.28568  0.06695  0.54412  1.0000
  H   H178      1.0  0.28450  0.06162  0.56841  1.0000
  H   H179      1.0  0.25371  0.04990  0.54626  1.0000
  H   H180      1.0  0.25746  0.07170  0.53265  1.0000
  H   H181      1.0  0.23572  0.07012  0.54844  1.0000
  H   H182      1.0  0.25136  0.04290  0.57955  1.0000
  H   H183      1.0  0.23415  0.06343  0.58242  1.0000
  H   H184      1.0  0.25515  0.05868  0.59037  1.0000
  N   N13       1.0  0.27757  0.04183  0.68886  1.0000
  C   C121      1.0  0.27706  0.02774  0.70610  1.0000
  C   C122      1.0  0.27242  0.03531  0.67515  1.0000
  C   C123      1.0  0.26443  0.05894  0.69253  1.0000
  H   H185      1.0  0.48311  0.07550  0.89714  1.0000
  H   H186      1.0  0.40809  0.01135  0.62669  1.0000
  H   H187      1.0  0.42791  0.00261  0.68469  1.0000
  H   H188      1.0  0.28232  0.02259  0.67187  1.0000
  C   C124      1.0  0.19099  0.14316  0.50979  1.0000
  H   H189      1.0  0.25837  0.03229  0.68011  1.0000
  H   H190      1.0  0.25005  0.05691  0.69803  1.0000
  H   H191      1.0  0.26452  0.06991  0.67985  1.0000
  H   H192      1.0  0.44805  0.06017  0.88411  1.0000
  N   N14       1.0  0.44931  0.06801  0.77309  1.0000
  C   C125      1.0  0.45343  0.08490  0.76000  1.0000
  C   C126      1.0  0.43147  0.07251  0.78599  1.0000
  C   C127      1.0  0.46416  0.05963  0.78342  1.0000
  C   C128      1.0  0.44807  0.05502  0.76297  1.0000
  H   H193      1.0  0.46680  0.08202  0.75000  1.0000
  H   H194      1.0  0.38745  0.99826  0.76057  1.0000
  N   N15       1.0  0.49228  0.13771  0.74292  1.0000
  C   C129      1.0  0.25043  0.09545  0.49702  1.0000
  H   H195      1.0  0.43204  0.08182  0.79434  1.0000
  H   H196      1.0  0.32670  0.99693  0.60921  1.0000
  H   H197      1.0  0.46161  0.04670  0.79324  1.0000
  H   H198      1.0  0.46523  0.06892  0.79156  1.0000
  H   H199      1.0  0.44607  0.04169  0.77226  1.0000
  H   H200      1.0  0.46079  0.05221  0.75220  1.0000
  N   N16       1.0  0.45518  0.08004  0.89403  1.0000
  H   H201      1.0  0.31758  0.14681  0.53050  1.0000
  C   C130      1.0  0.23464  0.09954  0.51064  1.0000
  H   H202      1.0  0.30876  0.14711  0.56370  1.0000
  C   C131      1.0  0.30135  0.03038  0.52509  1.0000
  H   H203      1.0  0.39764  0.03169  0.76179  1.0000
  C   C132      1.0  0.08420  0.17309  0.56794  1.0000
  S   S44       1.0  0.43117  0.06466  0.72064  1.0000
  H   H204      1.0  0.49339  0.16031  0.84486  1.0000
  N   N17       1.0  0.30027  0.13030  0.55106  1.0000
  C   C133      1.0  0.28291  0.14355  0.54812  1.0000
  H   H205      1.0  0.28656  0.10904  0.56816  1.0000
  H   H206      1.0  0.26818  0.06431  0.70263  1.0000
  S   S45       1.0  0.35388  0.11916  0.70273  1.0000
  Fe  Fe20      1.0  0.32664  0.06186  0.51149  1.0000
  C   C134      1.0  0.43349  0.01312  0.65551  1.0000
  Fe  Fe21      1.0  0.31096  0.10155  0.49689  1.0000
  H   H207      1.0  0.17915  0.03690  0.64938  1.0000
  H   H208      1.0  0.28462  0.15786  0.54502  1.0000
  H   H209      1.0  0.28748  0.99261  0.52494  1.0000
  H   H210      1.0  0.24909  0.12784  0.52767  1.0000
  H   H211      1.0  0.26643  0.04895  0.50211  1.0000
  H   H212      1.0  0.16266  0.13204  0.50604  1.0000
  H   H213      1.0  0.14138  0.01478  0.57795  1.0000
  H   H214      1.0  0.27153  0.14186  0.56056  1.0000
  S   S46       1.0  0.39006  0.10784  0.73240  1.0000
  C   C135      1.0  0.41859  0.02176  0.73076  1.0000
  H   H215      1.0  0.42234  0.11780  0.81600  1.0000
  H   H216      1.0  0.46657  0.09759  0.65209  1.0000
  C   C136      1.0  0.30599  0.13323  0.56655  1.0000
  C   C137      1.0  0.27589  0.03861  0.50960  1.0000
  H   H217      1.0  0.32664  0.09749  0.72345  1.0000
  S   S47       1.0  0.27903  0.01054  0.58018  1.0000
  Fe  Fe22      1.0  0.16209  0.07423  0.56377  1.0000
  S   S48       1.0  0.19204  0.06960  0.56350  1.0000
  S   S49       1.0  0.32242  0.08704  0.52181  1.0000
  H   H218      1.0  0.15250  0.05081  0.63412  1.0000
  H   H219      1.0  0.11797  0.08199  0.57587  1.0000
  H   H220      1.0  0.16687  0.06299  0.61507  1.0000
  C   C138      1.0  0.29642  0.04530  0.68171  1.0000
  S   S50       1.0  0.36546  0.99084  0.70853  1.0000
  H   H221      1.0  0.15458  0.04845  0.61113  1.0000
  Fe  Fe23      1.0  0.34978  0.09003  0.50328  1.0000
  C   C139      1.0  0.31492  0.13280  0.53420  1.0000
  H   H222      1.0  0.29514  0.13172  0.57944  1.0000
  H   H223      1.0  0.39483  0.10661  0.81686  1.0000
  S   S51       1.0  0.31923  0.03638  0.53051  1.0000
  H   H224      1.0  0.31881  0.12321  0.56941  1.0000
  H   H225      1.0  0.32821  0.12302  0.53596  1.0000
  C   C140      1.0  0.45471  0.10804  0.70875  1.0000
  H   H226      1.0  0.46271  0.14678  0.74730  1.0000
  H   H227      1.0  0.12214  0.10403  0.53600  1.0000
  H   H228      1.0  0.10771  0.12515  0.54151  1.0000
  H   H229      1.0  0.07596  0.09289  0.55688  1.0000
  C   C141      1.0  0.47148  0.15053  0.87982  1.0000
  C   C142      1.0  0.47340  0.09970  0.70792  1.0000
  H   H230      1.0  0.16149  0.01725  0.64342  1.0000
  C   C143      1.0  0.44161  0.09734  0.71273  1.0000
  H   H231      1.0  0.49270  0.12612  0.87764  1.0000
  H   H232      1.0  0.09461  0.09305  0.53695  1.0000
  H   H233      1.0  0.08007  0.11426  0.54211  1.0000
  H   H234      1.0  0.36164  0.02520  0.66436  1.0000
  H   H235      1.0  0.40895  0.03536  0.72863  1.0000
  Fe  Fe24      1.0  0.15709  0.11575  0.55404  1.0000
  H   H236      1.0  0.45404  0.08471  0.63324  1.0000
  H   H237      1.0  0.29739  0.05559  0.66854  1.0000
  H   H238      1.0  0.40475  0.12134  0.75794  1.0000
  H   H239      1.0  0.35812  0.03288  0.70225  1.0000
  H   H240      1.0  0.19614  0.00705  0.56349  1.0000
  C   C144      1.0  0.11386  0.11077  0.54754  1.0000
  H   H241      1.0  0.43631  0.06048  0.75595  1.0000
  H   H242      1.0  0.26323  0.02427  0.71156  1.0000
  H   H243      1.0  0.30678  0.03262  0.67912  1.0000
  C   C145      1.0  0.37045  0.05747  0.65898  1.0000
  S   S52       1.0  0.18659  0.11430  0.55415  1.0000
  C   C146      1.0  0.34217  0.06346  0.68166  1.0000
  H   H244      1.0  0.22233  0.11415  0.53254  1.0000
  S   S53       1.0  0.37858  0.10508  0.78833  1.0000
  N   N18       1.0  0.09953  0.10088  0.55940  1.0000
  H   H245      1.0  0.16492  0.01443  0.62031  1.0000
  C   C147      1.0  0.40861  0.12043  0.77060  1.0000
  C   C148      1.0  0.26589  0.10263  0.49475  1.0000
  H   H246      1.0  0.11692  0.07446  0.55641  1.0000
  S   S54       1.0  0.48823  0.10427  0.80462  1.0000
  H   H247      1.0  0.42758  0.05999  0.79557  1.0000
  C   C149      1.0  0.27611  0.02011  0.51198  1.0000
  Fe  Fe25      1.0  0.19319  0.09220  0.53858  1.0000
  S   S55       1.0  0.14091  0.14275  0.54086  1.0000
  C   C150      1.0  0.11054  0.17087  0.54215  1.0000
  Fe  Fe26      1.0  0.46213  0.12564  0.80905  1.0000
  C   C151      1.0  0.39797  0.11323  0.78744  1.0000
  H   H248      1.0  0.08227  0.12487  0.56887  1.0000
  H   H249      1.0  0.45001  0.08107  0.86788  1.0000
  C   C152      1.0  0.35032  0.03613  0.66964  1.0000
  S   S56       1.0  0.16402  0.09462  0.53703  1.0000
  H   H250      1.0  0.42727  0.10388  0.71305  1.0000
  C   C153      1.0  0.42369  0.00432  0.67207  1.0000
  C   C154      1.0  0.10848  0.08205  0.56731  1.0000
  S   S57       1.0  0.21565  0.09008  0.51323  1.0000
  H   H251      1.0  0.45270  0.17579  0.88477  1.0000
  C   C155      1.0  0.14532  0.01066  0.55059  1.0000
  H   H252      1.0  0.07778  0.10355  0.58352  1.0000
  C   C156      1.0  0.08889  0.11047  0.57438  1.0000
  C   C157      1.0  0.42387  0.12714  0.77016  1.0000
  C   C158      1.0  0.14964  0.01822  0.53177  1.0000
  C   C159      1.0  0.11932  0.15429  0.55190  1.0000
  C   C160      1.0  0.40274  0.00032  0.65585  1.0000
  Fe  Fe27      1.0  0.33473  0.99601  0.71257  1.0000
  C   C161      1.0  0.49321  0.15880  0.89933  1.0000
  H   H253      1.0  0.23248  0.99425  0.51381  1.0000
  H   H254      1.0  0.12362  0.11137  0.55545  1.0000
  S   S58       1.0  0.45199  0.11306  0.83863  1.0000
  H   H255      1.0  0.19505  0.02318  0.54207  1.0000
  H   H256      1.0  0.45688  0.10650  0.87661  1.0000
  H   H257      1.0  0.18372  0.03242  0.59447  1.0000
  C   C162      1.0  0.39401  0.00602  0.74718  1.0000
  H   H258      1.0  0.09816  0.07401  0.57622  1.0000
  H   H259      1.0  0.21669  0.01593  0.51325  1.0000
  S   S59       1.0  0.47552  0.14431  0.81588  1.0000
  H   H260      1.0  0.39614  0.99796  0.73665  1.0000
  Fe  Fe28      1.0  0.46828  0.12961  0.84525  1.0000
  H   H261      1.0  0.09797  0.11101  0.58309  1.0000
  C   C163      1.0  0.36754  0.03921  0.68991  1.0000
  C   C164      1.0  0.11057  0.14711  0.56979  1.0000
  C   C165      1.0  0.46566  0.16653  0.88683  1.0000
  H   H262      1.0  0.45880  0.10435  0.89957  1.0000
  C   C166      1.0  0.44840  0.07216  0.91362  1.0000
  C   C167      1.0  0.47654  0.17076  0.89637  1.0000
  C   C168      1.0  0.42889  0.12620  0.78651  1.0000
  H   H263      1.0  0.37922  0.02811  0.68546  1.0000
  N   N19       1.0  0.17826  0.03425  0.62275  1.0000
  H   H264      1.0  0.33467  0.07162  0.67071  1.0000
  H   H265      1.0  0.19888  0.12947  0.51536  1.0000
  C   C169      1.0  0.40302  0.11221  0.80381  1.0000
  C   C170      1.0  0.41862  0.11846  0.80334  1.0000
  H   H266      1.0  0.28027  0.03247  0.71696  1.0000
  S   S60       1.0  0.14836  0.00710  0.51536  1.0000
  H   H267      1.0  0.33738  0.99991  0.74645  1.0000
  C   C171      1.0  0.16232  0.04981  0.62071  1.0000
  H   H268      1.0  0.22903  0.00652  0.55824  1.0000
  H   H269      1.0  0.16250  0.16513  0.49571  1.0000
  C   C172      1.0  0.48817  0.13859  0.88275  1.0000
  H   H270      1.0  0.47368  0.14025  0.72574  1.0000
  H   H271      1.0  0.46922  0.08511  0.67472  1.0000
  C   C173      1.0  0.44536  0.07524  0.88271  1.0000
  C   C174      1.0  0.49157  0.11843  0.75159  1.0000
  C   C175      1.0  0.45070  0.05964  0.67691  1.0000
  H   H272      1.0  0.19953  0.15320  0.50795  1.0000
  H   H273      1.0  0.48912  0.14910  0.96605  1.0000
  S   S61       1.0  0.48960  0.11324  0.70278  1.0000
  H   H274      1.0  0.26567  0.99338  0.68547  1.0000
  H   H275      1.0  0.48707  0.05769  0.66284  1.0000
  C   C176      1.0  0.18821  0.03650  0.63550  1.0000
  H   H276      1.0  0.31901  0.99796  0.64219  1.0000
  H   H277      1.0  0.42101  0.02186  0.76451  1.0000
  H   H278      1.0  0.18328  0.00508  0.63241  1.0000
  H   H279      1.0  0.47534  0.16154  0.72924  1.0000
  H   H280      1.0  0.41066  0.08753  0.49175  1.0000
  C   C177      1.0  0.19799  0.00834  0.54847  1.0000
  S   S62       1.0  0.38412  0.99178  0.65541  1.0000
  C   C178      1.0  0.26546  0.11428  0.50581  1.0000
  H   H281      1.0  0.48245  0.02496  0.84519  1.0000
  C   C179      1.0  0.19089  0.03367  0.60460  1.0000
  H   H282      1.0  0.14153  0.99752  0.55528  1.0000
  S   S63       1.0  0.45643  0.99314  0.70592  1.0000
  S   S64       1.0  0.48652  0.01868  0.68380  1.0000
  H   H283      1.0  0.48174  0.14653  0.76856  1.0000
  H   H284      1.0  0.47948  0.11737  0.76331  1.0000
  S   S65       1.0  0.35544  0.06317  0.49538  1.0000
  C   C180      1.0  0.42758  0.01599  0.63926  1.0000
  C   C181      1.0  0.42523  0.99229  0.75116  1.0000
  H   H285      1.0  0.43874  0.99473  0.75136  1.0000
  S   S66       1.0  0.19695  0.98822  0.60141  1.0000
  C   C182      1.0  0.40824  0.99799  0.67225  1.0000
  H   H286      1.0  0.33547  0.02662  0.49581  1.0000
  H   H287      1.0  0.49037  0.11113  0.74162  1.0000
  H   H288      1.0  0.22945  0.02173  0.53600  1.0000
  N   N20       1.0  0.18659  0.14340  0.49235  1.0000
  Fe  Fe29      1.0  0.42999  0.99659  0.82717  1.0000
  H   H289      1.0  0.16941  0.98952  0.58240  1.0000
  H   H290      1.0  0.25083  0.08651  0.48834  1.0000
  C   C183      1.0  0.49079  0.02317  0.75682  1.0000
  C   C184      1.0  0.17570  0.12950  0.49550  1.0000
  H   H291      1.0  0.47196  0.18322  0.90152  1.0000
  Fe  Fe30      1.0  0.26195  0.99050  0.59729  1.0000
  S   S67       1.0  0.33545  0.99071  0.68543  1.0000
  S   S68       1.0  0.31323  0.07595  0.48773  1.0000
  H   H292      1.0  0.40080  0.99108  0.68499  1.0000
  H   H293      1.0  0.49324  0.07406  0.71088  1.0000
  C   C185      1.0  0.49375  0.14691  0.75664  1.0000
  H   H294      1.0  0.49425  0.16149  0.75063  1.0000
  S   S69       1.0  0.06206  0.18452  0.57800  1.0000
  H   H295      1.0  0.39724  0.07264  0.49063  1.0000
  H   H296      1.0  0.35148  0.98809  0.62685  1.0000
  H   H297      1.0  0.49559  0.18032  0.82702  1.0000
  S   S70       1.0  0.43331  0.98750  0.80104  1.0000
  H   H298      1.0  0.49130  0.15692  0.98509  1.0000
  C   C186      1.0  0.46628  0.28360  0.10246  1.0000
  Fe  Fe31      1.0  0.43365  0.35072  0.05875  1.0000
  S   S71       1.0  0.46354  0.35155  0.05325  1.0000
  S   S72       1.0  0.42374  0.32493  0.07285  1.0000
  C   C187      1.0  0.45889  0.30615  0.07550  1.0000
  H   H299      1.0  0.46325  0.31326  0.06153  1.0000
  H   H300      1.0  0.48700  0.34540  0.08870  1.0000
  Fe  Fe32      1.0  0.45910  0.36843  0.02584  1.0000
  C   C188      1.0  0.45541  0.34727  0.99521  1.0000
  Fe  Fe33      1.0  0.45245  0.37800  0.06253  1.0000
  H   H301      1.0  0.01337  0.25789  0.48374  1.0000
  S   S73       1.0  0.43005  0.36529  0.03040  1.0000
  S   S74       1.0  0.42273  0.37595  0.07052  1.0000
  H   H302      1.0  0.41607  0.28457  0.04835  1.0000
  C   C189      1.0  0.48922  0.38555  0.06929  1.0000
  S   S75       1.0  0.47934  0.36520  0.99936  1.0000
  H   H303      1.0  0.45149  0.27211  0.07602  1.0000
  H   H304      1.0  0.46816  0.25728  0.06231  1.0000
  C   C190      1.0  0.47187  0.29299  0.08444  1.0000
  H   H305      1.0  0.45047  0.29670  0.04683  1.0000
  C   C191      1.0  0.44506  0.25666  0.04180  1.0000
  H   H306      1.0  0.10284  0.27576  0.47736  1.0000
  C   C192      1.0  0.09164  0.28542  0.48385  1.0000
  H   H307      1.0  0.44545  0.29192  0.02764  1.0000
  H   H308      1.0  0.44760  0.25032  0.07667  1.0000
  H   H309      1.0  0.48620  0.29025  0.07744  1.0000
  H   H310      1.0  0.45552  0.33981  0.00918  1.0000
  H   H311      1.0  0.43805  0.26250  0.03005  1.0000
  H   H312      1.0  0.46794  0.19021  0.19057  1.0000
  C   C193      1.0  0.01827  0.27035  0.48279  1.0000
  H   H313      1.0  0.46956  0.32647  0.12737  1.0000
  C   C194      1.0  0.47717  0.31821  0.11685  1.0000
  H   H314      1.0  0.42012  0.30236  0.10913  1.0000
  C   C195      1.0  0.45200  0.28563  0.03967  1.0000
  C   C196      1.0  0.43458  0.29984  0.10227  1.0000
  H   H315      1.0  0.42214  0.28866  0.06737  1.0000
  H   H316      1.0  0.46705  0.28065  0.03429  1.0000
  N   N21       1.0  0.44347  0.27063  0.05211  1.0000
  H   H317      1.0  0.43884  0.24508  0.05074  1.0000
  C   C197      1.0  0.44768  0.28722  0.11147  1.0000
  H   H318      1.0  0.44334  0.27997  0.12543  1.0000
  C   C198      1.0  0.42376  0.27804  0.05953  1.0000
  C   C199      1.0  0.49482  0.38521  0.05058  1.0000
  H   H319      1.0  0.48545  0.38352  0.04345  1.0000
  C   C200      1.0  0.49581  0.22684  0.99141  1.0000
  H   H320      1.0  0.45980  0.25082  0.03606  1.0000
  S   S76       1.0  0.48249  0.26763  0.11393  1.0000
  C   C201      1.0  0.45308  0.26222  0.06744  1.0000
  C   C202      1.0  0.44020  0.30943  0.08435  1.0000
  N   N22       1.0  0.03849  0.26788  0.47587  1.0000
  H   H321      1.0  0.41687  0.26713  0.06905  1.0000
  H   H322      1.0  0.03651  0.27656  0.44756  1.0000
  H   H323      1.0  0.05956  0.28290  0.47119  1.0000
  S   S77       1.0  0.46662  0.38385  0.08118  1.0000
  H   H324      1.0  0.43408  0.33566  0.99269  1.0000
  C   C203      1.0  0.49475  0.34117  0.09989  1.0000
  C   C204      1.0  0.07497  0.31676  0.48412  1.0000
  H   H325      1.0  0.49172  0.19198  0.18466  1.0000
  N   N23       1.0  0.49598  0.32160  0.10867  1.0000
  H   H326      1.0  0.05864  0.26291  0.45136  1.0000
  H   H327      1.0  0.46880  0.32169  0.10624  1.0000
  C   C205      1.0  0.04346  0.26478  0.45698  1.0000
  C   C206      1.0  0.04430  0.28444  0.47587  1.0000
  H   H328      1.0  0.09901  0.30882  0.46355  1.0000
  C   C207      1.0  0.49528  0.23911  0.00195  1.0000
  S   S78       1.0  0.02081  0.36660  0.48214  1.0000
  H   H329      1.0  0.06321  0.24942  0.48294  1.0000
  S   S79       1.0  0.07279  0.34006  0.47356  1.0000
  H   H330      1.0  0.03772  0.29672  0.46669  1.0000
  H   H331      1.0  0.47762  0.30355  0.12365  1.0000
  C   C208      1.0  0.46694  0.35963  0.98663  1.0000
  H   H332      1.0  0.03924  0.25236  0.45657  1.0000
  C   C209      1.0  0.08945  0.30412  0.47600  1.0000
  H   H333      1.0  0.40728  0.37685  0.99031  1.0000
  H   H334      1.0  0.01073  0.28184  0.47366  1.0000
  H   H335      1.0  0.48738  0.35007  0.10991  1.0000
  S   S80       1.0  0.49199  0.22909  0.08681  1.0000
  H   H336      1.0  0.49127  0.25366  0.99669  1.0000
  C   C210      1.0  0.44337  0.34484  0.98588  1.0000
  Fe  Fe34      1.0  0.46025  0.34783  0.89226  1.0000
  C   C211      1.0  0.00111  0.32842  0.50710  1.0000
  Fe  Fe35      1.0  0.06017  0.24539  0.53193  1.0000
  H   H337      1.0  0.99870  0.20641  0.55162  1.0000
  H   H338      1.0  0.04040  0.28733  0.48990  1.0000
  C   C212      1.0  0.46706  0.36890  0.96843  1.0000
  H   H339      1.0  0.00734  0.35128  0.58307  1.0000
  H   H340      1.0  0.02858  0.21042  0.61030  1.0000
  H   H341      1.0  0.00231  0.32475  0.60880  1.0000
  H   H342      1.0  0.09971  0.34802  0.52367  1.0000
  C   C213      1.0  0.00469  0.34028  0.73778  1.0000
  C   C214      1.0  0.06267  0.31057  0.50029  1.0000
  H   H343      1.0  0.48998  0.28729  0.87465  1.0000
  H   H344      1.0  0.05137  0.32022  0.50658  1.0000
  C   C215      1.0  0.04791  0.25194  0.48788  1.0000
  Fe  Fe36      1.0  0.01740  0.33898  0.65997  1.0000
  H   H345      1.0  0.40533  0.33531  0.84704  1.0000
  H   H346      1.0  0.01832  0.29746  0.66309  1.0000
  H   H347      1.0  0.49199  0.23199  0.97828  1.0000
  H   H348      1.0  0.43224  0.32758  0.88244  1.0000
  S   S81       1.0  0.02157  0.22680  0.57015  1.0000
  Fe  Fe37      1.0  0.01223  0.36483  0.51254  1.0000
  H   H349      1.0  0.41672  0.35247  0.83105  1.0000
  C   C216      1.0  0.44325  0.35442  0.96780  1.0000
  H   H350      1.0  0.10722  0.32356  0.55011  1.0000
  H   H351      1.0  0.42577  0.36651  0.86028  1.0000
  Fe  Fe38      1.0  0.43891  0.36169  0.92650  1.0000
  C   C217      1.0  0.08496  0.35537  0.55742  1.0000
  S   S82       1.0  0.47808  0.19886  0.94295  1.0000
  C   C218      1.0  0.42081  0.33244  0.87497  1.0000
  H   H352      1.0  0.01751  0.33549  0.74327  1.0000
  H   H353      1.0  0.05200  0.35517  0.55237  1.0000
  Fe  Fe39      1.0  0.04823  0.35871  0.65063  1.0000
  S   S83       1.0  0.01738  0.36832  0.65732  1.0000
  S   S84       1.0  0.06697  0.37019  0.66012  1.0000
  Fe  Fe40      1.0  0.04749  0.33431  0.62598  1.0000
  S   S85       1.0  0.01661  0.34200  0.63068  1.0000
  S   S86       1.0  0.06476  0.31636  0.60600  1.0000
  H   H354      1.0  0.01387  0.27336  0.49681  1.0000
  H   H355      1.0  0.45525  0.37374  0.94507  1.0000
  C   C219      1.0  0.99964  0.28811  0.65343  1.0000
  Fe  Fe41      1.0  0.04949  0.35985  0.48708  1.0000
  S   S87       1.0  0.05035  0.36335  0.62024  1.0000
  S   S88       1.0  0.04816  0.32885  0.65589  1.0000
  H   H356      1.0  0.02476  0.34018  0.69287  1.0000
  H   H357      1.0  0.07670  0.36937  0.55321  1.0000
  H   H358      1.0  0.05557  0.28707  0.52080  1.0000
  H   H359      1.0  0.00569  0.32622  0.55958  1.0000
  C   C220      1.0  0.03049  0.22133  0.61590  1.0000
  H   H360      1.0  0.01239  0.28831  0.61572  1.0000
  H   H361      1.0  0.03052  0.35989  0.71934  1.0000
  H   H362      1.0  0.08907  0.31325  0.55008  1.0000
  H   H363      1.0  0.08977  0.31941  0.57058  1.0000
  C   C221      1.0  0.08490  0.34750  0.52933  1.0000
  C   C222      1.0  0.01731  0.36406  0.71459  1.0000
  S   S89       1.0  0.45297  0.24903  0.92350  1.0000
  C   C223      1.0  0.01215  0.21101  0.64584  1.0000
  H   H364      1.0  0.01049  0.27808  0.64719  1.0000
  C   C224      1.0  0.03370  0.28089  0.59293  1.0000
  C   C225      1.0  0.05146  0.28229  0.58264  1.0000
  C   C226      1.0  0.06126  0.29271  0.58707  1.0000
  C   C227      1.0  0.05326  0.30184  0.60165  1.0000
  C   C228      1.0  0.03581  0.29982  0.61223  1.0000
  C   C229      1.0  0.02606  0.28949  0.60778  1.0000
  H   H365      1.0  0.05753  0.27559  0.57117  1.0000
  H   H366      1.0  0.07499  0.29369  0.57915  1.0000
  H   H367      1.0  0.02979  0.30617  0.62390  1.0000
  H   H368      1.0  0.02039  0.37058  0.69970  1.0000
  S   S90       1.0  0.06271  0.23665  0.56139  1.0000
  N   N24       1.0  0.42764  0.34014  0.85535  1.0000
  S   S91       1.0  0.46910  0.35127  0.91599  1.0000
  S   S92       1.0  0.42997  0.35542  0.90423  1.0000
  H   H369      1.0  0.05737  0.33767  0.57175  1.0000
  C   C230      1.0  0.09222  0.32375  0.55533  1.0000
  C   C231      1.0  0.47833  0.28703  0.88628  1.0000
  C   C232      1.0  0.01756  0.24157  0.63716  1.0000
  H   H370      1.0  0.48220  0.25772  0.89239  1.0000
  S   S93       1.0  0.01998  0.26944  0.58734  1.0000
  H   H371      1.0  0.44742  0.33123  0.83210  1.0000
  H   H372      1.0  0.45367  0.32068  0.85381  1.0000
  H   H373      1.0  0.47548  0.37882  0.96186  1.0000
  H   H374      1.0  0.44485  0.31539  0.91075  1.0000
  C   C233      1.0  0.44177  0.32588  0.84687  1.0000
  H   H375      1.0  0.41012  0.34280  0.88186  1.0000
  C   C234      1.0  0.07938  0.27915  0.49991  1.0000
  C   C235      1.0  0.06497  0.29176  0.50827  1.0000
  C   C236      1.0  0.43593  0.35566  0.85370  1.0000
  H   H376      1.0  0.01479  0.33075  0.50512  1.0000
  S   S94       1.0  0.03132  0.26197  0.53769  1.0000
  C   C237      1.0  0.06020  0.37932  0.71736  1.0000
  H   H377      1.0  0.00011  0.21474  0.65703  1.0000
  H   H378      1.0  0.01880  0.25393  0.62598  1.0000
  H   H379      1.0  0.00982  0.19966  0.64122  1.0000
  C   C238      1.0  0.06151  0.37247  0.68308  1.0000
  C   C239      1.0  0.07009  0.35890  0.69599  1.0000
  C   C240      1.0  0.06933  0.36228  0.71310  1.0000
  Fe  Fe42      1.0  0.02268  0.23611  0.53990  1.0000
  H   H380      1.0  0.08167  0.35174  0.57274  1.0000
  H   H381      1.0  0.07810  0.34608  0.69241  1.0000
  S   S95       1.0  0.46235  0.37590  0.87570  1.0000
  H   H382      1.0  0.02464  0.20565  0.65186  1.0000
  S   S96       1.0  0.05160  0.22014  0.53179  1.0000
  H   H383      1.0  0.43640  0.28588  0.92773  1.0000
  H   H384      1.0  0.41465  0.32054  0.87682  1.0000
  C   C241      1.0  0.45284  0.30291  0.90649  1.0000
  Fe  Fe43      1.0  0.03302  0.25129  0.56709  1.0000
  C   C242      1.0  0.45874  0.26987  0.91116  1.0000
  C   C243      1.0  0.46783  0.30333  0.89140  1.0000
  H   H385      1.0  0.00581  0.24596  0.64830  1.0000
  H   H386      1.0  0.01847  0.31978  0.57739  1.0000
  C   C244      1.0  0.47399  0.27029  0.89634  1.0000
  H   H387      1.0  0.08656  0.19315  0.54254  1.0000
  H   H388      1.0  0.43603  0.31392  0.84791  1.0000
  H   H389      1.0  0.03500  0.32964  0.71242  1.0000
  H   H390      1.0  0.44105  0.36203  0.83910  1.0000
  C   C245      1.0  0.45536  0.36617  0.95897  1.0000
  S   S97       1.0  0.04073  0.35553  0.51767  1.0000
  Fe  Fe44      1.0  0.05146  0.21276  0.56194  1.0000
  S   S98       1.0  0.42753  0.35242  0.95640  1.0000
  H   H391      1.0  0.48359  0.31381  0.93974  1.0000
  H   H392      1.0  0.01561  0.32244  0.71007  1.0000
  H   H393      1.0  0.08175  0.33778  0.52302  1.0000
  C   C246      1.0  0.44810  0.28621  0.91616  1.0000
  S   S99       1.0  0.08211  0.25543  0.50844  1.0000
  C   C247      1.0  0.48757  0.30079  0.93488  1.0000
  H   H394      1.0  0.48491  0.28958  0.94709  1.0000
  H   H395      1.0  0.07651  0.35191  0.72276  1.0000
  H   H396      1.0  0.09980  0.35603  0.55274  1.0000
  H   H397      1.0  0.07661  0.36130  0.52450  1.0000
  H   H398      1.0  0.04487  0.25415  0.50205  1.0000
  C   C248      1.0  0.41205  0.34663  0.84592  1.0000
  N   N25       1.0  0.01444  0.22689  0.63045  1.0000
  C   C249      1.0  0.00408  0.29897  0.66257  1.0000
  Fe  Fe45      1.0  0.47867  0.22729  0.92616  1.0000
  H   H399      1.0  0.40127  0.35751  0.85198  1.0000
  Fe  Fe46      1.0  0.46847  0.38017  0.90066  1.0000
  N   N26       1.0  0.08077  0.34204  0.54963  1.0000
  H   H400      1.0  0.05729  0.33146  0.55113  1.0000
  S   S100      1.0  0.47369  0.32404  0.87866  1.0000
  C   C250      1.0  0.06098  0.34154  0.55649  1.0000
  H   H401      1.0  0.12462  0.38151  0.68210  1.0000
  Fe  Fe47      1.0  0.43259  0.38394  0.88952  1.0000
  H   H402      1.0  0.04349  0.21606  0.62108  1.0000
  H   H403      1.0  0.00208  0.30700  0.57801  1.0000
  H   H404      1.0  0.47807  0.30179  0.92600  1.0000
  H   H405      1.0  0.03043  0.23725  0.64249  1.0000
  Fe  Fe48      1.0  0.01940  0.37045  0.62753  1.0000
  N   N27       1.0  0.00874  0.34835  0.71789  1.0000
  H   H406      1.0  0.44787  0.35126  0.86047  1.0000
  H   H407      1.0  0.04337  0.23928  0.48883  1.0000
  H   H408      1.0  0.99819  0.32839  0.74071  1.0000
  H   H409      1.0  0.03279  0.23304  0.60419  1.0000
  H   H410      1.0  0.00805  0.37483  0.72190  1.0000
  C   C251      1.0  0.00472  0.32100  0.57462  1.0000
  C   C252      1.0  0.02163  0.33451  0.70794  1.0000
  S   S101      1.0  0.00051  0.24052  0.52431  1.0000
  C   C253      1.0  0.99818  0.31754  0.49692  1.0000
  S   S102      1.0  0.06175  0.38388  0.73788  1.0000
  H   H411      1.0  0.00950  0.31182  0.48688  1.0000
  H   H412      1.0  0.99863  0.24579  0.61152  1.0000
  Fe  Fe49      1.0  0.03981  0.38535  0.51307  1.0000
  C   C254      1.0  0.99750  0.23365  0.62300  1.0000
  H   H413      1.0  0.09965  0.38492  0.70993  1.0000
  N   N28       1.0  0.41239  0.43271  0.08131  1.0000
  H   H414      1.0  0.10996  0.47817  0.27486  1.0000
  H   H415      1.0  0.27926  0.55771  0.06707  1.0000
  S   S103      1.0  0.00680  0.42023  0.46307  1.0000
  C   C255      1.0  0.05538  0.53586  0.36750  1.0000
  Fe  Fe50      1.0  0.17793  0.54977  0.08731  1.0000
  S   S104      1.0  0.18309  0.51944  0.09074  1.0000
  H   H416      1.0  0.29377  0.45122  0.04791  1.0000
  Fe  Fe51      1.0  0.31839  0.47157  0.07881  1.0000
  S   S105      1.0  0.32849  0.49694  0.07492  1.0000
  S   S106      1.0  0.33370  0.44370  0.09061  1.0000
  Fe  Fe52      1.0  0.28652  0.49156  0.06008  1.0000
  S   S107      1.0  0.29385  0.51873  0.05398  1.0000
  S   S108      1.0  0.26368  0.48630  0.05098  1.0000
  Fe  Fe53      1.0  0.32307  0.50337  0.04671  1.0000
  C   C256      1.0  0.07398  0.53249  0.30552  1.0000
  Fe  Fe54      1.0  0.29846  0.51018  0.08273  1.0000
  S   S109      1.0  0.28595  0.53093  0.10042  1.0000
  S   S110      1.0  0.31536  0.47694  0.04987  1.0000
  S   S111      1.0  0.28863  0.48403  0.08955  1.0000
  S   S112      1.0  0.04526  0.54795  0.21414  1.0000
  Fe  Fe55      1.0  0.05288  0.48346  0.35821  1.0000
  S   S113      1.0  0.06569  0.45561  0.35219  1.0000
  S   S114      1.0  0.06450  0.49865  0.37139  1.0000
  H   H417      1.0  0.04190  0.48218  0.40506  1.0000
  H   H418      1.0  0.18955  0.51211  0.04611  1.0000
  Fe  Fe56      1.0  0.03657  0.45157  0.36051  1.0000
  S   S115      1.0  0.03064  0.42464  0.37767  1.0000
  Fe  Fe57      1.0  0.05905  0.46826  0.32451  1.0000
  S   S116      1.0  0.07996  0.46326  0.29901  1.0000
  C   C257      1.0  0.41330  0.45128  0.08174  1.0000
  H   H419      1.0  0.09274  0.54119  0.16553  1.0000
  Fe  Fe58      1.0  0.05805  0.55559  0.23287  1.0000
  S   S117      1.0  0.08310  0.53877  0.24347  1.0000
  H   H420      1.0  0.11110  0.50811  0.25340  1.0000
  S   S118      1.0  0.40097  0.41452  0.03027  1.0000
  H   H421      1.0  0.06819  0.47088  0.43114  1.0000
  H   H422      1.0  0.08546  0.45504  0.41881  1.0000
  H   H423      1.0  0.40275  0.46188  0.07501  1.0000
  Fe  Fe59      1.0  0.04902  0.57531  0.19615  1.0000
  C   C258      1.0  0.04283  0.55272  0.36818  1.0000
  C   C259      1.0  0.02416  0.42345  0.40140  1.0000
  C   C260      1.0  0.02916  0.40687  0.41351  1.0000
  C   C261      1.0  0.02394  0.40571  0.43257  1.0000
  C   C262      1.0  0.01320  0.42102  0.43947  1.0000
  H   H424      1.0  0.29812  0.58588  0.10952  1.0000
  H   H425      1.0  0.00291  0.53749  0.38572  1.0000
  H   H426      1.0  0.03733  0.39497  0.40815  1.0000
  H   H427      1.0  0.18279  0.52851  0.00698  1.0000
  H   H428      1.0  0.29808  0.47721  0.02181  1.0000
  H   H429      1.0  0.33210  0.53131  0.98832  1.0000
  C   C263      1.0  0.08027  0.48393  0.28292  1.0000
  C   C264      1.0  0.09725  0.48796  0.27287  1.0000
  C   C265      1.0  0.08150  0.51754  0.25815  1.0000
  C   C266      1.0  0.06440  0.51337  0.26773  1.0000
  C   C267      1.0  0.06380  0.49665  0.28043  1.0000
  H   H430      1.0  0.05170  0.52308  0.26562  1.0000
  S   S119      1.0  0.34429  0.51324  0.02259  1.0000
  C   C268      1.0  0.10936  0.57962  0.12989  1.0000
  C   C269      1.0  0.09787  0.50486  0.26075  1.0000
  H   H431      1.0  0.07447  0.47653  0.40649  1.0000
  H   H432      1.0  0.39262  0.41552  0.09103  1.0000
  C   C270      1.0  0.30026  0.54559  0.09881  1.0000
  C   C271      1.0  0.29280  0.56138  0.10601  1.0000
  H   H433      1.0  0.42617  0.40486  0.09030  1.0000
  C   C272      1.0  0.32265  0.56980  0.09539  1.0000
  C   C273      1.0  0.33014  0.55389  0.08848  1.0000
  C   C274      1.0  0.31891  0.54193  0.08999  1.0000
  H   H434      1.0  0.27837  0.56430  0.11288  1.0000
  C   C275      1.0  0.27659  0.56677  0.05379  1.0000
  H   H435      1.0  0.11190  0.52198  0.16342  1.0000
  H   H436      1.0  0.32481  0.52981  0.08447  1.0000
  H   H437      1.0  0.03522  0.47645  0.42967  1.0000
  H   H438      1.0  0.07005  0.53539  0.36261  1.0000
  Fe  Fe60      1.0  0.02156  0.48932  0.33989  1.0000
  C   C276      1.0  0.14824  0.55874  0.02173  1.0000
  H   H439      1.0  0.02486  0.50797  0.38363  1.0000
  C   C277      1.0  0.42650  0.41903  0.09038  1.0000
  C   C278      1.0  0.06325  0.44921  0.40082  1.0000
  H   H440      1.0  0.32192  0.42850  0.02213  1.0000
  C   C279      1.0  0.01751  0.53714  0.38039  1.0000
  H   H441      1.0  0.06753  0.43106  0.43497  1.0000
  C   C280      1.0  0.20588  0.50996  0.08085  1.0000
  C   C281      1.0  0.20980  0.49303  0.07609  1.0000
  C   C282      1.0  0.22765  0.48576  0.06705  1.0000
  C   C283      1.0  0.24180  0.49511  0.06331  1.0000
  C   C284      1.0  0.23807  0.51183  0.06849  1.0000
  C   C285      1.0  0.22000  0.51942  0.07696  1.0000
  H   H442      1.0  0.19890  0.48570  0.07905  1.0000
  H   H443      1.0  0.23052  0.47283  0.06305  1.0000
  H   H444      1.0  0.24897  0.51917  0.06543  1.0000
  H   H445      1.0  0.21702  0.53253  0.08056  1.0000
  C   C286      1.0  0.35202  0.43535  0.07366  1.0000
  C   C287      1.0  0.35788  0.44711  0.05710  1.0000
  C   C288      1.0  0.37249  0.44042  0.04358  1.0000
  H   H446      1.0  0.11589  0.54469  0.15860  1.0000
  C   C289      1.0  0.37622  0.41033  0.06350  1.0000
  C   C290      1.0  0.36121  0.41693  0.07685  1.0000
  H   H447      1.0  0.35144  0.46147  0.05480  1.0000
  H   H448      1.0  0.37690  0.44962  0.03078  1.0000
  H   H449      1.0  0.35674  0.40781  0.08967  1.0000
  H   H450      1.0  0.04974  0.44684  0.44692  1.0000
  C   C291      1.0  0.33778  0.49220  0.00315  1.0000
  S   S120      1.0  0.02430  0.47835  0.36909  1.0000
  H   H451      1.0  0.19601  0.50610  0.01447  1.0000
  C   C292      1.0  0.31822  0.44357  0.01717  1.0000
  H   H452      1.0  0.24558  0.50566  0.14455  1.0000
  H   H453      1.0  0.31275  0.55319  0.05275  1.0000
  S   S121      1.0  0.33675  0.58494  0.09269  1.0000
  H   H454      1.0  0.36461  0.53050  0.98800  1.0000
  S   S122      1.0  0.00789  0.57426  0.37598  1.0000
  H   H455      1.0  0.17612  0.53421  0.03809  1.0000
  H   H456      1.0  0.05064  0.49345  0.28811  1.0000
  C   C293      1.0  0.15992  0.58486  0.02111  1.0000
  H   H457      1.0  0.07548  0.52584  0.31987  1.0000
  H   H458      1.0  0.00934  0.45151  0.39914  1.0000
  H   H459      1.0  0.08561  0.56899  0.13205  1.0000
  C   C294      1.0  0.39381  0.42943  0.09106  1.0000
  H   H460      1.0  0.06550  0.55679  0.32696  1.0000
  S   S123      1.0  0.19426  0.56553  0.06283  1.0000
  H   H461      1.0  0.27365  0.45029  0.04133  1.0000
  H   H462      1.0  0.41502  0.41735  0.06121  1.0000
  S   S124      1.0  0.03094  0.46201  0.33214  1.0000
  H   H463      1.0  0.40564  0.44129  0.05465  1.0000
  C   C295      1.0  0.04894  0.51967  0.37292  1.0000
  H   H464      1.0  0.27861  0.47600  0.01434  1.0000
  H   H465      1.0  0.42712  0.45424  0.07445  1.0000
  H   H466      1.0  0.20872  0.54660  0.13273  1.0000
  C   C296      1.0  0.02388  0.55337  0.37479  1.0000
  H   H467      1.0  0.02819  0.39298  0.44187  1.0000
  C   C297      1.0  0.29372  0.47045  0.01335  1.0000
  H   H468      1.0  0.39057  0.43061  0.10566  1.0000
  C   C298      1.0  0.01355  0.43877  0.40836  1.0000
  S   S125      1.0  0.05110  0.38917  0.48266  1.0000
  H   H469      1.0  0.14169  0.54751  0.02948  1.0000
  H   H470      1.0  0.30822  0.55412  0.03094  1.0000
  S   S126      1.0  0.03094  0.56814  0.24899  1.0000
  H   H471      1.0  0.07100  0.52231  0.29969  1.0000
  H   H472      1.0  0.05297  0.57532  0.31250  1.0000
  C   C299      1.0  0.41592  0.43109  0.06202  1.0000
  S   S127      1.0  0.06049  0.57524  0.16592  1.0000
  H   H473      1.0  0.25766  0.52374  0.13298  1.0000
  N   N29       1.0  0.10745  0.53296  0.18733  1.0000
  C   C300      1.0  0.12651  0.52491  0.18999  1.0000
  C   C301      1.0  0.09507  0.52081  0.19913  1.0000
  C   C302      1.0  0.10703  0.53524  0.16787  1.0000
  C   C303      1.0  0.10113  0.55098  0.19235  1.0000
  H   H474      1.0  0.13177  0.51128  0.18632  1.0000
  H   H475      1.0  0.12715  0.52312  0.20459  1.0000
  H   H476      1.0  0.13612  0.53386  0.18132  1.0000
  H   H477      1.0  0.09954  0.50699  0.19592  1.0000
  H   H478      1.0  0.09472  0.51913  0.21396  1.0000
  H   H479      1.0  0.08063  0.52646  0.19727  1.0000
  H   H480      1.0  0.19453  0.53225  0.04880  1.0000
  H   H481      1.0  0.02887  0.46486  0.41607  1.0000
  H   H482      1.0  0.08672  0.55731  0.19069  1.0000
  H   H483      1.0  0.11000  0.56059  0.18360  1.0000
  H   H484      1.0  0.10137  0.54995  0.20688  1.0000
  N   N30       1.0  0.23271  0.52633  0.12431  1.0000
  C   C304      1.0  0.22132  0.53785  0.13746  1.0000
  C   C305      1.0  0.23843  0.53817  0.10625  1.0000
  C   C306      1.0  0.22184  0.51429  0.12237  1.0000
  C   C307      1.0  0.24930  0.51505  0.13112  1.0000
  C   C308      1.0  0.15331  0.56171  0.00252  1.0000
  H   H485      1.0  0.21677  0.52942  0.15128  1.0000
  H   H486      1.0  0.22914  0.54719  0.13905  1.0000
  H   H487      1.0  0.24759  0.53003  0.09609  1.0000
  H   H488      1.0  0.22627  0.54649  0.10051  1.0000
  H   H489      1.0  0.24619  0.54787  0.10722  1.0000
  H   H490      1.0  0.23011  0.50542  0.11253  1.0000
  H   H491      1.0  0.20925  0.52234  0.11713  1.0000
  H   H492      1.0  0.21720  0.50519  0.13573  1.0000
  H   H493      1.0  0.27572  0.44720  0.00981  1.0000
  C   C309      1.0  0.19035  0.52652  0.03931  1.0000
  H   H494      1.0  0.32401  0.44987  0.02499  1.0000
  C   C310      1.0  0.07205  0.46512  0.41861  1.0000
  H   H495      1.0  0.19067  0.55560  0.01116  1.0000
  H   H496      1.0  0.26331  0.57667  0.05698  1.0000
  C   C311      1.0  0.30393  0.57362  0.10408  1.0000
  C   C312      1.0  0.02997  0.52037  0.37921  1.0000
  H   H497      1.0  0.04227  0.53853  0.33054  1.0000
  N   N31       1.0  0.20339  0.52778  0.02121  1.0000
  S   S128      1.0  0.14949  0.54662  0.99142  1.0000
  C   C313      1.0  0.20441  0.54708  0.01314  1.0000
  H   H498      1.0  0.34460  0.55092  0.08175  1.0000
  H   H499      1.0  0.20618  0.52167  0.99501  1.0000
  H   H500      1.0  0.32102  0.56925  0.03278  1.0000
  H   H501      1.0  0.05242  0.44312  0.39931  1.0000
  H   H502      1.0  0.42993  0.43315  0.05427  1.0000
  C   C314      1.0  0.19685  0.52068  0.00888  1.0000
  H   H503      1.0  0.23217  0.51750  0.01020  1.0000
  C   C315      1.0  0.28893  0.44522  0.03908  1.0000
  H   H504      1.0  0.25853  0.50660  0.12124  1.0000
  H   H505      1.0  0.03736  0.53521  0.31043  1.0000
  H   H506      1.0  0.04403  0.43477  0.43339  1.0000
  C   C316      1.0  0.04010  0.47063  0.41712  1.0000
  Fe  Fe61      1.0  0.16776  0.58614  0.06161  1.0000
  N   N32       1.0  0.05749  0.45665  0.41765  1.0000
  H   H507      1.0  0.22169  0.50224  0.02969  1.0000
  C   C317      1.0  0.05460  0.44170  0.43395  1.0000
  C   C318      1.0  0.38179  0.42209  0.04684  1.0000
  C   C319      1.0  0.22193  0.51688  0.02355  1.0000
  S   S129      1.0  0.04912  0.49655  0.32969  1.0000
  H   H508      1.0  0.06597  0.46010  0.38834  1.0000
  N   N33       1.0  0.29181  0.57626  0.04404  1.0000
  H   H509      1.0  0.07614  0.43836  0.40085  1.0000
  S   S130      1.0  0.18369  0.56224  0.10726  1.0000
  H   H510      1.0  0.29394  0.42705  0.01250  1.0000
  Fe  Fe62      1.0  0.01826  0.56349  0.22823  1.0000
  H   H511      1.0  0.00083  0.56620  0.34147  1.0000
  H   H512      1.0  0.32326  0.49719  0.00856  1.0000
  C   C320      1.0  0.36992  0.49142  0.00100  1.0000
  N   N34       1.0  0.05927  0.54934  0.30491  1.0000
  H   H513      1.0  0.41067  0.45300  0.09610  1.0000
  H   H514      1.0  0.38330  0.39612  0.06603  1.0000
  H   H515      1.0  0.03018  0.55741  0.31593  1.0000
  H   H516      1.0  0.04684  0.57034  0.28460  1.0000
  H   H517      1.0  0.29180  0.43015  0.04423  1.0000
  H   H518      1.0  0.44074  0.42094  0.08329  1.0000
  Fe  Fe63      1.0  0.42191  0.39070  0.04137  1.0000
  N   N35       1.0  0.29798  0.45035  0.01951  1.0000
  H   H519      1.0  0.22722  0.52188  0.03284  1.0000
  H   H520      1.0  0.28698  0.58051  0.01697  1.0000
  H   H521      1.0  0.38025  0.49559  0.00499  1.0000
  C   C321      1.0  0.08191  0.58137  0.15489  1.0000
  S   S131      1.0  0.06329  0.58205  0.21422  1.0000
  C   C322      1.0  0.30918  0.56260  0.03995  1.0000
  H   H522      1.0  0.42435  0.41982  0.10497  1.0000
  H   H523      1.0  0.29683  0.57873  0.06905  1.0000
  H   H524      1.0  0.04789  0.56513  0.36381  1.0000
  C   C323      1.0  0.35114  0.49767  0.00820  1.0000
  H   H525      1.0  0.38282  0.43945  0.08451  1.0000
  H   H526      1.0  0.99876  0.55382  0.20160  1.0000
  C   C324      1.0  0.29095  0.44222  0.00839  1.0000
  H   H527      1.0  0.08760  0.53538  0.29735  1.0000
  C   C325      1.0  0.06392  0.56253  0.31252  1.0000
  H   H528      1.0  0.30078  0.47485  0.99883  1.0000
  C   C326      1.0  0.00780  0.43746  0.42738  1.0000
  H   H529      1.0  0.05402  0.54794  0.27954  1.0000
  S   S132      1.0  0.45069  0.39519  0.03448  1.0000
  S   S133      1.0  0.15065  0.56908  0.08468  1.0000
  H   H530      1.0  0.27457  0.55825  0.04542  1.0000
  C   C327      1.0  0.05766  0.55747  0.28566  1.0000
  C   C328      1.0  0.15179  0.57011  0.03102  1.0000
  C   C329      1.0  0.04147  0.54492  0.31595  1.0000
  H   H531      1.0  0.20907  0.55299  0.02218  1.0000
  H   H532      1.0  0.32544  0.44681  0.00248  1.0000
  H   H533      1.0  0.14791  0.56765  0.04586  1.0000
  Fe  Fe64      1.0  0.15764  0.58308  0.10293  1.0000
  H   H534      1.0  0.26060  0.58235  0.08726  1.0000
  C   C330      1.0  0.34321  0.48085  0.99050  1.0000
  H   H535      1.0  0.21410  0.54861  0.99945  1.0000
  H   H536      1.0  0.29723  0.44606  0.99351  1.0000
  H   H537      1.0  0.07705  0.56659  0.30433  1.0000
  S   S134      1.0  0.22740  0.58175  0.07837  1.0000
  Fe  Fe65      1.0  0.19788  0.57990  0.08249  1.0000
  H   H538      1.0  0.07092  0.56073  0.27682  1.0000
  C   C331      1.0  0.37535  0.47966  0.98872  1.0000
  C   C332      1.0  0.16168  0.57632  0.99256  1.0000
  H   H539      1.0  0.40762  0.39178  0.00421  1.0000
  H   H540      1.0  0.11683  0.57537  0.11719  1.0000
  Fe  Fe66      1.0  0.02141  0.39556  0.48065  1.0000
  C   C333      1.0  0.09166  0.57608  0.13829  1.0000
  H   H541      1.0  0.40657  0.42502  0.99009  1.0000
  H   H542      1.0  0.00078  0.44090  0.35636  1.0000
  H   H543      1.0  0.37877  0.41270  0.99787  1.0000
  H   H544      1.0  0.00331  0.48893  0.30670  1.0000
  H   H545      1.0  0.99940  0.44928  0.43275  1.0000
  C   C334      1.0  0.41155  0.38950  0.98995  1.0000
  H   H546      1.0  0.99767  0.54324  0.34556  1.0000
  H   H547      1.0  0.33289  0.47695  0.98630  1.0000
  H   H548      1.0  0.23875  0.49973  0.98391  1.0000
  C   C335      1.0  0.05172  0.38924  0.68762  1.0000
  C   C336      1.0  0.34171  0.46833  0.87521  1.0000
  H   H549      1.0  0.12885  0.40125  0.66443  1.0000
  S   S135      1.0  0.00061  0.46192  0.72818  1.0000
  Fe  Fe67      1.0  0.01872  0.56744  0.72103  1.0000
  H   H550      1.0  0.28620  0.52531  0.92645  1.0000
  H   H551      1.0  0.07523  0.56819  0.95090  1.0000
  Fe  Fe68      1.0  0.19259  0.52436  0.93735  1.0000
  S   S136      1.0  0.21183  0.49731  0.93452  1.0000
  S   S137      1.0  0.14018  0.56146  0.90404  1.0000
  S   S138      1.0  0.16174  0.52855  0.94659  1.0000
  Fe  Fe69      1.0  0.33025  0.45380  0.92831  1.0000
  S   S139      1.0  0.35242  0.46945  0.92152  1.0000
  S   S140      1.0  0.33190  0.43214  0.91368  1.0000
  Fe  Fe70      1.0  0.30451  0.47686  0.95472  1.0000
  S   S141      1.0  0.32448  0.49462  0.95037  1.0000
  H   H552      1.0  0.13456  0.39794  0.68626  1.0000
  Fe  Fe71      1.0  0.32926  0.49429  0.92066  1.0000
  S   S142      1.0  0.33071  0.51774  0.89638  1.0000
  Fe  Fe72      1.0  0.34563  0.46815  0.95178  1.0000
  H   H553      1.0  0.27216  0.50973  0.92824  1.0000
  S   S143      1.0  0.30760  0.47877  0.92474  1.0000
  S   S144      1.0  0.32527  0.45031  0.95883  1.0000
  H   H554      1.0  0.10922  0.56985  0.97621  1.0000
  H   H555      1.0  0.23344  0.54540  0.91205  1.0000
  H   H556      1.0  0.99841  0.51447  0.79523  1.0000
  H   H557      1.0  0.37468  0.44496  0.86792  1.0000
  H   H558      1.0  0.32183  0.54533  0.96961  1.0000
  Fe  Fe73      1.0  0.06016  0.56131  0.70849  1.0000
  S   S145      1.0  0.08799  0.54244  0.70809  1.0000
  N   N36       1.0  0.10318  0.56208  0.95420  1.0000
  H   H559      1.0  0.02284  0.56500  0.84415  1.0000
  H   H560      1.0  0.01754  0.42056  0.68603  1.0000
  N   N37       1.0  0.00872  0.50164  0.77201  1.0000
  S   S146      1.0  0.04108  0.56475  0.73547  1.0000
  H   H561      1.0  0.13353  0.48559  0.83229  1.0000
  Fe  Fe74      1.0  0.08303  0.52331  0.85774  1.0000
  S   S147      1.0  0.05897  0.54744  0.85672  1.0000
  S   S148      1.0  0.10174  0.51250  0.87837  1.0000
  Fe  Fe75      1.0  0.07745  0.51281  0.82463  1.0000
  S   S149      1.0  0.05330  0.53607  0.82065  1.0000
  S   S150      1.0  0.08981  0.49488  0.80392  1.0000
  Fe  Fe76      1.0  0.06981  0.55269  0.82614  1.0000
  H   H562      1.0  0.24690  0.52711  0.94813  1.0000
  Fe  Fe77      1.0  0.04413  0.52896  0.85130  1.0000
  S   S151      1.0  0.01364  0.53069  0.86325  1.0000
  S   S152      1.0  0.09504  0.53012  0.82741  1.0000
  S   S153      1.0  0.06708  0.50413  0.85501  1.0000
  C   C337      1.0  0.04383  0.39758  0.56709  1.0000
  H   H563      1.0  0.32669  0.55558  0.98549  1.0000
  S   S154      1.0  0.01026  0.39432  0.51073  1.0000
  H   H564      1.0  0.25275  0.56684  0.90880  1.0000
  H   H565      1.0  0.27195  0.55410  0.89498  1.0000
  S   S155      1.0  0.49062  0.39466  0.89869  1.0000
  H   H566      1.0  0.03088  0.49952  0.78485  1.0000
  H   H567      1.0  0.10983  0.43201  0.66792  1.0000
  H   H568      1.0  0.40373  0.43383  0.96691  1.0000
  S   S156      1.0  0.16153  0.57243  0.93895  1.0000
  H   H569      1.0  0.05779  0.39947  0.56436  1.0000
  H   H570      1.0  0.13295  0.48783  0.85503  1.0000
  C   C338      1.0  0.24087  0.49437  0.97184  1.0000
  S   S157      1.0  0.07428  0.42463  0.74964  1.0000
  C   C339      1.0  0.00138  0.53622  0.70861  1.0000
  H   H571      1.0  0.34033  0.45497  0.87374  1.0000
  N   N38       1.0  0.35055  0.54508  0.96612  1.0000
  C   C340      1.0  0.33195  0.54432  0.97785  1.0000
  C   C341      1.0  0.00976  0.43945  0.70399  1.0000
  H   H572      1.0  0.09155  0.43441  0.68784  1.0000
  C   C342      1.0  0.36346  0.54363  0.97770  1.0000
  N   N39       1.0  0.00464  0.58009  0.82594  1.0000
  C   C343      1.0  0.00494  0.48371  0.78268  1.0000
  H   H573      1.0  0.03151  0.51518  0.76287  1.0000
  C   C344      1.0  0.32303  0.57495  0.90581  1.0000
  H   H574      1.0  0.34008  0.56434  0.94356  1.0000
  H   H575      1.0  0.03798  0.49096  0.76425  1.0000
  H   H576      1.0  0.40147  0.41311  0.94875  1.0000
  H   H577      1.0  0.05252  0.56663  0.79174  1.0000
  N   N40       1.0  0.25943  0.53806  0.92032  1.0000
  S   S158      1.0  0.27706  0.48264  0.97426  1.0000
  H   H578      1.0  0.03928  0.58040  0.76414  1.0000
  H   H579      1.0  0.01007  0.55146  0.82620  1.0000
  S   S159      1.0  0.36862  0.46154  0.96651  1.0000
  H   H580      1.0  0.16562  0.57872  0.97772  1.0000
  H   H581      1.0  0.00654  0.52254  0.68640  1.0000
  H   H582      1.0  0.10133  0.58130  0.92848  1.0000
  C   C345      1.0  0.01452  0.39486  0.58835  1.0000
  C   C346      1.0  0.09172  0.48286  0.70856  1.0000
  C   C347      1.0  0.10768  0.48945  0.70542  1.0000
  C   C348      1.0  0.10633  0.50773  0.70543  1.0000
  C   C349      1.0  0.08901  0.51963  0.70826  1.0000
  C   C350      1.0  0.07296  0.51317  0.71129  1.0000
  C   C351      1.0  0.07433  0.49475  0.71146  1.0000
  H   H583      1.0  0.12114  0.48035  0.70307  1.0000
  H   H584      1.0  0.11877  0.51270  0.70299  1.0000
  H   H585      1.0  0.05955  0.52235  0.71335  1.0000
  H   H586      1.0  0.06198  0.48992  0.71328  1.0000
  C   C352      1.0  0.06047  0.47767  0.81463  1.0000
  H   H587      1.0  0.05686  0.48262  0.82719  1.0000
  C   C353      1.0  0.05093  0.39263  0.70478  1.0000
  H   H588      1.0  0.35759  0.51632  0.96638  1.0000
  H   H589      1.0  0.11030  0.54583  0.97969  1.0000
  H   H590      1.0  0.49556  0.39808  0.94948  1.0000
  H   H591      1.0  0.32971  0.47898  0.87114  1.0000
  H   H592      1.0  0.37386  0.49454  0.85866  1.0000
  H   H593      1.0  0.04350  0.40567  0.70809  1.0000
  C   C354      1.0  0.13002  0.54744  0.89684  1.0000
  C   C355      1.0  0.11792  0.55576  0.88479  1.0000
  C   C356      1.0  0.10923  0.54528  0.87897  1.0000
  C   C357      1.0  0.11245  0.52631  0.88525  1.0000
  C   C358      1.0  0.12446  0.51797  0.89741  1.0000
  C   C359      1.0  0.13323  0.52845  0.90315  1.0000
  H   H594      1.0  0.11531  0.57043  0.87982  1.0000
  H   H595      1.0  0.10004  0.55192  0.86963  1.0000
  H   H596      1.0  0.12705  0.50331  0.90237  1.0000
  H   H597      1.0  0.14251  0.52183  0.91241  1.0000
  C   C360      1.0  0.22913  0.49129  0.94708  1.0000
  C   C361      1.0  0.22627  0.49778  0.96301  1.0000
  H   H598      1.0  0.36355  0.56364  0.94339  1.0000
  C   C362      1.0  0.25836  0.48457  0.96466  1.0000
  C   C363      1.0  0.26091  0.47718  0.94939  1.0000
  C   C364      1.0  0.24632  0.48057  0.94058  1.0000
  H   H599      1.0  0.01323  0.49323  0.74651  1.0000
  H   H600      1.0  0.21278  0.50527  0.96856  1.0000
  H   H601      1.0  0.27409  0.46882  0.94435  1.0000
  H   H602      1.0  0.24845  0.47518  0.92851  1.0000
  N   N41       1.0  0.12001  0.46686  0.85442  1.0000
  H   H603      1.0  0.11609  0.46953  0.88225  1.0000
  C   C365      1.0  0.05494  0.45960  0.79626  1.0000
  C   C366      1.0  0.40999  0.42155  0.97634  1.0000
  C   C367      1.0  0.13700  0.45235  0.85506  1.0000
  C   C368      1.0  0.38999  0.40742  0.88510  1.0000
  C   C369      1.0  0.38761  0.41431  0.90072  1.0000
  C   C370      1.0  0.36973  0.42183  0.90979  1.0000
  C   C371      1.0  0.35432  0.42196  0.90350  1.0000
  C   C372      1.0  0.35675  0.41453  0.88827  1.0000
  C   C373      1.0  0.34975  0.56263  0.95252  1.0000
  H   H604      1.0  0.07362  0.45924  0.76986  1.0000
  H   H605      1.0  0.36787  0.42745  0.92165  1.0000
  H   H606      1.0  0.34484  0.41455  0.88345  1.0000
  H   H607      1.0  0.33457  0.58168  0.87679  1.0000
  C   C374      1.0  0.12507  0.48480  0.84655  1.0000
  H   H608      1.0  0.39955  0.41433  0.90545  1.0000
  N   N42       1.0  0.09520  0.54171  0.75911  1.0000
  C   C375      1.0  0.09863  0.54248  0.77670  1.0000
  C   C376      1.0  0.11027  0.52809  0.75061  1.0000
  C   C377      1.0  0.09448  0.55992  0.74666  1.0000
  C   C378      1.0  0.07744  0.53627  0.76248  1.0000
  H   H609      1.0  0.09952  0.52894  0.78634  1.0000
  H   H610      1.0  0.08742  0.55241  0.78366  1.0000
  H   H611      1.0  0.11182  0.54674  0.77462  1.0000
  H   H612      1.0  0.12394  0.53162  0.74787  1.0000
  H   H613      1.0  0.11101  0.51417  0.75965  1.0000
  H   H614      1.0  0.10814  0.52721  0.73726  1.0000
  H   H615      1.0  0.33824  0.55067  0.87207  1.0000
  H   H616      1.0  0.10780  0.56426  0.74350  1.0000
  H   H617      1.0  0.08345  0.57056  0.75279  1.0000
  H   H618      1.0  0.01068  0.40996  0.63518  1.0000
  H   H619      1.0  0.06566  0.54635  0.76854  1.0000
  H   H620      1.0  0.07745  0.52270  0.77209  1.0000
  C   C379      1.0  0.37455  0.40755  0.87892  1.0000
  S   S160      1.0  0.09396  0.45979  0.70857  1.0000
  H   H621      1.0  0.34501  0.57443  0.95942  1.0000
  C   C380      1.0  0.35702  0.52975  0.95647  1.0000
  C   C381      1.0  0.00778  0.56498  0.81657  1.0000
  H   H622      1.0  0.02258  0.42041  0.82394  1.0000
  H   H623      1.0  0.23780  0.55081  0.94004  1.0000
  C   C382      1.0  0.08305  0.56523  0.96188  1.0000
  C   C383      1.0  0.03261  0.39717  0.58478  1.0000
  H   H624      1.0  0.00170  0.56908  0.64908  1.0000
  H   H625      1.0  0.01528  0.49207  0.82236  1.0000
  H   H626      1.0  0.37759  0.54445  0.96934  1.0000
  H   H627      1.0  0.37636  0.40225  0.86686  1.0000
  H   H628      1.0  0.10954  0.40144  0.71410  1.0000
  C   C384      1.0  0.12424  0.39638  0.67951  1.0000
  H   H629      1.0  0.01375  0.39093  0.54605  1.0000
  S   S161      1.0  0.03006  0.42619  0.75785  1.0000
  Fe  Fe78      1.0  0.06961  0.44850  0.72621  1.0000
  Fe  Fe79      1.0  0.02881  0.44979  0.73386  1.0000
  C   C385      1.0  0.02073  0.57801  0.83377  1.0000
  H   H630      1.0  0.02216  0.44476  0.69830  1.0000
  S   S162      1.0  0.00128  0.39229  0.61084  1.0000
  C   C386      1.0  0.31760  0.56113  0.92069  1.0000
  H   H631      1.0  0.10562  0.53366  0.95504  1.0000
  C   C387      1.0  0.36197  0.47463  0.98325  1.0000
  C   C388      1.0  0.40761  0.40136  0.95875  1.0000
  H   H632      1.0  0.14533  0.45445  0.86368  1.0000
  S   S163      1.0  0.03808  0.56124  0.69487  1.0000
  C   C389      1.0  0.03712  0.39521  0.55307  1.0000
  H   H633      1.0  0.11507  0.42875  0.68997  1.0000
  H   H634      1.0  0.21525  0.58448  0.98323  1.0000
  H   H635      1.0  0.00250  0.56099  0.67286  1.0000
  C   C390      1.0  0.00167  0.57339  0.66163  1.0000
  Fe  Fe80      1.0  0.04822  0.43984  0.76534  1.0000
  C   C391      1.0  0.00661  0.49989  0.83238  1.0000
  H   H636      1.0  0.08593  0.40705  0.71230  1.0000
  C   C392      1.0  0.10862  0.46672  0.87324  1.0000
  C   C393      1.0  0.10938  0.46364  0.84281  1.0000
  H   H637      1.0  0.09569  0.47753  0.87329  1.0000
  H   H638      1.0  0.10459  0.45338  0.87976  1.0000
  H   H639      1.0  0.10533  0.45020  0.84825  1.0000
  H   H640      1.0  0.11742  0.46396  0.82841  1.0000
  H   H641      1.0  0.09645  0.47432  0.84204  1.0000
  H   H642      1.0  0.34916  0.48519  0.83965  1.0000
  C   C394      1.0  0.25072  0.54000  0.93943  1.0000
  H   H643      1.0  0.37389  0.47751  0.83594  1.0000
  C   C395      1.0  0.33042  0.57106  0.88834  1.0000
  H   H644      1.0  0.00818  0.48050  0.79649  1.0000
  C   C396      1.0  0.33252  0.55349  0.88568  1.0000
  H   H645      1.0  0.12282  0.57693  0.93506  1.0000
  C   C397      1.0  0.00977  0.41518  0.83108  1.0000
  H   H646      1.0  0.28302  0.52110  0.90604  1.0000
  C   C398      1.0  0.06985  0.46438  0.78233  1.0000
  N   N43       1.0  0.10553  0.40663  0.68654  1.0000
  C   C399      1.0  0.10000  0.39968  0.70656  1.0000
  H   H647      1.0  0.02011  0.56506  0.80501  1.0000
  Fe  Fe81      1.0  0.16092  0.55257  0.92267  1.0000
  C   C400      1.0  0.07574  0.48196  0.80093  1.0000
  H   H648      1.0  0.36045  0.48971  0.88163  1.0000
  S   S164      1.0  0.19177  0.54690  0.91220  1.0000
  H   H649      1.0  0.25208  0.53243  0.89788  1.0000
  H   H650      1.0  0.31592  0.53273  0.92955  1.0000
  C   C401      1.0  0.36057  0.47427  0.84461  1.0000
  Fe  Fe82      1.0  0.19250  0.56444  0.93058  1.0000
  C   C402      1.0  0.01463  0.50900  0.84034  1.0000
  H   H651      1.0  0.07821  0.57701  0.96880  1.0000
  S   S165      1.0  0.19568  0.54144  0.95485  1.0000
  H   H652      1.0  0.01702  0.42858  0.63963  1.0000
  H   H653      1.0  0.14592  0.45212  0.84107  1.0000
  C   C403      1.0  0.32754  0.53957  0.90052  1.0000
  H   H654      1.0  0.09214  0.47860  0.77409  1.0000
  H   H655      1.0  0.24134  0.52138  0.92028  1.0000
  C   C404      1.0  0.09229  0.40418  0.67727  1.0000
  H   H656      1.0  0.99830  0.53001  0.77318  1.0000
  H   H657      1.0  0.37426  0.45648  0.88514  1.0000
  H   H658      1.0  0.09157  0.56000  0.73336  1.0000
  H   H659      1.0  0.20169  0.57785  0.96076  1.0000
  C   C405      1.0  0.26498  0.55522  0.90939  1.0000
  H   H660      1.0  0.03873  0.46266  0.82321  1.0000
  C   C406      1.0  0.36080  0.49045  0.86699  1.0000
  H   H661      1.0  0.38862  0.46145  0.86260  1.0000
  H   H662      1.0  0.34906  0.50168  0.86319  1.0000
  C   C407      1.0  0.32002  0.54337  0.91808  1.0000
  S   S166      1.0  0.04210  0.44518  0.79386  1.0000
  H   H663      1.0  0.07473  0.53517  0.74946  1.0000
  H   H664      1.0  0.00636  0.41684  0.84553  1.0000
  S   S167      1.0  0.41207  0.39990  0.87221  1.0000
  S   S168      1.0  0.05319  0.43624  0.71496  1.0000
  H   H665      1.0  0.02939  0.50808  0.83650  1.0000
  N   N44       1.0  0.35951  0.47285  0.86426  1.0000
  C   C408      1.0  0.37495  0.45833  0.87022  1.0000
  C   C409      1.0  0.21400  0.58340  0.95605  1.0000
  C   C410      1.0  0.05023  0.46634  0.81237  1.0000
  C   C411      1.0  0.08034  0.47536  0.78476  1.0000
  H   H666      1.0  0.13371  0.43861  0.86097  1.0000
  S   S169      1.0  0.29977  0.58441  0.96243  1.0000
  C   C412      1.0  0.27593  0.52289  0.92025  1.0000
  H   H667      1.0  0.09609  0.40904  0.66211  1.0000
  H   H668      1.0  0.37112  0.52971  0.94765  1.0000
  H   H669      1.0  0.01588  0.53478  0.70792  1.0000
  H   H670      1.0  0.34037  0.46721  0.89010  1.0000
  S   S170      1.0  0.04494  0.46445  0.74259  1.0000
  H   H671      1.0  0.35950  0.46120  0.84215  1.0000
  Fe  Fe83      1.0  0.05568  0.41348  0.73968  1.0000
  H   H672      1.0  0.11254  0.49598  0.84610  1.0000
  H   H673      1.0  0.40243  0.38928  0.95895  1.0000
  H   H674      1.0  0.31155  0.56410  0.93414  1.0000
  H   H675      1.0  0.07923  0.55304  0.97223  1.0000
  C   C413      1.0  0.11309  0.55826  0.96912  1.0000
  H   H676      1.0  0.26010  0.54368  0.94578  1.0000
  Fe  Fe84      1.0  0.16474  0.54785  0.96197  1.0000
  C   C414      1.0  0.24603  0.53413  0.91226  1.0000
  H   H677      1.0  0.00283  0.40813  0.80186  1.0000
  C   C415      1.0  0.00362  0.51898  0.85346  1.0000
  C   C416      1.0  0.10899  0.54629  0.94524  1.0000
  H   H678      1.0  0.04548  0.39991  0.67750  1.0000
  C   C417      1.0  0.02811  0.50188  0.77093  1.0000
  H   H679      1.0  0.07805  0.41192  0.68214  1.0000
  H   H680      1.0  0.03369  0.57798  0.82299  1.0000
  C   C418      1.0  0.05372  0.58024  0.78432  1.0000
  C   C419      1.0  0.01901  0.39288  0.55670  1.0000
  C   C420      1.0  0.10554  0.42627  0.68286  1.0000
  H   H681      1.0  0.10229  0.54888  0.93348  1.0000
  S   S171      1.0  0.07213  0.58093  0.80992  1.0000
  H   H682      1.0  0.27471  0.55889  0.91534  1.0000
  H   H683      1.0  0.01457  0.57836  0.65902  1.0000
  H   H684      1.0  0.12416  0.54334  0.93960  1.0000
  C   C421      1.0  0.10765  0.57855  0.94053  1.0000
  H   H685      1.0  0.00297  0.45049  0.81530  1.0000
  H   H686      1.0  0.01314  0.40031  0.83125  1.0000
  C   C422      1.0  0.00758  0.39307  0.57423  1.0000
  H   H687      1.0  0.34764  0.53054  0.94750  1.0000
  H   H688      1.0  0.01353  0.47246  0.77573  1.0000
  H   H689      1.0  0.00667  0.41256  0.65833  1.0000
  C   C423      1.0  0.00713  0.42580  0.69700  1.0000
  H   H690      1.0  0.01200  0.42839  0.79494  1.0000
  N   N45       1.0  0.40296  0.40542  0.97726  1.0000
  S   S172      1.0  0.21314  0.58255  0.92078  1.0000
  C   C424      1.0  0.00636  0.42023  0.64397  1.0000
  C   C425      1.0  0.00560  0.50483  0.75329  1.0000
  H   H691      1.0  0.09167  0.38954  0.67998  1.0000
  H   H692      1.0  0.38987  0.47484  0.98312  1.0000
  H   H693      1.0  0.37575  0.42113  0.97468  1.0000
  H   H694      1.0  0.12830  0.55588  0.96371  1.0000
  H   H695      1.0  0.42284  0.39813  0.95338  1.0000
  S   S173      1.0  0.05178  0.39454  0.53135  1.0000
  H   H696      1.0  0.42527  0.41912  0.97141  1.0000
  H   H697      1.0  0.03797  0.39871  0.59563  1.0000
  H   H698      1.0  0.99809  0.45035  0.61812  1.0000
  H   H699      1.0  0.01032  0.51719  0.74430  1.0000
  C   C426      1.0  0.99959  0.42277  0.80261  1.0000
  C   C427      1.0  0.38268  0.40928  0.98404  1.0000
  S   S174      1.0  0.43872  0.39109  0.91300  1.0000
  H   H700      1.0  0.35868  0.55475  0.98554  1.0000
  H   H701      1.0  0.37692  0.39731  0.98517  1.0000
  H   H702      1.0  0.42691  0.38673  0.98579  1.0000
  H   H703      1.0  0.39445  0.78237  0.12686  1.0000
  H   H704      1.0  0.49667  0.67693  0.09281  1.0000
  H   H705      1.0  0.10572  0.66382  0.44598  1.0000
  Fe  Fe85      1.0  0.28238  0.63897  0.09213  1.0000
  S   S175      1.0  0.30039  0.62296  0.07127  1.0000
  S   S176      1.0  0.25147  0.64204  0.10148  1.0000
  Fe  Fe86      1.0  0.31410  0.65156  0.09719  1.0000
  S   S177      1.0  0.33536  0.63663  0.07684  1.0000
  S   S178      1.0  0.32036  0.66657  0.11512  1.0000
  Fe  Fe87      1.0  0.31398  0.64674  0.05979  1.0000
  S   S179      1.0  0.32147  0.65555  0.02927  1.0000
  Fe  Fe88      1.0  0.32044  0.61375  0.08971  1.0000
  S   S180      1.0  0.29403  0.66403  0.07872  1.0000
  S   S181      1.0  0.30123  0.62741  0.11188  1.0000
  H   H706      1.0  0.35844  0.66695  0.08784  1.0000
  S   S182      1.0  0.03636  0.64427  0.33705  1.0000
  Fe  Fe89      1.0  0.02050  0.59876  0.36315  1.0000
  S   S183      1.0  0.04957  0.60163  0.35915  1.0000
  H   H707      1.0  0.20008  0.64121  0.00244  1.0000
  Fe  Fe90      1.0  0.03655  0.62919  0.36628  1.0000
  S   S184      1.0  0.04209  0.63732  0.38977  1.0000
  Fe  Fe91      1.0  0.04661  0.61628  0.33040  1.0000
  S   S185      1.0  0.06709  0.60850  0.30529  1.0000
  H   H708      1.0  0.02672  0.68201  0.34646  1.0000
  H   H709      1.0  0.36078  0.75176  0.04274  1.0000
  H   H710      1.0  0.22145  0.59324  0.03948  1.0000
  C   C428      1.0  0.46782  0.75673  0.98652  1.0000
  S   S186      1.0  0.02625  0.61875  0.24134  1.0000
  H   H711      1.0  0.23521  0.62063  0.03118  1.0000
  H   H712      1.0  0.00848  0.68076  0.33685  1.0000
  H   H713      1.0  0.11764  0.65770  0.39763  1.0000
  H   H714      1.0  0.11333  0.60157  0.16047  1.0000
  S   S187      1.0  0.41012  0.76156  0.08664  1.0000
  H   H715      1.0  0.48064  0.74554  0.14235  1.0000
  Fe  Fe92      1.0  0.36357  0.74982  0.08829  1.0000
  S   S188      1.0  0.39092  0.73105  0.08067  1.0000
  S   S189      1.0  0.33860  0.74499  0.08190  1.0000
  Fe  Fe93      1.0  0.39805  0.73768  0.10385  1.0000
  S   S190      1.0  0.41653  0.71618  0.12045  1.0000
  Fe  Fe94      1.0  0.40059  0.75634  0.06436  1.0000
  S   S191      1.0  0.41698  0.75721  0.03577  1.0000
  S   S192      1.0  0.36970  0.75454  0.11333  1.0000
  C   C429      1.0  0.39908  0.67931  0.08177  1.0000
  C   C430      1.0  0.08974  0.59070  0.16275  1.0000
  S   S193      1.0  0.01856  0.61116  0.33412  1.0000
  S   S194      1.0  0.17255  0.60197  0.07955  1.0000
  C   C431      1.0  0.33271  0.78191  0.04293  1.0000
  H   H716      1.0  0.08036  0.69020  0.42154  1.0000
  H   H717      1.0  0.35994  0.74853  0.02089  1.0000
  H   H718      1.0  0.48312  0.70862  0.11252  1.0000
  N   N46       1.0  0.37419  0.65464  0.99122  1.0000
  C   C432      1.0  0.47984  0.76273  0.10740  1.0000
  H   H719      1.0  0.36615  0.67524  0.10322  1.0000
  Fe  Fe95      1.0  0.05254  0.71835  0.42015  1.0000
  S   S195      1.0  0.04439  0.69866  0.44649  1.0000
  S   S196      1.0  0.06004  0.71082  0.39233  1.0000
  Fe  Fe96      1.0  0.04709  0.74900  0.44041  1.0000
  S   S197      1.0  0.03880  0.73147  0.46810  1.0000
  Fe  Fe97      1.0  0.06207  0.70977  0.45739  1.0000
  S   S198      1.0  0.08272  0.68900  0.47210  1.0000
  Fe  Fe98      1.0  0.02216  0.72248  0.45415  1.0000
  C   C433      1.0  0.23284  0.59794  0.08682  1.0000
  S   S199      1.0  0.07194  0.72806  0.43054  1.0000
  S   S200      1.0  0.02889  0.74132  0.42704  1.0000
  H   H720      1.0  0.20373  0.62053  0.05109  1.0000
  H   H721      1.0  0.08953  0.76262  0.47701  1.0000
  Fe  Fe99      1.0  0.03498  0.59407  0.22880  1.0000
  H   H722      1.0  0.11869  0.63938  0.41755  1.0000
  H   H723      1.0  0.43120  0.76509  0.99746  1.0000
  H   H724      1.0  0.40748  0.66565  0.08683  1.0000
  H   H725      1.0  0.43533  0.76053  0.12885  1.0000
  H   H726      1.0  0.06114  0.59580  0.24885  1.0000
  H   H727      1.0  0.46355  0.75829  0.00105  1.0000
  S   S201      1.0  0.49537  0.68268  0.99278  1.0000
  H   H728      1.0  0.37827  0.65390  0.09697  1.0000
  C   C434      1.0  0.40452  0.71106  0.01916  1.0000
  C   C435      1.0  0.39674  0.72925  0.01226  1.0000
  C   C436      1.0  0.40105  0.74338  0.01702  1.0000
  C   C437      1.0  0.41230  0.73935  0.02953  1.0000
  C   C438      1.0  0.41944  0.72112  0.03721  1.0000
  C   C439      1.0  0.41587  0.70694  0.03170  1.0000
  H   H729      1.0  0.36000  0.69558  0.06493  1.0000
  H   H730      1.0  0.39567  0.75742  0.01100  1.0000
  H   H731      1.0  0.42820  0.71801  0.04692  1.0000
  H   H732      1.0  0.42229  0.69290  0.03673  1.0000
  C   C440      1.0  0.43915  0.71576  0.10740  1.0000
  C   C441      1.0  0.44218  0.72208  0.08833  1.0000
  C   C442      1.0  0.45979  0.72421  0.07807  1.0000
  C   C443      1.0  0.47451  0.71986  0.08683  1.0000
  C   C444      1.0  0.47177  0.71249  0.10574  1.0000
  C   C445      1.0  0.45408  0.71043  0.11604  1.0000
  H   H733      1.0  0.43086  0.72565  0.08144  1.0000
  H   H734      1.0  0.46186  0.72966  0.06341  1.0000
  H   H735      1.0  0.32092  0.77498  0.04944  1.0000
  H   H736      1.0  0.45183  0.70533  0.13077  1.0000
  C   C446      1.0  0.37256  0.69618  0.06898  1.0000
  H   H737      1.0  0.38300  0.62763  0.00681  1.0000
  H   H738      1.0  0.36942  0.78088  0.02896  1.0000
  C   C447      1.0  0.37018  0.63746  0.00369  1.0000
  C   C448      1.0  0.25088  0.59502  0.08913  1.0000
  N   N47       1.0  0.34468  0.77455  0.02691  1.0000
  H   H739      1.0  0.37765  0.66624  0.05610  1.0000
  C   C449      1.0  0.09558  0.65866  0.44202  1.0000
  H   H740      1.0  0.45813  0.68424  0.99230  1.0000
  H   H741      1.0  0.08223  0.59515  0.17533  1.0000
  H   H742      1.0  0.20608  0.61631  0.08857  1.0000
  H   H743      1.0  0.34048  0.77975  0.05377  1.0000
  C   C450      1.0  0.32225  0.63946  0.00184  1.0000
  N   N48       1.0  0.46388  0.76208  0.12321  1.0000
  H   H744      1.0  0.10446  0.68893  0.41875  1.0000
  C   C451      1.0  0.04501  0.65913  0.38905  1.0000
  C   C452      1.0  0.03849  0.66588  0.40519  1.0000
  C   C453      1.0  0.04220  0.68225  0.40592  1.0000
  C   C454      1.0  0.05296  0.69175  0.39071  1.0000
  C   C455      1.0  0.05899  0.68535  0.37430  1.0000
  C   C456      1.0  0.05490  0.66911  0.37341  1.0000
  H   H745      1.0  0.03073  0.65826  0.41729  1.0000
  H   H746      1.0  0.03716  0.68720  0.41845  1.0000
  H   H747      1.0  0.06728  0.69268  0.36242  1.0000
  H   H748      1.0  0.06014  0.66389  0.36094  1.0000
  H   H749      1.0  0.49565  0.77779  0.15342  1.0000
  H   H750      1.0  0.39639  0.65484  0.00296  1.0000
  C   C457      1.0  0.19827  0.62588  0.03829  1.0000
  H   H751      1.0  0.39876  0.67415  0.04897  1.0000
  H   H752      1.0  0.01880  0.69557  0.37423  1.0000
  C   C458      1.0  0.29401  0.58731  0.05570  1.0000
  C   C459      1.0  0.05624  0.61210  0.28696  1.0000
  C   C460      1.0  0.03939  0.62464  0.28625  1.0000
  H   H753      1.0  0.20321  0.59365  0.02902  1.0000
  C   C461      1.0  0.03805  0.61629  0.25866  1.0000
  C   C462      1.0  0.05499  0.60382  0.25928  1.0000
  C   C463      1.0  0.06421  0.60195  0.27324  1.0000
  H   H754      1.0  0.03347  0.63290  0.29648  1.0000
  C   C464      1.0  0.37097  0.66802  0.09163  1.0000
  C   C465      1.0  0.20347  0.62602  0.00608  1.0000
  C   C466      1.0  0.32452  0.68874  0.10602  1.0000
  C   C467      1.0  0.33242  0.69616  0.11577  1.0000
  C   C468      1.0  0.33690  0.71337  0.10843  1.0000
  C   C469      1.0  0.33281  0.72356  0.09161  1.0000
  C   C470      1.0  0.32440  0.71638  0.08210  1.0000
  C   C471      1.0  0.32054  0.69886  0.08912  1.0000
  H   H755      1.0  0.33546  0.68841  0.12889  1.0000
  H   H756      1.0  0.34331  0.71886  0.11589  1.0000
  H   H757      1.0  0.32119  0.72422  0.06908  1.0000
  H   H758      1.0  0.31443  0.69325  0.08151  1.0000
  C   C472      1.0  0.05548  0.78331  0.45327  1.0000
  C   C473      1.0  0.32530  0.63670  0.01942  1.0000
  C   C474      1.0  0.33208  0.61897  0.02870  1.0000
  H   H759      1.0  0.07269  0.75620  0.45726  1.0000
  H   H760      1.0  0.33503  0.61678  0.04210  1.0000
  S   S202      1.0  0.37287  0.77476  0.06982  1.0000
  H   H761      1.0  0.47704  0.77513  0.09645  1.0000
  C   C475      1.0  0.36037  0.78377  0.01908  1.0000
  H   H762      1.0  0.01386  0.70241  0.33426  1.0000
  C   C476      1.0  0.21582  0.59893  0.02681  1.0000
  C   C477      1.0  0.25650  0.60840  0.09391  1.0000
  C   C478      1.0  0.24404  0.62477  0.09662  1.0000
  C   C479      1.0  0.22570  0.62741  0.09511  1.0000
  C   C480      1.0  0.22010  0.61402  0.09015  1.0000
  N   N49       1.0  0.99925  0.69162  0.36132  1.0000
  H   H763      1.0  0.27045  0.60597  0.09567  1.0000
  H   H764      1.0  0.21594  0.63998  0.09739  1.0000
  C   C481      1.0  0.09442  0.68326  0.41526  1.0000
  H   H765      1.0  0.01739  0.63665  0.27156  1.0000
  Fe  Fe100     1.0  0.38150  0.77800  0.09391  1.0000
  C   C482      1.0  0.07885  0.77326  0.47156  1.0000
  C   C483      1.0  0.32511  0.62452  0.99389  1.0000
  H   H766      1.0  0.39460  0.68689  0.09311  1.0000
  C   C484      1.0  0.10736  0.59435  0.15429  1.0000
  H   H767      1.0  0.44832  0.73302  0.00924  1.0000
  H   H768      1.0  0.00125  0.63668  0.30844  1.0000
  H   H769      1.0  0.01116  0.70418  0.43601  1.0000
  H   H770      1.0  0.39725  0.65326  0.06576  1.0000
  H   H771      1.0  0.44816  0.77837  0.14305  1.0000
  C   C485      1.0  0.03038  0.62684  0.27206  1.0000
  C   C486      1.0  0.45277  0.73145  0.99474  1.0000
  H   H772      1.0  0.09779  0.64366  0.44757  1.0000
  H   H773      1.0  0.44333  0.77421  0.10686  1.0000
  S   S203      1.0  0.16452  0.59917  0.03256  1.0000
  C   C487      1.0  0.35175  0.75470  0.03281  1.0000
  Fe  Fe101     1.0  0.00838  0.63796  0.34282  1.0000
  H   H774      1.0  0.37385  0.66646  0.01337  1.0000
  C   C488      1.0  0.00536  0.70269  0.37030  1.0000
  C   C489      1.0  0.33115  0.60671  0.00340  1.0000
  H   H775      1.0  0.06910  0.66233  0.42462  1.0000
  S   S204      1.0  0.49594  0.72445  0.07389  1.0000
  H   H776      1.0  0.19047  0.62131  0.00833  1.0000
  C   C490      1.0  0.22882  0.62559  0.01898  1.0000
  H   H777      1.0  0.45011  0.74972  0.11071  1.0000
  H   H778      1.0  0.36313  0.63066  0.99758  1.0000
  H   H779      1.0  0.21310  0.62112  0.99392  1.0000
  H   H780      1.0  0.00152  0.77801  0.46715  1.0000
  C   C491      1.0  0.01268  0.68910  0.34395  1.0000
  H   H781      1.0  0.38745  0.73246  0.00309  1.0000
  H   H782      1.0  0.08355  0.66048  0.40241  1.0000
  H   H783      1.0  0.44245  0.72547  0.99207  1.0000
  H   H784      1.0  0.08538  0.64139  0.42157  1.0000
  H   H785      1.0  0.34705  0.67078  0.99979  1.0000
  N   N50       1.0  0.09733  0.66322  0.42189  1.0000
  C   C492      1.0  0.38293  0.66347  0.00013  1.0000
  C   C493      1.0  0.33524  0.60401  0.02058  1.0000
  C   C494      1.0  0.11598  0.65452  0.41284  1.0000
  C   C495      1.0  0.06930  0.76960  0.46041  1.0000
  H   H786      1.0  0.12689  0.65938  0.41586  1.0000
  H   H787      1.0  0.22617  0.64079  0.01564  1.0000
  H   H788      1.0  0.99939  0.68601  0.47345  1.0000
  C   C496      1.0  0.38947  0.66736  0.06104  1.0000
  H   H789      1.0  0.32191  0.77106  0.01822  1.0000
  H   H790      1.0  0.46618  0.72131  0.99354  1.0000
  H   H791      1.0  0.34254  0.77228  0.00054  1.0000
  C   C497      1.0  0.44748  0.76160  0.11713  1.0000
  S   S205      1.0  0.33148  0.58796  0.99467  1.0000
  C   C498      1.0  0.08327  0.65653  0.41742  1.0000
  H   H792      1.0  0.31720  0.65315  0.99449  1.0000
  H   H793      1.0  0.27377  0.59807  0.02941  1.0000
  H   H794      1.0  0.23918  0.62070  0.00715  1.0000
  H   H795      1.0  0.29779  0.59688  0.01984  1.0000
  H   H796      1.0  0.99996  0.69359  0.41464  1.0000
  N   N51       1.0  0.25974  0.67447  0.13529  1.0000
  C   C499      1.0  0.26948  0.65514  0.13958  1.0000
  C   C500      1.0  0.26475  0.68501  0.14570  1.0000
  C   C501      1.0  0.23956  0.67562  0.14036  1.0000
  C   C502      1.0  0.26526  0.68202  0.11541  1.0000
  H   H797      1.0  0.26606  0.64681  0.13186  1.0000
  H   H798      1.0  0.26563  0.64892  0.15446  1.0000
  H   H799      1.0  0.28476  0.65376  0.13592  1.0000
  H   H800      1.0  0.25770  0.69969  0.14277  1.0000
  H   H801      1.0  0.26090  0.67963  0.16078  1.0000
  H   H802      1.0  0.27995  0.68431  0.14200  1.0000
  H   H803      1.0  0.23554  0.66771  0.13262  1.0000
  H   H804      1.0  0.23172  0.69000  0.13720  1.0000
  H   H805      1.0  0.23487  0.66997  0.15526  1.0000
  H   H806      1.0  0.25828  0.69662  0.11163  1.0000
  H   H807      1.0  0.26158  0.67441  0.10715  1.0000
  H   H808      1.0  0.00749  0.78075  0.42607  1.0000
  S   S206      1.0  0.04276  0.77882  0.43999  1.0000
  H   H809      1.0  0.36099  0.64004  0.01702  1.0000
  C   C503      1.0  0.46832  0.74556  0.13747  1.0000
  H   H810      1.0  0.28141  0.59814  0.05864  1.0000
  H   H811      1.0  0.36799  0.70454  0.07962  1.0000
  H   H812      1.0  0.47141  0.73291  0.13218  1.0000
  H   H813      1.0  0.40830  0.68689  0.07031  1.0000
  S   S207      1.0  0.00763  0.62503  0.37243  1.0000
  H   H814      1.0  0.08160  0.66501  0.44923  1.0000
  H   H815      1.0  0.18497  0.62157  0.04101  1.0000
  H   H816      1.0  0.09573  0.68729  0.40009  1.0000
  H   H817      1.0  0.22612  0.59333  0.01539  1.0000
  C   C504      1.0  0.45993  0.77849  0.13089  1.0000
  S   S208      1.0  0.02086  0.59027  0.20875  1.0000
  S   S209      1.0  0.40071  0.69380  0.01113  1.0000
  H   H818      1.0  0.01184  0.66575  0.37637  1.0000
  H   H819      1.0  0.34028  0.74744  0.03976  1.0000
  N   N52       1.0  0.21160  0.61912  0.02252  1.0000
  N   N53       1.0  0.38304  0.67771  0.07585  1.0000
  C   C505      1.0  0.33390  0.77778  0.01280  1.0000
  H   H820      1.0  0.28046  0.68119  0.11108  1.0000
  H   H821      1.0  0.38106  0.70371  0.05675  1.0000
  H   H822      1.0  0.00928  0.66360  0.48471  1.0000
  S   S210      1.0  0.13962  0.59307  0.12821  1.0000
  H   H823      1.0  0.45661  0.74466  0.14966  1.0000
  H   H824      1.0  0.00709  0.71613  0.36114  1.0000
  H   H825      1.0  0.00610  0.75926  0.45629  1.0000
  H   H826      1.0  0.38560  0.67674  0.99132  1.0000
  H   H827      1.0  0.36911  0.77922  0.00640  1.0000
  H   H828      1.0  0.19500  0.64106  0.03573  1.0000
  H   H829      1.0  0.30577  0.59420  0.04903  1.0000
  H   H830      1.0  0.17104  0.59942  0.99409  1.0000
  C   C506      1.0  0.11729  0.58873  0.13792  1.0000
  C   C507      1.0  0.16473  0.58803  0.00184  1.0000
  C   C508      1.0  0.28737  0.58841  0.02678  1.0000
  H   H831      1.0  0.07742  0.59249  0.27351  1.0000
  H   H832      1.0  0.49242  0.76305  0.11165  1.0000
  C   C509      1.0  0.35683  0.66712  0.98714  1.0000
  H   H833      1.0  0.34030  0.59035  0.02791  1.0000
  H   H834      1.0  0.47203  0.77946  0.13541  1.0000
  H   H835      1.0  0.48320  0.75056  0.10122  1.0000
  C   C510      1.0  0.99810  0.67358  0.37363  1.0000
  C   C511      1.0  0.48122  0.70794  0.94377  1.0000
  H   H836      1.0  0.09336  0.65764  0.49939  1.0000
  S   S211      1.0  0.01431  0.59792  0.71138  1.0000
  H   H837      1.0  0.00917  0.62761  0.57205  1.0000
  N   N54       1.0  0.30842  0.66761  0.89565  1.0000
  H   H838      1.0  0.48754  0.71487  0.93033  1.0000
  H   H839      1.0  0.07772  0.76273  0.51957  1.0000
  C   C512      1.0  0.07798  0.66377  0.52558  1.0000
  Fe  Fe102     1.0  0.27477  0.60708  0.96668  1.0000
  H   H840      1.0  0.33046  0.68062  0.89346  1.0000
  H   H841      1.0  0.11120  0.73619  0.50323  1.0000
  Fe  Fe103     1.0  0.29789  0.63647  0.95404  1.0000
  S   S212      1.0  0.32424  0.61598  0.94780  1.0000
  S   S213      1.0  0.29821  0.66607  0.95123  1.0000
  Fe  Fe104     1.0  0.30829  0.60381  0.93605  1.0000
  H   H842      1.0  0.28059  0.68347  0.89654  1.0000
  C   C513      1.0  0.23785  0.59465  0.93129  1.0000
  H   H843      1.0  0.30862  0.69608  0.89123  1.0000
  S   S214      1.0  0.28265  0.62597  0.93956  1.0000
  C   C514      1.0  0.46110  0.74632  0.96290  1.0000
  Fe  Fe105     1.0  0.38382  0.70668  0.94877  1.0000
  S   S215      1.0  0.41003  0.69292  0.95878  1.0000
  S   S216      1.0  0.37537  0.68790  0.93634  1.0000
  S   S217      1.0  0.40877  0.73186  0.96822  1.0000
  Fe  Fe106     1.0  0.41954  0.71873  0.94405  1.0000
  S   S218      1.0  0.44956  0.71745  0.93075  1.0000
  H   H844      1.0  0.02962  0.65117  0.71128  1.0000
  C   C515      1.0  0.24579  0.59794  0.94399  1.0000
  S   S219      1.0  0.39433  0.73186  0.93211  1.0000
  H   H845      1.0  0.42582  0.75653  0.98072  1.0000
  Fe  Fe107     1.0  0.04647  0.69562  0.57209  1.0000
  S   S220      1.0  0.04650  0.72488  0.55814  1.0000
  Fe  Fe108     1.0  0.02549  0.70440  0.60912  1.0000
  S   S221      1.0  0.02312  0.73469  0.59857  1.0000
  S   S222      1.0  0.01300  0.69154  0.63807  1.0000
  Fe  Fe109     1.0  0.01705  0.73023  0.57366  1.0000
  C   C516      1.0  0.99971  0.70451  0.53710  1.0000
  Fe  Fe110     1.0  0.05271  0.72678  0.58404  1.0000
  S   S223      1.0  0.07430  0.74128  0.58334  1.0000
  S   S224      1.0  0.01644  0.70079  0.58561  1.0000
  S   S225      1.0  0.05569  0.69686  0.59663  1.0000
  C   C517      1.0  0.48314  0.69197  0.97510  1.0000
  H   H846      1.0  0.04348  0.76409  0.52116  1.0000
  H   H847      1.0  0.46208  0.75942  0.95279  1.0000
  H   H848      1.0  0.04798  0.70385  0.53156  1.0000
  H   H849      1.0  0.01772  0.71701  0.54406  1.0000
  H   H850      1.0  0.05691  0.63040  0.67203  1.0000
  N   N55       1.0  0.01060  0.64784  0.58541  1.0000
  H   H851      1.0  0.01717  0.75147  0.52271  1.0000
  C   C518      1.0  0.06628  0.76504  0.57890  1.0000
  H   H852      1.0  0.10059  0.77537  0.52584  1.0000
  H   H853      1.0  0.40233  0.77404  0.95938  1.0000
  C   C519      1.0  0.00217  0.59773  0.81256  1.0000
  N   N56       1.0  0.10273  0.74679  0.52787  1.0000
  H   H854      1.0  0.04580  0.76510  0.56476  1.0000
  C   C520      1.0  0.22200  0.58731  0.93724  1.0000
  C   C521      1.0  0.00970  0.65795  0.65979  1.0000
  H   H855      1.0  0.99728  0.76581  0.51449  1.0000
  C   C522      1.0  0.07455  0.77580  0.58458  1.0000
  C   C523      1.0  0.46266  0.70699  0.94756  1.0000
  C   C524      1.0  0.45440  0.69853  0.96513  1.0000
  H   H856      1.0  0.08541  0.76936  0.59209  1.0000
  Fe  Fe111     1.0  0.31295  0.59915  0.97467  1.0000
  C   C525      1.0  0.31793  0.64977  0.90508  1.0000
  H   H857      1.0  0.44004  0.69799  0.96838  1.0000
  H   H858      1.0  0.04719  0.67617  0.69643  1.0000
  H   H859      1.0  0.47504  0.73716  0.96095  1.0000
  C   C526      1.0  0.31974  0.67152  0.94870  1.0000
  C   C527      1.0  0.33629  0.66041  0.94142  1.0000
  C   C528      1.0  0.35312  0.66569  0.93784  1.0000
  C   C529      1.0  0.35372  0.68197  0.94180  1.0000
  C   C530      1.0  0.33728  0.69300  0.94948  1.0000
  C   C531      1.0  0.32030  0.68786  0.95272  1.0000
  H   H860      1.0  0.33622  0.64801  0.93796  1.0000
  H   H861      1.0  0.36577  0.65715  0.93182  1.0000
  H   H862      1.0  0.33758  0.70567  0.95249  1.0000
  H   H863      1.0  0.30756  0.69664  0.95824  1.0000
  H   H864      1.0  0.00092  0.62286  0.59664  1.0000
  C   C532      1.0  0.04646  0.58795  0.76849  1.0000
  S   S226      1.0  0.04014  0.61522  0.73820  1.0000
  H   H865      1.0  0.01839  0.75874  0.49848  1.0000
  S   S227      1.0  0.03398  0.60527  0.65695  1.0000
  H   H866      1.0  0.39982  0.64071  0.97647  1.0000
  H   H867      1.0  0.04100  0.67900  0.67493  1.0000
  C   C533      1.0  0.03467  0.63877  0.63419  1.0000
  C   C534      1.0  0.01264  0.76320  0.51179  1.0000
  C   C535      1.0  0.03356  0.64769  0.69750  1.0000
  H   H868      1.0  0.12394  0.72659  0.53982  1.0000
  C   C536      1.0  0.03003  0.65794  0.62977  1.0000
  C   C537      1.0  0.05126  0.67101  0.68351  1.0000
  H   H869      1.0  0.08383  0.65066  0.53337  1.0000
  H   H870      1.0  0.33320  0.64745  0.90004  1.0000
  S   S228      1.0  0.32119  0.59716  0.90838  1.0000
  C   C538      1.0  0.02729  0.62919  0.65161  1.0000
  H   H871      1.0  0.10693  0.71748  0.53535  1.0000
  C   C539      1.0  0.10902  0.72904  0.53983  1.0000
  H   H872      1.0  0.30738  0.65691  0.87326  1.0000
  C   C540      1.0  0.31225  0.66802  0.87579  1.0000
  H   H873      1.0  0.05718  0.71072  0.49756  1.0000
  H   H874      1.0  0.06490  0.67420  0.67587  1.0000
  H   H875      1.0  0.25807  0.60348  0.93919  1.0000
  H   H876      1.0  0.04773  0.65309  0.66060  1.0000
  H   H877      1.0  0.07448  0.74949  0.54267  1.0000
  S   S229      1.0  0.24721  0.59908  0.97872  1.0000
  C   C541      1.0  0.05225  0.77337  0.56913  1.0000
  H   H878      1.0  0.12850  0.74471  0.50791  1.0000
  Fe  Fe112     1.0  0.03846  0.59471  0.72361  1.0000
  H   H879      1.0  0.03687  0.64946  0.58860  1.0000
  C   C542      1.0  0.06262  0.59016  0.79035  1.0000
  C   C543      1.0  0.05678  0.61559  0.76484  1.0000
  H   H880      1.0  0.07143  0.64670  0.66222  1.0000
  H   H881      1.0  0.30521  0.68125  0.86821  1.0000
  H   H882      1.0  0.03326  0.63303  0.69979  1.0000
  C   C544      1.0  0.01768  0.66757  0.64265  1.0000
  S   S230      1.0  0.36999  0.71830  0.97398  1.0000
  C   C545      1.0  0.46467  0.69081  0.97877  1.0000
  C   C546      1.0  0.07576  0.68458  0.49618  1.0000
  H   H883      1.0  0.24404  0.59781  0.91678  1.0000
  H   H884      1.0  0.01447  0.77498  0.54105  1.0000
  C   C547      1.0  0.10552  0.76175  0.53442  1.0000
  C   C548      1.0  0.28828  0.67017  0.90332  1.0000
  H   H885      1.0  0.01471  0.59855  0.80123  1.0000
  H   H886      1.0  0.31495  0.64896  0.92009  1.0000
  H   H887      1.0  0.31337  0.63821  0.90307  1.0000
  C   C549      1.0  0.08338  0.66773  0.50637  1.0000
  C   C550      1.0  0.03002  0.63946  0.58669  1.0000
  H   H888      1.0  0.09777  0.76188  0.54886  1.0000
  H   H889      1.0  0.32734  0.66613  0.86962  1.0000
  Fe  Fe113     1.0  0.38253  0.74254  0.95820  1.0000
  H   H890      1.0  0.38019  0.64481  0.96639  1.0000
  H   H891      1.0  0.31208  0.68278  0.91328  1.0000
  H   H892      1.0  0.28271  0.65910  0.90168  1.0000
  H   H893      1.0  0.00674  0.66593  0.60339  1.0000
  H   H894      1.0  0.04450  0.63138  0.62431  1.0000
  H   H895      1.0  0.35948  0.68013  0.97759  1.0000
  H   H896      1.0  0.04614  0.76978  0.49668  1.0000
  S   S231      1.0  0.05894  0.67145  0.55886  1.0000
  S   S232      1.0  0.36473  0.77028  0.96163  1.0000
  C   C551      1.0  0.38682  0.65057  0.97393  1.0000
  H   H897      1.0  0.43737  0.77522  0.97355  1.0000
  C   C552      1.0  0.06530  0.67682  0.53475  1.0000
  H   H898      1.0  0.06197  0.64516  0.71214  1.0000
  C   C553      1.0  0.06293  0.69761  0.50531  1.0000
  H   H899      1.0  0.01060  0.69313  0.53332  1.0000
  H   H900      1.0  0.46873  0.77050  0.97776  1.0000
  N   N57       1.0  0.05196  0.65120  0.68737  1.0000
  C   C554      1.0  0.05783  0.69378  0.52460  1.0000
  C   C555      1.0  0.23766  0.59438  0.96274  1.0000
  H   H901      1.0  0.03627  0.66527  0.61652  1.0000
  H   H902      1.0  0.07977  0.64350  0.69158  1.0000
  H   H903      1.0  0.28494  0.67000  0.91831  1.0000
  C   C556      1.0  0.31521  0.68242  0.89846  1.0000
  H   H904      1.0  0.99989  0.66540  0.66964  1.0000
  H   H905      1.0  0.06655  0.62611  0.70173  1.0000
  H   H906      1.0  0.45153  0.74022  0.95920  1.0000
  C   C557      1.0  0.06572  0.64109  0.69865  1.0000
  H   H907      1.0  0.01791  0.67286  0.56866  1.0000
  C   C558      1.0  0.05726  0.64505  0.66982  1.0000
  H   H908      1.0  0.10124  0.72842  0.55433  1.0000
  C   C559      1.0  0.06399  0.60789  0.78065  1.0000
  C   C560      1.0  0.03919  0.77492  0.50947  1.0000
  H   H909      1.0  0.99964  0.60945  0.81919  1.0000
  C   C561      1.0  0.01466  0.63877  0.66438  1.0000
  H   H910      1.0  0.02263  0.65591  0.68996  1.0000
  H   H911      1.0  0.12036  0.76040  0.53401  1.0000
  H   H912      1.0  0.10932  0.76032  0.49948  1.0000
  H   H913      1.0  0.03099  0.62760  0.59853  1.0000
  C   C562      1.0  0.00375  0.71800  0.54322  1.0000
  H   H914      1.0  0.32236  0.62694  0.98045  1.0000
  H   H915      1.0  0.01655  0.65756  0.55602  1.0000
  H   H916      1.0  0.00864  0.63145  0.67772  1.0000
  C   C563      1.0  0.04825  0.60555  0.75855  1.0000
  H   H917      1.0  0.05805  0.62926  0.75734  1.0000
  C   C564      1.0  0.08287  0.74945  0.52845  1.0000
  H   H918      1.0  0.07077  0.61568  0.78532  1.0000
  C   C565      1.0  0.49133  0.70076  0.95764  1.0000
  C   C566      1.0  0.39240  0.78541  0.96436  1.0000
  C   C567      1.0  0.01011  0.66277  0.56886  1.0000
  H   H919      1.0  0.01898  0.58931  0.84072  1.0000
  H   H920      1.0  0.03830  0.63472  0.57395  1.0000
  H   H921      1.0  0.39075  0.66313  0.96453  1.0000
  C   C568      1.0  0.11342  0.74697  0.50880  1.0000
  N   N58       1.0  0.01892  0.77953  0.51166  1.0000
  H   H922      1.0  0.08014  0.73840  0.52369  1.0000
  H   H923      1.0  0.10285  0.59089  0.94660  1.0000
  N   N59       1.0  0.45453  0.74911  0.98193  1.0000
  S   S233      1.0  0.28706  0.61998  0.98167  1.0000
  H   H924      1.0  0.00104  0.64425  0.61477  1.0000
  H   H925      1.0  0.34961  0.66091  0.98063  1.0000
  C   C569      1.0  0.22171  0.58713  0.96876  1.0000
  C   C570      1.0  0.00162  0.63394  0.58403  1.0000
  Fe  Fe114     1.0  0.39721  0.70697  0.98227  1.0000
  S   S234      1.0  0.05946  0.59117  0.69761  1.0000
  Fe  Fe115     1.0  0.03556  0.59161  0.68629  1.0000
  C   C571      1.0  0.00064  0.65514  0.60204  1.0000
  C   C572      1.0  0.43639  0.76203  0.98352  1.0000
  H   H926      1.0  0.99773  0.59831  0.68137  1.0000
  C   C573      1.0  0.49626  0.77858  0.94780  1.0000
  H   H927      1.0  0.48196  0.74784  0.98447  1.0000
  H   H928      1.0  0.99696  0.60992  0.64898  1.0000
  C   C574      1.0  0.01019  0.78555  0.52917  1.0000
  C   C575      1.0  0.22262  0.93456  0.45652  1.0000
  C   C576      1.0  0.31624  0.95711  0.41977  1.0000
  H   H929      1.0  0.45726  0.89333  0.19636  1.0000
  C   C577      1.0  0.36825  0.97836  0.42530  1.0000
  S   S235      1.0  0.39707  0.95841  0.37474  1.0000
  H   H930      1.0  0.44410  0.91700  0.07272  1.0000
  N   N60       1.0  0.45282  0.89494  0.22454  1.0000
  H   H931      1.0  0.49353  0.97784  0.34924  1.0000
  C   C578      1.0  0.48617  0.91408  0.16985  1.0000
  Fe  Fe116     1.0  0.44526  0.83892  0.13037  1.0000
  S   S236      1.0  0.46435  0.83602  0.10332  1.0000
  C   C579      1.0  0.42189  0.91394  0.30931  1.0000
  Fe  Fe117     1.0  0.45486  0.87480  0.12987  1.0000
  S   S237      1.0  0.47466  0.87473  0.10244  1.0000
  S   S238      1.0  0.44693  0.89901  0.14377  1.0000
  Fe  Fe118     1.0  0.45324  0.86594  0.09417  1.0000
  S   S239      1.0  0.44352  0.87882  0.06757  1.0000
  H   H932      1.0  0.41950  0.81076  0.06746  1.0000
  S   S240      1.0  0.43250  0.86832  0.12069  1.0000
  S   S241      1.0  0.46583  0.84536  0.14212  1.0000
  H   H933      1.0  0.35428  0.92323  0.42552  1.0000
  H   H934      1.0  0.21948  0.92428  0.45160  1.0000
  S   S242      1.0  0.46745  0.82710  0.01045  1.0000
  C   C580      1.0  0.45951  0.94426  0.39931  1.0000
  C   C581      1.0  0.49218  0.89903  0.16135  1.0000
  C   C582      1.0  0.39562  0.81222  0.04764  1.0000
  C   C583      1.0  0.34141  0.93338  0.42959  1.0000
  C   C584      1.0  0.43474  0.91006  0.29342  1.0000
  C   C585      1.0  0.06044  0.80418  0.46884  1.0000
  H   H935      1.0  0.44850  0.95046  0.27695  1.0000
  H   H936      1.0  0.44341  0.90124  0.09426  1.0000
  C   C586      1.0  0.07429  0.79050  0.47595  1.0000
  H   H937      1.0  0.43722  0.89681  0.29021  1.0000
  C   C587      1.0  0.44446  0.92312  0.28180  1.0000
  H   H938      1.0  0.41446  0.90374  0.31824  1.0000
  H   H939      1.0  0.48459  0.96318  0.29574  1.0000
  H   H940      1.0  0.35554  0.79887  0.01522  1.0000
  H   H941      1.0  0.46351  0.93638  0.17618  1.0000
  H   H942      1.0  0.35965  0.94409  0.39471  1.0000
  C   C588      1.0  0.48483  0.94109  0.41359  1.0000
  H   H943      1.0  0.42836  0.78849  0.04694  1.0000
  S   S243      1.0  0.46097  0.91687  0.26262  1.0000
  H   H944      1.0  0.32242  0.93877  0.39324  1.0000
  N   N61       1.0  0.33327  0.94387  0.41363  1.0000
  H   H945      1.0  0.14645  0.95612  0.44946  1.0000
  C   C589      1.0  0.45050  0.86481  0.05128  1.0000
  C   C590      1.0  0.44249  0.86983  0.03591  1.0000
  C   C591      1.0  0.44779  0.85863  0.02299  1.0000
  C   C592      1.0  0.46111  0.84232  0.02544  1.0000
  C   C593      1.0  0.46921  0.83744  0.04068  1.0000
  C   C594      1.0  0.46401  0.84866  0.05348  1.0000
  H   H946      1.0  0.43215  0.88239  0.03400  1.0000
  H   H947      1.0  0.44159  0.86264  0.01116  1.0000
  H   H948      1.0  0.47962  0.82494  0.04261  1.0000
  H   H949      1.0  0.47072  0.84491  0.06487  1.0000
  S   S244      1.0  0.40336  0.93464  0.33454  1.0000
  H   H950      1.0  0.40973  0.83424  0.05896  1.0000
  C   C595      1.0  0.46228  0.90459  0.15369  1.0000
  C   C596      1.0  0.45627  0.91972  0.16210  1.0000
  C   C597      1.0  0.46815  0.92447  0.17013  1.0000
  C   C598      1.0  0.41636  0.81358  0.13014  1.0000
  H   H951      1.0  0.44240  0.92792  0.16227  1.0000
  S   S245      1.0  0.06776  0.84913  0.48207  1.0000
  H   H952      1.0  0.40027  0.94888  0.08855  1.0000
  C   C599      1.0  0.41481  0.92163  0.11383  1.0000
  S   S246      1.0  0.46790  0.95114  0.21467  1.0000
  H   H953      1.0  0.16929  0.91086  0.47267  1.0000
  H   H954      1.0  0.39984  0.92720  0.11876  1.0000
  H   H955      1.0  0.34102  0.96219  0.38780  1.0000
  H   H956      1.0  0.39097  0.80839  0.03710  1.0000
  H   H957      1.0  0.16823  0.94042  0.45150  1.0000
  C   C600      1.0  0.24320  0.95404  0.45430  1.0000
  H   H958      1.0  0.42304  0.95096  0.08812  1.0000
  H   H959      1.0  0.39684  0.83599  0.09347  1.0000
  H   H960      1.0  0.45685  0.94031  0.42843  1.0000
  N   N62       1.0  0.41408  0.81658  0.04042  1.0000
  H   H961      1.0  0.47248  0.98499  0.38568  1.0000
  C   C601      1.0  0.42862  0.94396  0.30236  1.0000
  C   C602      1.0  0.44121  0.94023  0.28606  1.0000
  C   C603      1.0  0.23881  0.94104  0.44782  1.0000
  H   H962      1.0  0.45126  0.92207  0.20778  1.0000
  S   S247      1.0  0.43874  0.95241  0.34818  1.0000
  H   H963      1.0  0.47526  0.89786  0.23414  1.0000
  C   C604      1.0  0.47162  0.94593  0.38203  1.0000
  H   H964      1.0  0.41318  0.78681  0.14609  1.0000
  C   C605      1.0  0.34677  0.95370  0.39988  1.0000
  H   H965      1.0  0.00272  0.79943  0.43705  1.0000
  H   H966      1.0  0.47967  0.87742  0.22585  1.0000
  Fe  Fe119     1.0  0.48390  0.84486  0.11394  1.0000
  H   H967      1.0  0.42392  0.79598  0.02426  1.0000
  C   C606      1.0  0.41948  0.82182  0.05482  1.0000
  C   C607      1.0  0.41348  0.83186  0.02421  1.0000
  H   H968      1.0  0.44823  0.92303  0.09193  1.0000
  H   H969      1.0  0.41794  0.90710  0.12120  1.0000
  H   H970      1.0  0.42280  0.92890  0.11832  1.0000
  C   C608      1.0  0.34949  0.98150  0.43385  1.0000
  Fe  Fe120     1.0  0.49580  0.93679  0.20101  1.0000
  H   H971      1.0  0.34118  0.92106  0.40045  1.0000
  C   C609      1.0  0.41528  0.94282  0.08449  1.0000
  S   S248      1.0  0.42962  0.81652  0.14394  1.0000
  S   S249      1.0  0.48849  0.95854  0.24338  1.0000
  H   H972      1.0  0.41302  0.91368  0.07335  1.0000
  H   H973      1.0  0.33157  0.92590  0.44036  1.0000
  H   H974      1.0  0.40364  0.84445  0.02782  1.0000
  C   C610      1.0  0.23105  0.96092  0.46921  1.0000
  H   H975      1.0  0.45620  0.87206  0.21254  1.0000
  C   C611      1.0  0.41895  0.93076  0.31397  1.0000
  H   H976      1.0  0.44985  0.87098  0.24598  1.0000
  H   H977      1.0  0.41892  0.94455  0.06926  1.0000
  H   H978      1.0  0.40909  0.82845  0.01324  1.0000
  C   C612      1.0  0.43977  0.91595  0.08786  1.0000
  H   H979      1.0  0.42619  0.95709  0.30583  1.0000
  Fe  Fe121     1.0  0.42562  0.95890  0.37588  1.0000
  H   H980      1.0  0.39410  0.91821  0.09248  1.0000
  N   N63       1.0  0.41976  0.92336  0.09367  1.0000
  H   H981      1.0  0.35092  0.96298  0.40583  1.0000
  H   H982      1.0  0.41678  0.83982  0.11173  1.0000
  H   H983      1.0  0.13524  0.93230  0.44246  1.0000
  H   H984      1.0  0.34515  0.94252  0.43615  1.0000
  C   C613      1.0  0.46620  0.94164  0.41507  1.0000
  C   C614      1.0  0.48030  0.89425  0.15337  1.0000
  N   N64       1.0  0.48679  0.93434  0.30687  1.0000
  Fe  Fe122     1.0  0.40980  0.95503  0.34584  1.0000
  C   C615      1.0  0.40073  0.82506  0.10468  1.0000
  C   C616      1.0  0.21466  0.95466  0.47772  1.0000
  C   C617      1.0  0.44441  0.91472  0.22127  1.0000
  C   C618      1.0  0.42765  0.80034  0.03505  1.0000
  C   C619      1.0  0.21055  0.94128  0.47153  1.0000
  Fe  Fe123     1.0  0.27644  0.96626  0.46435  1.0000
  C   C620      1.0  0.41197  0.82728  0.11507  1.0000
  C   C621      1.0  0.15468  0.91554  0.47970  1.0000
  C   C622      1.0  0.41004  0.79736  0.13432  1.0000
  C   C623      1.0  0.44379  0.88591  0.24294  1.0000
  Fe  Fe124     1.0  0.43268  0.98270  0.33795  1.0000
  C   C624      1.0  0.40928  0.91300  0.08845  1.0000
  H   H985      1.0  0.46653  0.94775  0.36985  1.0000
  H   H986      1.0  0.41237  0.89823  0.09512  1.0000
  H   H987      1.0  0.15705  0.91664  0.44429  1.0000
  H   H988      1.0  0.11732  0.94785  0.46852  1.0000
  H   H989      1.0  0.47149  0.95749  0.31869  1.0000
  H   H990      1.0  0.42943  0.91741  0.22146  1.0000
  H   H991      1.0  0.45630  0.79128  0.12063  1.0000
  H   H992      1.0  0.31018  0.96597  0.40803  1.0000
  C   C625      1.0  0.47616  0.95344  0.30518  1.0000
  C   C626      1.0  0.05123  0.80065  0.45732  1.0000
  C   C627      1.0  0.32865  0.93123  0.40529  1.0000
  C   C628      1.0  0.47279  0.89215  0.22359  1.0000
  H   H993      1.0  0.13584  0.91033  0.45785  1.0000
  H   H994      1.0  0.05682  0.81751  0.47217  1.0000
  S   S250      1.0  0.43596  0.94558  0.40165  1.0000
  S   S251      1.0  0.30168  0.94547  0.47059  1.0000
  H   H995      1.0  0.23402  0.97146  0.47384  1.0000
  Fe  Fe125     1.0  0.31295  0.96942  0.46929  1.0000
  C   C629      1.0  0.39941  0.79484  0.12346  1.0000
  H   H996      1.0  0.24810  0.93576  0.43624  1.0000
  H   H997      1.0  0.42728  0.83522  0.01817  1.0000
  H   H998      1.0  0.04061  0.81133  0.45176  1.0000
  H   H999      1.0  0.39579  0.80058  0.05969  1.0000
  C   C630      1.0  0.49352  0.92990  0.28847  1.0000
  N   N65       1.0  0.14422  0.92978  0.46711  1.0000
  H   H1000     1.0  0.46255  0.92324  0.31332  1.0000
  Fe  Fe126     1.0  0.48252  0.97233  0.21554  1.0000
  C   C631      1.0  0.39442  0.80886  0.10884  1.0000
  S   S252      1.0  0.26397  0.96139  0.44371  1.0000
  S   S253      1.0  0.37986  0.80671  0.09593  1.0000
  Fe  Fe127     1.0  0.47680  0.93619  0.24107  1.0000
  H   H1001     1.0  0.31852  0.92355  0.41531  1.0000
  C   C632      1.0  0.49043  0.94488  0.38060  1.0000
  H   H1002     1.0  0.11745  0.92548  0.48291  1.0000
  C   C633      1.0  0.14304  0.92193  0.45224  1.0000
  C   C634      1.0  0.12536  0.93652  0.47737  1.0000
  H   H1003     1.0  0.48245  0.90731  0.32012  1.0000
  C   C635      1.0  0.45029  0.88702  0.21035  1.0000
  C   C636      1.0  0.47486  0.92183  0.31884  1.0000
  S   S254      1.0  0.19060  0.93250  0.48231  1.0000
  H   H1004     1.0  0.32853  0.79263  0.00785  1.0000
  H   H1005     1.0  0.49270  0.81091  0.14032  1.0000
  H   H1006     1.0  0.44571  0.92105  0.23197  1.0000
  H   H1007     1.0  0.46975  0.92458  0.33293  1.0000
  H   H1008     1.0  0.42869  0.88781  0.24417  1.0000
  H   H1009     1.0  0.47998  0.89905  0.21002  1.0000
  H   H1010     1.0  0.37833  0.96902  0.43275  1.0000
  C   C637      1.0  0.15384  0.94508  0.45909  1.0000
  H   H1011     1.0  0.31898  0.96616  0.42713  1.0000
  S   S255      1.0  0.34288  0.96972  0.45655  1.0000
  H   H1012     1.0  0.32695  0.79683  0.03902  1.0000
  H   H1013     1.0  0.44546  0.89165  0.25392  1.0000
  H   H1014     1.0  0.38862  0.98395  0.40040  1.0000
  H   H1015     1.0  0.46365  0.95554  0.29975  1.0000
  H   H1016     1.0  0.30539  0.95009  0.42941  1.0000
  H   H1017     1.0  0.44178  0.80312  0.02951  1.0000
  H   H1018     1.0  0.48507  0.88272  0.14680  1.0000
  H   H1019     1.0  0.43540  0.88925  0.21032  1.0000
  H   H1020     1.0  0.38506  0.82397  0.05234  1.0000
  H   H1021     1.0  0.15504  0.95125  0.46994  1.0000
  H   H1022     1.0  0.43354  0.82481  0.05001  1.0000
  H   H1023     1.0  0.02028  0.79037  0.48279  1.0000
  H   H1024     1.0  0.48980  0.93948  0.42582  1.0000
  S   S256      1.0  0.40452  0.98499  0.33347  1.0000
  H   H1025     1.0  0.48186  0.93132  0.28197  1.0000
  H   H1026     1.0  0.14843  0.90337  0.48527  1.0000
  S   S257      1.0  0.43732  0.83459  0.94272  1.0000
  H   H1027     1.0  0.25969  0.89980  0.53176  1.0000
  Fe  Fe128     1.0  0.44933  0.85557  0.94757  1.0000
  S   S258      1.0  0.45967  0.87742  0.92381  1.0000
  H   H1028     1.0  0.49464  0.82167  0.87422  1.0000
  Fe  Fe129     1.0  0.42208  0.83251  0.97209  1.0000
  H   H1029     1.0  0.25119  0.93001  0.51194  1.0000
  H   H1030     1.0  0.42767  0.98459  0.74028  1.0000
  H   H1031     1.0  0.44922  0.92979  0.87298  1.0000
  S   S259      1.0  0.04709  0.86493  0.51976  1.0000
  C   C638      1.0  0.46801  0.95816  0.74874  1.0000
  S   S260      1.0  0.38267  0.97911  0.80624  1.0000
  H   H1032     1.0  0.44652  0.95899  0.67486  1.0000
  H   H1033     1.0  0.99850  0.79807  0.49745  1.0000
  H   H1034     1.0  0.46384  0.83748  0.88900  1.0000
  H   H1035     1.0  0.24216  0.88786  0.54581  1.0000
  Fe  Fe130     1.0  0.40877  0.97519  0.81575  1.0000
  S   S261      1.0  0.38406  0.94579  0.73994  1.0000
  Fe  Fe131     1.0  0.33555  0.96196  0.70098  1.0000
  C   C639      1.0  0.06858  0.79486  0.58084  1.0000
  S   S262      1.0  0.32124  0.94471  0.69294  1.0000
  C   C640      1.0  0.46710  0.95866  0.76692  1.0000
  H   H1036     1.0  0.44831  0.92425  0.71857  1.0000
  S   S263      1.0  0.36651  0.95360  0.69595  1.0000
  Fe  Fe132     1.0  0.15052  0.97660  0.52319  1.0000
  C   C641      1.0  0.39847  0.79901  0.96858  1.0000
  S   S264      1.0  0.08261  0.82954  0.51977  1.0000
  H   H1037     1.0  0.12568  0.94172  0.48930  1.0000
  C   C642      1.0  0.04673  0.79251  0.56482  1.0000
  H   H1038     1.0  0.35631  0.91436  0.85908  1.0000
  C   C643      1.0  0.27375  0.98034  0.68258  1.0000
  H   H1039     1.0  0.39195  0.93716  0.82486  1.0000
  Fe  Fe133     1.0  0.42220  0.95971  0.85153  1.0000
  Fe  Fe134     1.0  0.13343  0.94334  0.53036  1.0000
  S   S265      1.0  0.13708  0.95931  0.54908  1.0000
  S   S266      1.0  0.10649  0.93517  0.53269  1.0000
  Fe  Fe135     1.0  0.17201  0.94376  0.50649  1.0000
  S   S267      1.0  0.17912  0.95944  0.52280  1.0000
  N   N66       1.0  0.23187  0.91494  0.53129  1.0000
  Fe  Fe136     1.0  0.16552  0.94109  0.54728  1.0000
  S   S268      1.0  0.18188  0.92863  0.56926  1.0000
  C   C644      1.0  0.48041  0.92622  0.77310  1.0000
  S   S269      1.0  0.08498  0.79428  0.49146  1.0000
  S   S270      1.0  0.16077  0.92366  0.53095  1.0000
  S   S271      1.0  0.14441  0.96239  0.50461  1.0000
  Fe  Fe137     1.0  0.24770  0.97532  0.63722  1.0000
  H   H1040     1.0  0.07488  0.80310  0.58543  1.0000
  H   H1041     1.0  0.49352  0.98332  0.76364  1.0000
  H   H1042     1.0  0.08288  0.88652  0.57112  1.0000
  S   S272      1.0  0.24948  0.97358  0.58704  1.0000
  N   N67       1.0  0.48959  0.83663  0.89531  1.0000
  Fe  Fe138     1.0  0.25955  0.95104  0.60941  1.0000
  S   S273      1.0  0.27242  0.92299  0.60389  1.0000
  H   H1043     1.0  0.37924  0.91967  0.82954  1.0000
  S   S274      1.0  0.43196  0.85548  0.97634  1.0000
  S   S275      1.0  0.23369  0.95638  0.63127  1.0000
  C   C645      1.0  0.34941  0.97383  0.63043  1.0000
  C   C646      1.0  0.99723  0.84990  0.49670  1.0000
  H   H1044     1.0  0.35478  0.96805  0.76209  1.0000
  C   C647      1.0  0.38346  0.95432  0.75894  1.0000
  Fe  Fe139     1.0  0.28863  0.94699  0.49988  1.0000
  H   H1045     1.0  0.23375  0.97183  0.54256  1.0000
  S   S276      1.0  0.28723  0.92043  0.52017  1.0000
  C   C648      1.0  0.39931  0.95734  0.78084  1.0000
  H   H1046     1.0  0.46723  0.82356  0.91095  1.0000
  H   H1047     1.0  0.10399  0.84139  0.55844  1.0000
  H   H1048     1.0  0.33413  0.97530  0.60245  1.0000
  Fe  Fe140     1.0  0.05320  0.83571  0.53480  1.0000
  N   N68       1.0  0.37424  0.93317  0.85184  1.0000
  C   C649      1.0  0.27720  0.92256  0.58047  1.0000
  C   C650      1.0  0.27976  0.93821  0.56675  1.0000
  C   C651      1.0  0.28283  0.93773  0.54814  1.0000
  C   C652      1.0  0.28380  0.92146  0.54323  1.0000
  C   C653      1.0  0.28166  0.90572  0.55689  1.0000
  C   C654      1.0  0.27835  0.90628  0.57546  1.0000
  H   H1049     1.0  0.27991  0.95053  0.57043  1.0000
  H   H1050     1.0  0.28473  0.94987  0.53765  1.0000
  H   H1051     1.0  0.28261  0.89305  0.55315  1.0000
  H   H1052     1.0  0.27661  0.89411  0.58599  1.0000
  S   S277      1.0  0.30235  0.96902  0.49942  1.0000
  S   S278      1.0  0.47497  0.94369  0.80096  1.0000
  C   C655      1.0  0.05476  0.80322  0.57087  1.0000
  H   H1053     1.0  0.48681  0.85575  0.86977  1.0000
  S   S279      1.0  0.04287  0.82447  0.51691  1.0000
  C   C656      1.0  0.49675  0.83506  0.91163  1.0000
  Fe  Fe141     1.0  0.07622  0.85821  0.50333  1.0000
  S   S280      1.0  0.24771  0.98229  0.66366  1.0000
  H   H1054     1.0  0.34616  0.80342  0.97314  1.0000
  H   H1055     1.0  0.10349  0.86870  0.56925  1.0000
  Fe  Fe142     1.0  0.44952  0.96118  0.81499  1.0000
  Fe  Fe143     1.0  0.07179  0.82110  0.50016  1.0000
  C   C657      1.0  0.18558  0.94506  0.57874  1.0000
  C   C658      1.0  0.19969  0.94040  0.58842  1.0000
  C   C659      1.0  0.20314  0.95353  0.59561  1.0000
  C   C660      1.0  0.19216  0.97125  0.59354  1.0000
  H   H1056     1.0  0.00320  0.84074  0.52367  1.0000
  C   C661      1.0  0.17480  0.96286  0.57642  1.0000
  H   H1057     1.0  0.20807  0.92665  0.59030  1.0000
  H   H1058     1.0  0.21426  0.94988  0.60282  1.0000
  H   H1059     1.0  0.01409  0.79827  0.52920  1.0000
  H   H1060     1.0  0.48961  0.84678  0.91842  1.0000
  S   S281      1.0  0.04820  0.82710  0.56538  1.0000
  H   H1061     1.0  0.08608  0.84557  0.58978  1.0000
  H   H1062     1.0  0.43918  0.91433  0.70558  1.0000
  C   C662      1.0  0.30029  0.95509  0.68574  1.0000
  C   C663      1.0  0.29004  0.97215  0.68919  1.0000
  Fe  Fe144     1.0  0.36607  0.98292  0.68276  1.0000
  C   C664      1.0  0.26797  0.97176  0.67207  1.0000
  C   C665      1.0  0.27835  0.95483  0.66848  1.0000
  C   C666      1.0  0.29426  0.94637  0.67560  1.0000
  H   H1063     1.0  0.05442  0.86319  0.55772  1.0000
  C   C667      1.0  0.39944  0.95021  0.76596  1.0000
  H   H1064     1.0  0.27386  0.94803  0.66058  1.0000
  H   H1065     1.0  0.30204  0.93312  0.67301  1.0000
  S   S282      1.0  0.42518  0.94809  0.82721  1.0000
  H   H1066     1.0  0.36782  0.94343  0.82504  1.0000
  H   H1067     1.0  0.01819  0.80699  0.49573  1.0000
  C   C668      1.0  0.06343  0.87255  0.55671  1.0000
  H   H1068     1.0  0.03602  0.79899  0.55713  1.0000
  Fe  Fe145     1.0  0.46029  0.81420  0.95429  1.0000
  C   C669      1.0  0.11836  0.89000  0.51102  1.0000
  H   H1069     1.0  0.46377  0.97063  0.73929  1.0000
  H   H1070     1.0  0.05490  0.88349  0.56412  1.0000
  H   H1071     1.0  0.23791  0.92164  0.50169  1.0000
  C   C670      1.0  0.36698  0.97172  0.78241  1.0000
  H   H1072     1.0  0.42410  0.92417  0.72434  1.0000
  C   C671      1.0  0.47355  0.94273  0.77905  1.0000
  H   H1073     1.0  0.41199  0.94169  0.75974  1.0000
  S   S283      1.0  0.33232  0.96773  0.72882  1.0000
  S   S284      1.0  0.27446  0.96740  0.61764  1.0000
  C   C672      1.0  0.08558  0.90272  0.51418  1.0000
  C   C673      1.0  0.08742  0.91650  0.52172  1.0000
  C   C674      1.0  0.10475  0.91723  0.52374  1.0000
  C   C675      1.0  0.12019  0.90375  0.51859  1.0000
  H   H1074     1.0  0.09543  0.85533  0.53863  1.0000
  H   H1075     1.0  0.07226  0.90267  0.51215  1.0000
  H   H1076     1.0  0.07539  0.92689  0.52567  1.0000
  H   H1077     1.0  0.48448  0.86598  0.88864  1.0000
  C   C676      1.0  0.47483  0.94167  0.74275  1.0000
  C   C677      1.0  0.38311  0.96838  0.78886  1.0000
  S   S285      1.0  0.44806  0.97096  0.84032  1.0000
  C   C678      1.0  0.32520  0.98248  0.61345  1.0000
  C   C679      1.0  0.44530  0.89532  0.91126  1.0000
  C   C680      1.0  0.42603  0.89884  0.91691  1.0000
  C   C681      1.0  0.41515  0.91372  0.90687  1.0000
  C   C682      1.0  0.42345  0.92499  0.89103  1.0000
  C   C683      1.0  0.44269  0.92117  0.88514  1.0000
  C   C684      1.0  0.45357  0.90646  0.89530  1.0000
  H   H1078     1.0  0.41954  0.89037  0.92922  1.0000
  H   H1079     1.0  0.40027  0.91664  0.91154  1.0000
  H   H1080     1.0  0.46847  0.90387  0.89090  1.0000
  H   H1081     1.0  0.13041  0.87971  0.50689  1.0000
  C   C685      1.0  0.48074  0.92562  0.75506  1.0000
  S   S286      1.0  0.47637  0.79145  0.93978  1.0000
  Fe  Fe146     1.0  0.48027  0.96922  0.70318  1.0000
  H   H1082     1.0  0.21407  0.90490  0.52118  1.0000
  H   H1083     1.0  0.35430  0.97984  0.78892  1.0000
  C   C686      1.0  0.17791  0.97584  0.58406  1.0000
  C   C687      1.0  0.37341  0.95156  0.85428  1.0000
  C   C688      1.0  0.43621  0.92581  0.71263  1.0000
  N   N69       1.0  0.07992  0.86261  0.56430  1.0000
  S   S287      1.0  0.01361  0.86379  0.48806  1.0000
  H   H1084     1.0  0.41177  0.95442  0.78594  1.0000
  H   H1085     1.0  0.48555  0.91389  0.78241  1.0000
  H   H1086     1.0  0.22001  0.93651  0.54622  1.0000
  S   S288      1.0  0.47329  0.83500  0.95754  1.0000
  C   C689      1.0  0.36723  0.96506  0.76722  1.0000
  C   C690      1.0  0.24583  0.89755  0.53256  1.0000
  H   H1087     1.0  0.41302  0.79823  0.96677  1.0000
  H   H1088     1.0  0.36276  0.96215  0.84774  1.0000
  H   H1089     1.0  0.46161  0.84804  0.90754  1.0000
  H   H1090     1.0  0.13353  0.90396  0.52042  1.0000
  H   H1091     1.0  0.49469  0.82230  0.92200  1.0000
  H   H1092     1.0  0.45217  0.93466  0.67667  1.0000
  C   C691      1.0  0.22004  0.97939  0.54905  1.0000
  C   C692      1.0  0.35620  0.92816  0.86066  1.0000
  H   H1093     1.0  0.46133  0.94439  0.68972  1.0000
  C   C693      1.0  0.38882  0.91974  0.86045  1.0000
  C   C694      1.0  0.32779  0.95447  0.63654  1.0000
  N   N70       1.0  0.43254  0.94372  0.69989  1.0000
  C   C695      1.0  0.44885  0.94552  0.68460  1.0000
  C   C696      1.0  0.41640  0.94516  0.69240  1.0000
  C   C697      1.0  0.42865  0.95841  0.70998  1.0000
  H   H1094     1.0  0.38984  0.90567  0.85901  1.0000
  H   H1095     1.0  0.38683  0.95565  0.84789  1.0000
  H   H1096     1.0  0.32116  0.97724  0.65923  1.0000
  H   H1097     1.0  0.37039  0.95201  0.86908  1.0000
  H   H1098     1.0  0.40387  0.94390  0.70357  1.0000
  H   H1099     1.0  0.41315  0.95848  0.68272  1.0000
  H   H1100     1.0  0.41880  0.93418  0.68484  1.0000
  H   H1101     1.0  0.44042  0.95748  0.71609  1.0000
  H   H1102     1.0  0.41632  0.95763  0.72146  1.0000
  H   H1103     1.0  0.42604  0.97209  0.70084  1.0000
  S   S289      1.0  0.40943  0.94387  0.87909  1.0000
  C   C698      1.0  0.09103  0.87567  0.56343  1.0000
  C   C699      1.0  0.07400  0.85333  0.58362  1.0000
  C   C700      1.0  0.37848  0.93330  0.83199  1.0000
  H   H1104     1.0  0.22001  0.97723  0.56384  1.0000
  H   H1105     1.0  0.29457  0.97890  0.69707  1.0000
  H   H1106     1.0  0.06555  0.84340  0.58469  1.0000
  H   H1107     1.0  0.20903  0.90213  0.54585  1.0000
  Fe  Fe147     1.0  0.36348  0.96196  0.72235  1.0000
  H   H1108     1.0  0.06735  0.87905  0.54193  1.0000
  H   H1109     1.0  0.08334  0.83856  0.55420  1.0000
  H   H1110     1.0  0.40263  0.92313  0.85418  1.0000
  H   H1111     1.0  0.24727  0.89080  0.52116  1.0000
  H   H1112     1.0  0.09595  0.88264  0.54901  1.0000
  C   C701      1.0  0.46971  0.83640  0.90094  1.0000
  H   H1113     1.0  0.46225  0.97154  0.77126  1.0000
  H   H1114     1.0  0.35260  0.92797  0.87565  1.0000
  C   C702      1.0  0.09119  0.84888  0.55342  1.0000
  Fe  Fe148     1.0  0.22462  0.97994  0.60915  1.0000
  H   H1115     1.0  0.34489  0.93807  0.85451  1.0000
  S   S290      1.0  0.44396  0.81010  0.98328  1.0000
  C   C703      1.0  0.21372  0.91129  0.53251  1.0000
  H   H1116     1.0  0.06541  0.86328  0.59221  1.0000
  C   C704      1.0  0.01373  0.79439  0.49622  1.0000
  C   C705      1.0  0.23730  0.92740  0.51355  1.0000
  H   H1117     1.0  0.33699  0.94644  0.62632  1.0000
  C   C706      1.0  0.23065  0.92351  0.54655  1.0000
  S   S291      1.0  0.47703  0.94139  0.71962  1.0000
  H   H1118     1.0  0.24412  0.92656  0.54597  1.0000
  C   C707      1.0  0.36076  0.80198  0.97207  1.0000
  H   H1119     1.0  0.31061  0.98262  0.61386  1.0000
  N   N71       1.0  0.33005  0.97357  0.63146  1.0000
  H   H1120     1.0  0.38621  0.91955  0.87538  1.0000
  H   H1121     1.0  0.16387  0.96657  0.56897  1.0000
  H   H1122     1.0  0.20290  0.92410  0.53162  1.0000
  H   H1123     1.0  0.22666  0.91445  0.56017  1.0000
  H   H1124     1.0  0.20919  0.97297  0.54814  1.0000
  C   C708      1.0  0.49211  0.85402  0.88224  1.0000
  H   H1125     1.0  0.22732  0.94084  0.51236  1.0000
  H   H1126     1.0  0.35919  0.96653  0.61988  1.0000
  Fe  Fe149     1.0  0.03910  0.85314  0.50021  1.0000
  H   H1127     1.0  0.31331  0.95387  0.63733  1.0000
  H   H1128     1.0  0.33102  0.94743  0.65024  1.0000
  C   C709      1.0  0.10108  0.88943  0.50872  1.0000
  S   S292      1.0  0.49083  0.97913  0.67292  1.0000
  S   S293      1.0  0.09988  0.87265  0.49786  1.0000
  H   H1129     1.0  0.35344  0.96720  0.64386  1.0000
  H   H1130     1.0  0.04454  0.78705  0.50873  1.0000
  S   S294      1.0  0.26238  0.96605  0.49382  1.0000
  C   C710      1.0  0.31772  0.98351  0.64555  1.0000
  H   H1131     1.0  0.15511  0.92076  0.49157  1.0000
  H   H1132     1.0  0.20520  0.96031  0.48892  1.0000
  H   H1133     1.0  0.48617  0.91286  0.75049  1.0000
  H   H1134     1.0  0.30296  0.98350  0.64689  1.0000
  H   H1135     1.0  0.42059  0.98327  0.76457  1.0000
  C   C711      1.0  0.36676  0.81514  0.97679  1.0000
  C   C712      1.0  0.38560  0.81370  0.97514  1.0000
  H   H1136     1.0  0.35676  0.82660  0.98158  1.0000
  C   C713      1.0  0.37346  0.78689  0.96617  1.0000
  S   S295      1.0  0.39235  0.83012  0.98217  1.0000
  S   S296      1.0  0.40409  0.98623  0.84075  1.0000
  Fe  Fe150     1.0  0.45501  0.83297  0.98569  1.0000
  H   H1137     1.0  0.49840  0.09730  0.32711  1.0000
  H   H1138     1.0  0.58829  0.00425  0.36054  1.0000
  H   H1139     1.0  0.85508  0.13841  0.45690  1.0000
  H   H1140     1.0  0.62519  0.10609  0.39528  1.0000
  H   H1141     1.0  0.82309  0.11900  0.43214  1.0000
  H   H1142     1.0  0.63478  0.07083  0.42416  1.0000
  Fe  Fe151     1.0  0.57543  0.08132  0.35937  1.0000
  S   S297      1.0  0.59221  0.10282  0.35024  1.0000
  S   S298      1.0  0.54927  0.08221  0.38107  1.0000
  Fe  Fe152     1.0  0.60228  0.05774  0.33350  1.0000
  S   S299      1.0  0.62127  0.07705  0.32221  1.0000
  S   S300      1.0  0.61157  0.03092  0.32499  1.0000
  Fe  Fe153     1.0  0.61689  0.07912  0.35152  1.0000
  S   S301      1.0  0.63927  0.06869  0.36773  1.0000
  Fe  Fe154     1.0  0.59494  0.09854  0.32178  1.0000
  S   S302      1.0  0.58821  0.11895  0.29640  1.0000
  S   S303      1.0  0.59944  0.05817  0.36278  1.0000
  S   S304      1.0  0.57628  0.07882  0.33120  1.0000
  C   C714      1.0  0.58445  0.99441  0.39744  1.0000
  S   S305      1.0  0.55554  0.08364  0.20560  1.0000
  C   C715      1.0  0.54026  0.14700  0.15559  1.0000
  C   C716      1.0  0.75271  0.13526  0.46949  1.0000
  S   S306      1.0  0.51883  0.07608  0.23749  1.0000
  H   H1143     1.0  0.59463  0.09808  0.40387  1.0000
  Fe  Fe155     1.0  0.54274  0.08862  0.23394  1.0000
  S   S307      1.0  0.55862  0.07597  0.25638  1.0000
  Fe  Fe156     1.0  0.53056  0.07261  0.20866  1.0000
  S   S308      1.0  0.53531  0.04342  0.20619  1.0000
  H   H1144     1.0  0.59822  0.99552  0.39847  1.0000
  S   S309      1.0  0.54963  0.13425  0.17481  1.0000
  S   S310      1.0  0.78782  0.11429  0.46208  1.0000
  Fe  Fe157     1.0  0.68351  0.11118  0.41561  1.0000
  S   S311      1.0  0.66516  0.09378  0.43597  1.0000
  S   S312      1.0  0.68602  0.11422  0.38536  1.0000
  Fe  Fe158     1.0  0.69270  0.12395  0.44501  1.0000
  H   H1145     1.0  0.53716  0.04567  0.26586  1.0000
  S   S313      1.0  0.70452  0.14208  0.45470  1.0000
  Fe  Fe159     1.0  0.68720  0.08559  0.45214  1.0000
  S   S314      1.0  0.69408  0.05637  0.46659  1.0000
  Fe  Fe160     1.0  0.65436  0.11730  0.44990  1.0000
  H   H1146     1.0  0.54960  0.02209  0.37742  1.0000
  S   S315      1.0  0.70694  0.10078  0.43046  1.0000
  S   S316      1.0  0.67088  0.13571  0.42833  1.0000
  H   H1147     1.0  0.71149  0.06606  0.38292  1.0000
  C   C717      1.0  0.82057  0.14154  0.45369  1.0000
  H   H1148     1.0  0.55136  0.00832  0.24000  1.0000
  C   C718      1.0  0.66005  0.02569  0.32102  1.0000
  C   C719      1.0  0.53659  0.17508  0.13195  1.0000
  H   H1149     1.0  0.51388  0.14537  0.12759  1.0000
  Fe  Fe161     1.0  0.50458  0.10389  0.22497  1.0000
  H   H1150     1.0  0.63514  0.01790  0.35203  1.0000
  C   C720      1.0  0.73444  0.14179  0.46717  1.0000
  H   H1151     1.0  0.50321  0.01645  0.33904  1.0000
  H   H1152     1.0  0.72436  0.03299  0.38108  1.0000
  C   C721      1.0  0.67157  0.03835  0.33974  1.0000
  C   C722      1.0  0.54392  0.16443  0.14721  1.0000
  C   C723      1.0  0.64866  0.03698  0.45557  1.0000
  C   C724      1.0  0.64407  0.05147  0.46453  1.0000
  C   C725      1.0  0.65797  0.05672  0.46903  1.0000
  C   C726      1.0  0.67638  0.04725  0.46500  1.0000
  C   C727      1.0  0.68080  0.03215  0.45702  1.0000
  C   C728      1.0  0.66706  0.02743  0.45176  1.0000
  H   H1153     1.0  0.62988  0.05892  0.46754  1.0000
  H   H1154     1.0  0.52608  0.08033  0.30882  1.0000
  C   C729      1.0  0.50612  0.15621  0.19465  1.0000
  H   H1155     1.0  0.67381  0.02334  0.31151  1.0000
  C   C730      1.0  0.76466  0.12198  0.46019  1.0000
  H   H1156     1.0  0.49895  0.11815  0.33231  1.0000
  C   C731      1.0  0.50171  0.07238  0.37766  1.0000
  C   C732      1.0  0.72781  0.13445  0.45630  1.0000
  C   C733      1.0  0.73967  0.12091  0.44728  1.0000
  C   C734      1.0  0.75817  0.11493  0.44896  1.0000
  H   H1157     1.0  0.58050  0.01113  0.27003  1.0000
  H   H1158     1.0  0.55252  0.16969  0.15251  1.0000
  H   H1159     1.0  0.73473  0.11534  0.43870  1.0000
  H   H1160     1.0  0.76742  0.10470  0.44168  1.0000
  C   C735      1.0  0.65178  0.08208  0.37213  1.0000
  C   C736      1.0  0.66047  0.07485  0.38701  1.0000
  C   C737      1.0  0.67045  0.08498  0.39137  1.0000
  C   C738      1.0  0.67256  0.10207  0.38040  1.0000
  C   C739      1.0  0.66419  0.10921  0.36524  1.0000
  C   C740      1.0  0.65350  0.09935  0.36128  1.0000
  H   H1161     1.0  0.65918  0.06146  0.39540  1.0000
  H   H1162     1.0  0.67672  0.07948  0.40308  1.0000
  H   H1163     1.0  0.66584  0.12243  0.35666  1.0000
  H   H1164     1.0  0.64693  0.10494  0.34967  1.0000
  C   C741      1.0  0.58214  0.10766  0.28279  1.0000
  C   C742      1.0  0.58766  0.08865  0.28527  1.0000
  C   C743      1.0  0.58080  0.07923  0.27654  1.0000
  C   C744      1.0  0.56864  0.08875  0.26491  1.0000
  C   C745      1.0  0.56383  0.10787  0.26155  1.0000
  C   C746      1.0  0.57055  0.11732  0.27055  1.0000
  H   H1165     1.0  0.59712  0.08109  0.29410  1.0000
  H   H1166     1.0  0.58474  0.06446  0.27906  1.0000
  H   H1167     1.0  0.55454  0.11531  0.25248  1.0000
  H   H1168     1.0  0.56636  0.13205  0.26844  1.0000
  H   H1169     1.0  0.55751  0.04617  0.23516  1.0000
  C   C747      1.0  0.59389  0.02355  0.32091  1.0000
  C   C748      1.0  0.49968  0.04287  0.20541  1.0000
  H   H1170     1.0  0.57544  0.05000  0.31709  1.0000
  C   C749      1.0  0.50786  0.06034  0.36567  1.0000
  H   H1171     1.0  0.58602  0.02863  0.39655  1.0000
  C   C750      1.0  0.51452  0.07872  0.38274  1.0000
  C   C751      1.0  0.53345  0.07326  0.37560  1.0000
  C   C752      1.0  0.53960  0.06090  0.36392  1.0000
  C   C753      1.0  0.52682  0.05429  0.35912  1.0000
  H   H1172     1.0  0.85662  0.13720  0.41708  1.0000
  H   H1173     1.0  0.50973  0.08820  0.39185  1.0000
  H   H1174     1.0  0.55419  0.05639  0.35860  1.0000
  S   S317      1.0  0.51419  0.09971  0.19603  1.0000
  H   H1175     1.0  0.50599  0.15543  0.20923  1.0000
  H   H1176     1.0  0.54973  0.03819  0.31450  1.0000
  C   C754      1.0  0.57251  0.02679  0.39561  1.0000
  C   C755      1.0  0.52073  0.01367  0.21189  1.0000
  H   H1177     1.0  0.61747  0.12116  0.41111  1.0000
  H   H1178     1.0  0.65258  0.01542  0.32075  1.0000
  C   C756      1.0  0.52925  0.14024  0.14858  1.0000
  C   C757      1.0  0.52214  0.15079  0.13315  1.0000
  C   C758      1.0  0.52578  0.16823  0.12477  1.0000
  H   H1179     1.0  0.69499  0.02481  0.45380  1.0000
  H   H1180     1.0  0.55638  0.03789  0.27678  1.0000
  H   H1181     1.0  0.52652  0.12676  0.15480  1.0000
  S   S318      1.0  0.54656  0.00133  0.31754  1.0000
  H   H1182     1.0  0.64293  0.09556  0.48322  1.0000
  H   H1183     1.0  0.64831  0.17051  0.46316  1.0000
  C   C759      1.0  0.57718  0.03558  0.31815  1.0000
  S   S319      1.0  0.63156  0.03132  0.44854  1.0000
  H   H1184     1.0  0.84627  0.15664  0.42754  1.0000
  C   C760      1.0  0.56270  0.02891  0.31650  1.0000
  N   N72       1.0  0.71708  0.04362  0.40557  1.0000
  S   S320      1.0  0.51653  0.18097  0.10546  1.0000
  H   H1185     1.0  0.74371  0.03264  0.38997  1.0000
  H   H1186     1.0  0.72939  0.01638  0.40122  1.0000
  H   H1187     1.0  0.56386  0.02450  0.40978  1.0000
  H   H1188     1.0  0.69235  0.04326  0.39803  1.0000
  H   H1189     1.0  0.68855  0.04973  0.41956  1.0000
  H   H1190     1.0  0.67265  0.03799  0.35388  1.0000
  C   C761      1.0  0.62357  0.10673  0.40983  1.0000
  H   H1191     1.0  0.62387  0.09225  0.44537  1.0000
  H   H1192     1.0  0.63767  0.10323  0.41259  1.0000
  H   H1193     1.0  0.52859  0.12900  0.32252  1.0000
  C   C762      1.0  0.51721  0.03281  0.20803  1.0000
  H   H1194     1.0  0.68630  0.00298  0.33860  1.0000
  H   H1195     1.0  0.80914  0.14586  0.44618  1.0000
  C   C763      1.0  0.65132  0.15626  0.47123  1.0000
  C   C764      1.0  0.72920  0.03088  0.39391  1.0000
  C   C765      1.0  0.69805  0.04064  0.41044  1.0000
  N   N73       1.0  0.83777  0.13184  0.44315  1.0000
  C   C766      1.0  0.84366  0.14408  0.42542  1.0000
  C   C767      1.0  0.83438  0.11540  0.43975  1.0000
  H   H1196     1.0  0.54778  0.00675  0.39951  1.0000
  C   C768      1.0  0.85240  0.12636  0.45377  1.0000
  H   H1197     1.0  0.50568  0.01514  0.36170  1.0000
  H   H1198     1.0  0.83288  0.14847  0.41713  1.0000
  H   H1199     1.0  0.69757  0.02629  0.41784  1.0000
  H   H1200     1.0  0.60340  0.10982  0.44373  1.0000
  N   N74       1.0  0.55714  0.02249  0.25732  1.0000
  H   H1201     1.0  0.64371  0.02700  0.36621  1.0000
  H   H1202     1.0  0.50782  0.12582  0.99771  1.0000
  H   H1203     1.0  0.53094  0.11824  0.28683  1.0000
  S   S321      1.0  0.62383  0.12626  0.46050  1.0000
  H   H1204     1.0  0.51077  0.13084  0.29984  1.0000
  C   C769      1.0  0.54683  0.03321  0.27148  1.0000
  H   H1205     1.0  0.50999  0.98981  0.21588  1.0000
  H   H1206     1.0  0.57842  0.99814  0.25500  1.0000
  C   C770      1.0  0.56720  0.03415  0.24149  1.0000
  H   H1207     1.0  0.68576  0.03623  0.33098  1.0000
  C   C771      1.0  0.55691  0.00948  0.38563  1.0000
  N   N75       1.0  0.66175  0.02447  0.33988  1.0000
  H   H1208     1.0  0.81570  0.13255  0.46696  1.0000
  H   H1209     1.0  0.55844  0.99806  0.37889  1.0000
  H   H1210     1.0  0.54730  0.08810  0.30200  1.0000
  H   H1211     1.0  0.51100  0.09670  0.34366  1.0000
  N   N76       1.0  0.57508  0.01149  0.38667  1.0000
  H   H1212     1.0  0.65457  0.06838  0.47520  1.0000
  H   H1213     1.0  0.53867  0.07878  0.32570  1.0000
  H   H1214     1.0  0.65196  0.03934  0.31537  1.0000
  H   H1215     1.0  0.53426  0.00577  0.21382  1.0000
  H   H1216     1.0  0.51669  0.16404  0.18586  1.0000
  H   H1217     1.0  0.50967  0.11044  0.29412  1.0000
  H   H1218     1.0  0.84697  0.10774  0.43169  1.0000
  C   C772      1.0  0.51868  0.11683  0.29831  1.0000
  Fe  Fe162     1.0  0.53811  0.11119  0.19577  1.0000
  H   H1219     1.0  0.63517  0.04172  0.34675  1.0000
  H   H1220     1.0  0.64198  0.14880  0.46907  1.0000
  H   H1221     1.0  0.53367  0.02761  0.24538  1.0000
  H   H1222     1.0  0.70864  0.07264  0.40413  1.0000
  C   C773      1.0  0.71718  0.06270  0.39547  1.0000
  H   H1223     1.0  0.73140  0.06529  0.39113  1.0000
  H   H1224     1.0  0.71512  0.04964  0.43159  1.0000
  C   C774      1.0  0.64312  0.02790  0.35178  1.0000
  C   C775      1.0  0.53449  0.08745  0.31291  1.0000
  H   H1225     1.0  0.60061  0.01624  0.36807  1.0000
  H   H1226     1.0  0.56559  0.03996  0.38781  1.0000
  C   C776      1.0  0.58172  0.99828  0.32038  1.0000
  C   C777      1.0  0.54408  0.01598  0.25112  1.0000
  C   C778      1.0  0.53590  0.11493  0.32071  1.0000
  N   N77       1.0  0.52413  0.10591  0.31556  1.0000
  C   C779      1.0  0.61857  0.11706  0.48411  1.0000
  N   N78       1.0  0.61205  0.09421  0.42262  1.0000
  C   C780      1.0  0.50740  0.10443  0.33033  1.0000
  C   C781      1.0  0.72389  0.04019  0.42251  1.0000
  H   H1227     1.0  0.73829  0.04212  0.41941  1.0000
  H   H1228     1.0  0.72376  0.02602  0.43061  1.0000
  H   H1229     1.0  0.57517  0.02655  0.23050  1.0000
  H   H1230     1.0  0.60927  0.99572  0.32346  1.0000
  H   H1231     1.0  0.74388  0.08527  0.47844  1.0000
  H   H1232     1.0  0.66401  0.05242  0.33445  1.0000
  S   S322      1.0  0.52730  0.11700  0.22422  1.0000
  H   H1233     1.0  0.67097  0.01695  0.44397  1.0000
  H   H1234     1.0  0.53161  0.04494  0.34985  1.0000
  H   H1235     1.0  0.54881  0.11608  0.30999  1.0000
  C   C782      1.0  0.57045  0.00665  0.26523  1.0000
  C   C783      1.0  0.61014  0.09569  0.44170  1.0000
  Fe  Fe163     1.0  0.64374  0.00550  0.43794  1.0000
  H   H1236     1.0  0.82993  0.10582  0.45285  1.0000
  C   C784      1.0  0.56491  0.01018  0.31793  1.0000
  H   H1237     1.0  0.57699  0.03958  0.24567  1.0000
  H   H1238     1.0  0.58653  0.11348  0.41939  1.0000
  H   H1239     1.0  0.62264  0.07352  0.40650  1.0000
  H   H1240     1.0  0.58453  0.09002  0.42757  1.0000
  C   C785      1.0  0.62088  0.07521  0.42073  1.0000
  H   H1241     1.0  0.60178  0.08623  0.45177  1.0000
  C   C786      1.0  0.59628  0.00500  0.32157  1.0000
  C   C787      1.0  0.59360  0.09919  0.41819  1.0000
  H   H1242     1.0  0.49903  0.17282  0.16152  1.0000
  S   S323      1.0  0.66247  0.00532  0.41027  1.0000
  H   H1243     1.0  0.61246  0.06544  0.43008  1.0000
  H   H1244     1.0  0.84840  0.11711  0.46725  1.0000
  H   H1245     1.0  0.67306  0.00450  0.36149  1.0000
  H   H1246     1.0  0.53869  0.02502  0.28343  1.0000
  H   H1247     1.0  0.72535  0.15248  0.47390  1.0000
  H   H1248     1.0  0.54004  0.10718  0.33385  1.0000
  H   H1249     1.0  0.51476  0.99548  0.35154  1.0000
  S   S324      1.0  0.67497  0.10770  0.46786  1.0000
  H   H1250     1.0  0.82260  0.15384  0.45689  1.0000
  C   C788      1.0  0.50698  0.00457  0.21296  1.0000
  C   C789      1.0  0.67205  0.00602  0.34706  1.0000
  S   S325      1.0  0.71030  0.98657  0.42075  1.0000
  C   C790      1.0  0.58653  0.01524  0.36791  1.0000
  H   H1251     1.0  0.71193  0.10388  0.48074  1.0000
  H   H1252     1.0  0.52203  0.15254  0.99142  1.0000
  H   H1253     1.0  0.73753  0.99351  0.43541  1.0000
  H   H1254     1.0  0.86565  0.11906  0.44626  1.0000
  S   S326      1.0  0.63908  0.98780  0.38279  1.0000
  H   H1255     1.0  0.58019  0.02828  0.35947  1.0000
  H   H1256     1.0  0.66571  0.14984  0.46518  1.0000
  H   H1257     1.0  0.57622  0.99105  0.41169  1.0000
  H   H1258     1.0  0.53656  0.00676  0.26257  1.0000
  H   H1259     1.0  0.66495  0.99530  0.34722  1.0000
  S   S327      1.0  0.78860  0.00942  0.48529  1.0000
  H   H1260     1.0  0.56327  0.99771  0.27736  1.0000
  C   C791      1.0  0.50295  0.00742  0.35297  1.0000
  H   H1261     1.0  0.75767  0.14086  0.47807  1.0000
  H   H1262     1.0  0.62245  0.98940  0.35351  1.0000
  H   H1263     1.0  0.51102  0.14207  0.19221  1.0000
  H   H1264     1.0  0.78597  0.04761  0.48156  1.0000
  S   S328      1.0  0.62806  0.98635  0.43539  1.0000
  H   H1265     1.0  0.49694  0.05763  0.20216  1.0000
  H   H1266     1.0  0.65891  0.18033  0.48554  1.0000
  Fe  Fe164     1.0  0.54292  0.06228  0.72028  1.0000
  C   C792      1.0  0.66161  0.16585  0.49308  1.0000
  C   C793      1.0  0.60176  0.02883  0.66004  1.0000
  Fe  Fe165     1.0  0.80626  0.08323  0.52082  1.0000
  S   S329      1.0  0.80794  0.10360  0.53587  1.0000
  S   S330      1.0  0.81264  0.05258  0.53032  1.0000
  Fe  Fe166     1.0  0.78060  0.11831  0.52876  1.0000
  S   S331      1.0  0.75782  0.13013  0.55007  1.0000
  Fe  Fe167     1.0  0.81979  0.11928  0.50812  1.0000
  C   C794      1.0  0.52544  0.13925  0.95205  1.0000
  S   S332      1.0  0.77787  0.09687  0.51603  1.0000
  C   C795      1.0  0.62843  0.09644  0.51100  1.0000
  H   H1267     1.0  0.63253  0.02009  0.56566  1.0000
  C   C796      1.0  0.57899  0.02723  0.64489  1.0000
  Fe  Fe168     1.0  0.67513  0.07250  0.55665  1.0000
  S   S333      1.0  0.64703  0.07344  0.57548  1.0000
  S   S334      1.0  0.69468  0.04652  0.55062  1.0000
  Fe  Fe169     1.0  0.66997  0.11335  0.54677  1.0000
  S   S335      1.0  0.64153  0.11837  0.56468  1.0000
  C   C797      1.0  0.55740  0.13567  0.74845  1.0000
  Fe  Fe170     1.0  0.65377  0.09490  0.58518  1.0000
  H   H1268     1.0  0.77267  0.99750  0.56842  1.0000
  Fe  Fe171     1.0  0.63717  0.09649  0.55362  1.0000
  S   S336      1.0  0.68282  0.09190  0.56823  1.0000
  S   S337      1.0  0.66454  0.09358  0.53376  1.0000
  C   C798      1.0  0.66059  0.00890  0.59204  1.0000
  C   C799      1.0  0.63106  0.10229  0.49191  1.0000
  C   C800      1.0  0.68412  0.01377  0.56398  1.0000
  C   C801      1.0  0.68510  0.02989  0.56792  1.0000
  C   C802      1.0  0.67552  0.03431  0.58481  1.0000
  C   C803      1.0  0.66314  0.02393  0.59680  1.0000
  H   H1269     1.0  0.65356  0.04108  0.55285  1.0000
  H   H1270     1.0  0.69191  0.01003  0.55112  1.0000
  H   H1271     1.0  0.67691  0.04634  0.58826  1.0000
  H   H1272     1.0  0.65497  0.02810  0.60934  1.0000
  C   C804      1.0  0.84901  0.14400  0.51488  1.0000
  C   C805      1.0  0.84728  0.13514  0.53339  1.0000
  C   C806      1.0  0.85321  0.14181  0.54546  1.0000
  C   C807      1.0  0.62450  0.02806  0.55498  1.0000
  H   H1273     1.0  0.59934  0.07433  0.66781  1.0000
  H   H1274     1.0  0.84170  0.12296  0.53831  1.0000
  H   H1275     1.0  0.85188  0.13485  0.55975  1.0000
  H   H1276     1.0  0.73103  0.07452  0.52966  1.0000
  C   C808      1.0  0.73702  0.13245  0.54383  1.0000
  C   C809      1.0  0.73638  0.13672  0.52525  1.0000
  C   C810      1.0  0.71986  0.13819  0.52021  1.0000
  C   C811      1.0  0.70420  0.13461  0.53366  1.0000
  C   C812      1.0  0.71150  0.10360  0.49528  1.0000
  C   C813      1.0  0.72118  0.12952  0.55735  1.0000
  H   H1277     1.0  0.74858  0.13906  0.51476  1.0000
  H   H1278     1.0  0.71932  0.14168  0.50588  1.0000
  C   C814      1.0  0.51833  0.02928  0.72505  1.0000
  H   H1279     1.0  0.50684  0.98891  0.77626  1.0000
  C   C815      1.0  0.80628  0.04066  0.51750  1.0000
  C   C816      1.0  0.80961  0.02152  0.52221  1.0000
  C   C817      1.0  0.80442  0.01179  0.51230  1.0000
  H   H1280     1.0  0.57634  0.02327  0.63326  1.0000
  H   H1281     1.0  0.65953  0.01283  0.54061  1.0000
  C   C818      1.0  0.79774  0.05002  0.50280  1.0000
  H   H1282     1.0  0.81641  0.01418  0.53341  1.0000
  H   H1283     1.0  0.80748  0.99704  0.51575  1.0000
  H   H1284     1.0  0.58577  0.08945  0.61473  1.0000
  H   H1285     1.0  0.58170  0.14493  0.68670  1.0000
  H   H1286     1.0  0.56541  0.14500  0.73871  1.0000
  H   H1287     1.0  0.57447  0.15583  0.66537  1.0000
  H   H1288     1.0  0.80499  0.17145  0.56843  1.0000
  N   N79       1.0  0.64896  0.15574  0.49093  1.0000
  H   H1289     1.0  0.63081  0.08034  0.65307  1.0000
  H   H1290     1.0  0.57162  0.01950  0.65790  1.0000
  C   C819      1.0  0.62961  0.16415  0.49846  1.0000
  Fe  Fe172     1.0  0.55598  0.08088  0.68104  1.0000
  H   H1291     1.0  0.50643  0.14020  0.76214  1.0000
  C   C820      1.0  0.76898  0.99729  0.55560  1.0000
  S   S338      1.0  0.61142  0.99016  0.53589  1.0000
  N   N80       1.0  0.72339  0.08673  0.50360  1.0000
  N   N81       1.0  0.63664  0.03580  0.53786  1.0000
  H   H1292     1.0  0.53042  0.16339  0.96829  1.0000
  Fe  Fe173     1.0  0.79270  0.11231  0.48988  1.0000
  S   S339      1.0  0.68429  0.13462  0.52700  1.0000
  H   H1293     1.0  0.61684  0.09583  0.60018  1.0000
  H   H1294     1.0  0.52800  0.11439  0.98364  1.0000
  H   H1295     1.0  0.52848  0.10244  0.78350  1.0000
  C   C821      1.0  0.93068  0.11888  0.56045  1.0000
  H   H1296     1.0  0.50096  0.02325  0.71124  1.0000
  C   C822      1.0  0.74872  0.01145  0.53437  1.0000
  S   S340      1.0  0.56833  0.07747  0.65204  1.0000
  C   C823      1.0  0.58752  0.12633  0.65003  1.0000
  H   H1297     1.0  0.55059  0.15051  0.77000  1.0000
  S   S341      1.0  0.53089  0.06932  0.69534  1.0000
  H   H1298     1.0  0.91828  0.12774  0.52921  1.0000
  H   H1299     1.0  0.67635  0.15957  0.48771  1.0000
  C   C824      1.0  0.62580  0.08863  0.62570  1.0000
  C   C825      1.0  0.77329  0.16886  0.56134  1.0000
  H   H1300     1.0  0.52161  0.13135  0.73213  1.0000
  H   H1301     1.0  0.79671  0.14127  0.57818  1.0000
  Fe  Fe174     1.0  0.50091  0.12186  0.81385  1.0000
  H   H1302     1.0  0.63847  0.08536  0.51689  1.0000
  C   C826      1.0  0.75722  0.02994  0.54973  1.0000
  S   S342      1.0  0.50763  0.16361  0.91091  1.0000
  C   C827      1.0  0.91404  0.14946  0.56317  1.0000
  H   H1303     1.0  0.73647  0.02226  0.53117  1.0000
  H   H1304     1.0  0.91896  0.11302  0.56993  1.0000
  H   H1305     1.0  0.72444  0.02072  0.56465  1.0000
  H   H1306     1.0  0.77169  0.16925  0.57594  1.0000
  H   H1307     1.0  0.74524  0.04136  0.54708  1.0000
  H   H1308     1.0  0.59531  0.04344  0.66020  1.0000
  C   C828      1.0  0.54897  0.13881  0.76614  1.0000
  H   H1309     1.0  0.58304  0.13932  0.64042  1.0000
  C   C829      1.0  0.64579  0.04819  0.54183  1.0000
  S   S343      1.0  0.53744  0.99509  0.66975  1.0000
  C   C830      1.0  0.53300  0.17287  0.81860  1.0000
  C   C831      1.0  0.52056  0.03087  0.74176  1.0000
  H   H1310     1.0  0.54426  0.09634  0.75259  1.0000
  S   S344      1.0  0.56488  0.11787  0.72051  1.0000
  C   C832      1.0  0.51443  0.12418  0.98336  1.0000
  C   C833      1.0  0.79398  0.16060  0.53377  1.0000
  C   C834      1.0  0.54511  0.10851  0.75607  1.0000
  C   C835      1.0  0.55535  0.12062  0.74328  1.0000
  H   H1311     1.0  0.63427  0.05209  0.51096  1.0000
  C   C836      1.0  0.60736  0.00408  0.64476  1.0000
  N   N82       1.0  0.75291  0.01208  0.55165  1.0000
  H   H1312     1.0  0.61729  0.01869  0.55249  1.0000
  H   H1313     1.0  0.94787  0.13605  0.52768  1.0000
  C   C837      1.0  0.60800  0.03465  0.62691  1.0000
  S   S345      1.0  0.54029  0.03721  0.74249  1.0000
  N   N83       1.0  0.59321  0.12960  0.66538  1.0000
  C   C838      1.0  0.93994  0.14474  0.53774  1.0000
  H   H1314     1.0  0.60081  0.11430  0.69089  1.0000
  C   C839      1.0  0.60985  0.13747  0.65807  1.0000
  H   H1315     1.0  0.60183  0.04950  0.62578  1.0000
  H   H1316     1.0  0.74799  0.09753  0.49287  1.0000
  C   C840      1.0  0.62549  0.04613  0.52407  1.0000
  H   H1317     1.0  0.81214  0.13516  0.55769  1.0000
  S   S346      1.0  0.79232  0.13541  0.50202  1.0000
  H   H1318     1.0  0.66009  0.02613  0.51759  1.0000
  N   N84       1.0  0.51668  0.14193  0.97096  1.0000
  H   H1319     1.0  0.71590  0.11599  0.49539  1.0000
  C   C841      1.0  0.79247  0.04029  0.49298  1.0000
  H   H1320     1.0  0.69685  0.10497  0.50290  1.0000
  H   H1321     1.0  0.58555  0.10537  0.68378  1.0000
  H   H1322     1.0  0.62253  0.00105  0.64393  1.0000
  H   H1323     1.0  0.62736  0.16396  0.51333  1.0000
  C   C842      1.0  0.65334  0.13659  0.50097  1.0000
  H   H1324     1.0  0.61832  0.03718  0.52081  1.0000
  H   H1325     1.0  0.61375  0.03903  0.56090  1.0000
  S   S347      1.0  0.61042  0.09871  0.54618  1.0000
  N   N85       1.0  0.59901  0.02369  0.64415  1.0000
  H   H1326     1.0  0.62305  0.03260  0.62606  1.0000
  H   H1327     1.0  0.50821  0.17221  0.86244  1.0000
  C   C843      1.0  0.50243  0.02455  0.72421  1.0000
  H   H1328     1.0  0.73282  0.99647  0.56844  1.0000
  H   H1329     1.0  0.50787  0.13175  0.71678  1.0000
  H   H1330     1.0  0.64464  0.12834  0.49904  1.0000
  H   H1331     1.0  0.50468  0.15806  0.82182  1.0000
  S   S348      1.0  0.82109  0.09729  0.49380  1.0000
  H   H1332     1.0  0.63552  0.06009  0.54659  1.0000
  H   H1333     1.0  0.52072  0.14068  0.85636  1.0000
  H   H1334     1.0  0.73950  0.00963  0.58027  1.0000
  C   C844      1.0  0.73673  0.00963  0.56694  1.0000
  C   C845      1.0  0.50691  0.02760  0.75773  1.0000
  C   C846      1.0  0.67186  0.00323  0.57614  1.0000
  C   C847      1.0  0.62088  0.08248  0.64478  1.0000
  H   H1335     1.0  0.81962  0.16628  0.54726  1.0000
  C   C848      1.0  0.60312  0.07914  0.65309  1.0000
  S   S349      1.0  0.64746  0.09395  0.61548  1.0000
  H   H1336     1.0  0.50965  0.15278  0.72069  1.0000
  C   C849      1.0  0.71683  0.07070  0.50334  1.0000
  H   H1337     1.0  0.93544  0.15879  0.52980  1.0000
  C   C850      1.0  0.61316  0.09101  0.61490  1.0000
  C   C851      1.0  0.74269  0.08556  0.49301  1.0000
  N   N86       1.0  0.92401  0.13744  0.55012  1.0000
  C   C852      1.0  0.86076  0.15747  0.53916  1.0000
  C   C853      1.0  0.59043  0.08179  0.64225  1.0000
  H   H1338     1.0  0.57588  0.11910  0.65505  1.0000
  H   H1339     1.0  0.61458  0.14004  0.66928  1.0000
  H   H1340     1.0  0.54666  0.17279  0.82085  1.0000
  H   H1341     1.0  0.94962  0.14577  0.54557  1.0000
  S   S350      1.0  0.54250  0.10888  0.68640  1.0000
  C   C854      1.0  0.79773  0.14176  0.56346  1.0000
  Fe  Fe175     1.0  0.55339  0.09857  0.71217  1.0000
  H   H1342     1.0  0.60953  0.10247  0.67236  1.0000
  H   H1343     1.0  0.57454  0.99109  0.64945  1.0000
  H   H1344     1.0  0.90194  0.14443  0.57284  1.0000
  H   H1345     1.0  0.74556  0.99812  0.53525  1.0000
  C   C855      1.0  0.79571  0.02115  0.49774  1.0000
  H   H1346     1.0  0.57237  0.04198  0.64417  1.0000
  S   S351      1.0  0.84181  0.13607  0.49921  1.0000
  H   H1347     1.0  0.62156  0.12805  0.65084  1.0000
  H   H1348     1.0  0.61672  0.02677  0.65970  1.0000
  H   H1349     1.0  0.64423  0.01111  0.52766  1.0000
  H   H1350     1.0  0.76062  0.01325  0.52250  1.0000
  H   H1351     1.0  0.90599  0.15054  0.53125  1.0000
  H   H1352     1.0  0.94019  0.11900  0.56889  1.0000
  H   H1353     1.0  0.93830  0.10942  0.55103  1.0000
  C   C856      1.0  0.51777  0.17702  0.84941  1.0000
  C   C857      1.0  0.65076  0.02080  0.53060  1.0000
  C   C858      1.0  0.91133  0.13673  0.53919  1.0000
  C   C859      1.0  0.53820  0.12708  0.77869  1.0000
  H   H1354     1.0  0.92323  0.15086  0.57132  1.0000
  C   C860      1.0  0.70483  0.13032  0.55225  1.0000
  C   C861      1.0  0.61291  0.10501  0.52234  1.0000
  H   H1355     1.0  0.78856  0.13316  0.56296  1.0000
  S   S352      1.0  0.56932  0.07151  0.70536  1.0000
  H   H1356     1.0  0.60977  0.99917  0.49782  1.0000
  H   H1357     1.0  0.72167  0.12615  0.57173  1.0000
  C   C862      1.0  0.59554  0.08751  0.62317  1.0000
  H   H1358     1.0  0.69267  0.12780  0.56272  1.0000
  C   C863      1.0  0.72250  0.08716  0.52278  1.0000
  H   H1359     1.0  0.90857  0.16340  0.55578  1.0000
  S   S353      1.0  0.52811  0.08859  0.72895  1.0000
  H   H1360     1.0  0.52905  0.03135  0.71277  1.0000
  C   C864      1.0  0.85689  0.15944  0.50853  1.0000
  H   H1361     1.0  0.59537  0.02063  0.67327  1.0000
  H   H1362     1.0  0.60716  0.15063  0.64801  1.0000
  C   C865      1.0  0.57801  0.14243  0.67481  1.0000
  N   N87       1.0  0.52078  0.16567  0.83592  1.0000
  C   C866      1.0  0.86265  0.16621  0.52062  1.0000
  H   H1363     1.0  0.65093  0.13567  0.51600  1.0000
  S   S354      1.0  0.52714  0.13193  0.80043  1.0000
  H   H1364     1.0  0.60110  0.99533  0.65764  1.0000
  H   H1365     1.0  0.89898  0.13161  0.54816  1.0000
  H   H1366     1.0  0.75215  0.07304  0.49891  1.0000
  Fe  Fe176     1.0  0.51843  0.09658  0.70276  1.0000
  C   C867      1.0  0.53632  0.11186  0.77368  1.0000
  H   H1367     1.0  0.56528  0.13684  0.68042  1.0000
  C   C868      1.0  0.50283  0.16613  0.83225  1.0000
  C   C869      1.0  0.50856  0.13846  0.72746  1.0000
  H   H1368     1.0  0.59910  0.11780  0.64178  1.0000
  H   H1369     1.0  0.70807  0.08843  0.53106  1.0000
  C   C870      1.0  0.59972  0.11907  0.51456  1.0000
  H   H1370     1.0  0.61984  0.15661  0.49712  1.0000
  H   H1371     1.0  0.65582  0.05357  0.52950  1.0000
  H   H1372     1.0  0.51173  0.13329  0.89484  1.0000
  C   C871      1.0  0.59749  0.11217  0.67863  1.0000
  H   H1373     1.0  0.58761  0.12561  0.52335  1.0000
  H   H1374     1.0  0.50872  0.02875  0.77070  1.0000
  S   S355      1.0  0.64201  0.99884  0.60512  1.0000
  C   C872      1.0  0.52955  0.14662  0.84336  1.0000
  H   H1375     1.0  0.78136  0.99848  0.54427  1.0000
  H   H1376     1.0  0.54314  0.14574  0.84628  1.0000
  H   H1377     1.0  0.76350  0.16080  0.56103  1.0000
  H   H1378     1.0  0.85843  0.16631  0.49421  1.0000
  N   N88       1.0  0.79254  0.16072  0.55315  1.0000
  H   H1379     1.0  0.60664  0.03074  0.61464  1.0000
  H   H1380     1.0  0.79538  0.06474  0.49883  1.0000
  H   H1381     1.0  0.76924  0.03228  0.53813  1.0000
  C   C873      1.0  0.60263  0.12521  0.49540  1.0000
  H   H1382     1.0  0.50418  0.11099  0.75701  1.0000
  H   H1383     1.0  0.61474  0.05766  0.52905  1.0000
  H   H1384     1.0  0.53561  0.16444  0.80822  1.0000
  S   S356      1.0  0.86750  0.16579  0.55484  1.0000
  H   H1385     1.0  0.53924  0.12976  0.95138  1.0000
  H   H1386     1.0  0.52745  0.15240  0.94238  1.0000
  H   H1387     1.0  0.76078  0.03082  0.56238  1.0000
  H   H1388     1.0  0.70236  0.07108  0.51137  1.0000
  H   H1389     1.0  0.53195  0.13767  0.83355  1.0000
  H   H1390     1.0  0.78416  0.15306  0.53267  1.0000
  H   H1391     1.0  0.72551  0.05768  0.50944  1.0000
  H   H1392     1.0  0.53093  0.17661  0.85298  1.0000
  H   H1393     1.0  0.80814  0.15389  0.52731  1.0000
  H   H1394     1.0  0.60554  0.99968  0.63297  1.0000
  H   H1395     1.0  0.67089  0.99098  0.57299  1.0000
  H   H1396     1.0  0.72756  0.09899  0.52346  1.0000
  H   H1397     1.0  0.51671  0.13368  0.94658  1.0000
  H   H1398     1.0  0.66023  0.16571  0.50780  1.0000
  H   H1399     1.0  0.62573  0.17860  0.49116  1.0000
  C   C874      1.0  0.80510  0.17163  0.55400  1.0000
  H   H1400     1.0  0.66809  0.13005  0.49626  1.0000
  C   C875      1.0  0.52844  0.14994  0.97734  1.0000
  H   H1401     1.0  0.54237  0.14088  0.97759  1.0000
  H   H1402     1.0  0.79073  0.17468  0.52540  1.0000
  H   H1403     1.0  0.71709  0.07006  0.48907  1.0000
  H   H1404     1.0  0.59282  0.13656  0.48940  1.0000
  H   H1405     1.0  0.50556  0.11781  0.97895  1.0000
  C   C876      1.0  0.49889  0.14265  0.89257  1.0000
  H   H1406     1.0  0.86849  0.17826  0.51556  1.0000
  H   H1407     1.0  0.49970  0.16796  0.96207  1.0000
  C   C877      1.0  0.49836  0.15443  0.97108  1.0000
  H   H1408     1.0  0.76875  0.18305  0.55373  1.0000
  Fe  Fe177     1.0  0.50795  0.99273  0.68196  1.0000
  H   H1409     1.0  0.53256  0.99173  0.74854  1.0000
  H   H1410     1.0  0.51865  0.98697  0.73613  1.0000
  H   H1411     1.0  0.97725  0.18536  0.55943  1.0000
  H   H1412     1.0  0.80123  0.18614  0.54682  1.0000
  S   S357      1.0  0.56572  0.25236  0.06165  1.0000
  Fe  Fe178     1.0  0.54048  0.24022  0.07344  1.0000
  Fe  Fe179     1.0  0.57677  0.33902  0.08169  1.0000
  S   S358      1.0  0.57734  0.34614  0.05185  1.0000
  S   S359      1.0  0.56088  0.31737  0.09848  1.0000
  N   N89       1.0  0.67923  0.33239  0.99155  1.0000
  H   H1413     1.0  0.54239  0.25286  0.00307  1.0000
  H   H1414     1.0  0.56633  0.20995  0.02971  1.0000
  C   C878      1.0  0.89196  0.35423  0.41469  1.0000
  C   C879      1.0  0.88912  0.26072  0.45561  1.0000
  Fe  Fe180     1.0  0.60570  0.35070  0.04769  1.0000
  S   S360      1.0  0.62456  0.34281  0.02195  1.0000
  S   S361      1.0  0.56474  0.36794  0.08505  1.0000
  S   S362      1.0  0.60643  0.34080  0.07777  1.0000
  H   H1415     1.0  0.66286  0.31592  0.01334  1.0000
  H   H1416     1.0  0.87937  0.25593  0.45138  1.0000
  Fe  Fe181     1.0  0.50163  0.24932  0.09555  1.0000
  Fe  Fe182     1.0  0.59434  0.37050  0.07888  1.0000
  Fe  Fe183     1.0  0.51885  0.21025  0.09213  1.0000
  H   H1417     1.0  0.65216  0.33548  0.14501  1.0000
  H   H1418     1.0  0.51950  0.34160  0.05687  1.0000
  H   H1419     1.0  0.92486  0.36007  0.41360  1.0000
  H   H1420     1.0  0.65252  0.38479  0.13512  1.0000
  C   C880      1.0  0.67342  0.32403  0.01119  1.0000
  Fe  Fe184     1.0  0.56784  0.37513  0.05459  1.0000
  H   H1421     1.0  0.61860  0.36548  0.17501  1.0000
  C   C881      1.0  0.50495  0.21384  0.02595  1.0000
  H   H1422     1.0  0.70531  0.33498  0.99445  1.0000
  H   H1423     1.0  0.91012  0.32358  0.40262  1.0000
  C   C882      1.0  0.53052  0.31158  0.04246  1.0000
  H   H1424     1.0  0.53400  0.35350  0.01534  1.0000
  H   H1425     1.0  0.92208  0.33440  0.38077  1.0000
  H   H1426     1.0  0.65565  0.33864  0.16580  1.0000
  H   H1427     1.0  0.51533  0.31469  0.04803  1.0000
  H   H1428     1.0  0.89091  0.36578  0.42100  1.0000
  C   C883      1.0  0.89646  0.25048  0.47084  1.0000
  H   H1429     1.0  0.56411  0.33574  0.02338  1.0000
  N   N90       1.0  0.53787  0.32840  0.03550  1.0000
  H   H1430     1.0  0.57294  0.25727  0.01914  1.0000
  C   C884      1.0  0.55796  0.32352  0.02789  1.0000
  C   C885      1.0  0.90955  0.33652  0.39195  1.0000
  H   H1431     1.0  0.66319  0.36370  0.12777  1.0000
  H   H1432     1.0  0.56968  0.22737  0.03881  1.0000
  H   H1433     1.0  0.54175  0.32910  0.06174  1.0000
  H   H1434     1.0  0.50917  0.18698  0.02075  1.0000
  H   H1435     1.0  0.87911  0.35691  0.40960  1.0000
  H   H1436     1.0  0.53980  0.23116  0.01783  1.0000
  Fe  Fe185     1.0  0.50840  0.23875  0.05869  1.0000
  H   H1437     1.0  0.63639  0.36484  0.08509  1.0000
  H   H1438     1.0  0.66741  0.36697  0.08712  1.0000
  S   S363      1.0  0.91107  0.30530  0.44026  1.0000
  H   H1439     1.0  0.68532  0.31484  0.01687  1.0000
  H   H1440     1.0  0.49777  0.31402  0.08352  1.0000
  H   H1441     1.0  0.61380  0.36097  0.14631  1.0000
  C   C886      1.0  0.60959  0.34750  0.00697  1.0000
  C   C887      1.0  0.59349  0.36117  0.00905  1.0000
  H   H1442     1.0  0.53091  0.33422  0.00914  1.0000
  C   C888      1.0  0.62643  0.36634  0.13885  1.0000
  S   S364      1.0  0.51537  0.26088  0.06705  1.0000
  H   H1443     1.0  0.50642  0.29558  0.10084  1.0000
  S   S365      1.0  0.88897  0.23041  0.48315  1.0000
  H   H1444     1.0  0.50800  0.30177  0.12994  1.0000
  N   N91       1.0  0.90864  0.35215  0.39974  1.0000
  H   H1445     1.0  0.62188  0.38132  0.13380  1.0000
  C   C889      1.0  0.56482  0.27012  0.07210  1.0000
  C   C890      1.0  0.55165  0.27284  0.08819  1.0000
  C   C891      1.0  0.55101  0.28699  0.09646  1.0000
  C   C892      1.0  0.56304  0.29897  0.08837  1.0000
  C   C893      1.0  0.57615  0.29636  0.07220  1.0000
  C   C894      1.0  0.57714  0.28185  0.06418  1.0000
  H   H1446     1.0  0.54117  0.28860  0.10921  1.0000
  H   H1447     1.0  0.58576  0.30529  0.06604  1.0000
  H   H1448     1.0  0.58748  0.27971  0.05183  1.0000
  C   C895      1.0  0.65625  0.36970  0.14009  1.0000
  H   H1449     1.0  0.53317  0.30403  0.03136  1.0000
  C   C896      1.0  0.90638  0.28375  0.45162  1.0000
  H   H1450     1.0  0.89790  0.38481  0.44280  1.0000
  H   H1451     1.0  0.62477  0.32584  0.99272  1.0000
  C   C897      1.0  0.57957  0.36295  0.99992  1.0000
  N   N92       1.0  0.63982  0.36225  0.15065  1.0000
  H   H1452     1.0  0.96673  0.36637  0.46309  1.0000
  H   H1453     1.0  0.56603  0.21604  0.99642  1.0000
  C   C898      1.0  0.63109  0.37075  0.16673  1.0000
  C   C899      1.0  0.54720  0.24241  0.01480  1.0000
  H   H1454     1.0  0.90758  0.38095  0.39053  1.0000
  H   H1455     1.0  0.66697  0.33468  0.01955  1.0000
  H   H1456     1.0  0.66672  0.36689  0.14848  1.0000
  H   H1457     1.0  0.63344  0.33613  0.16487  1.0000
  S   S366      1.0  0.93450  0.34469  0.48507  1.0000
  H   H1458     1.0  0.92445  0.27765  0.47030  1.0000
  H   H1459     1.0  0.64082  0.36800  0.17592  1.0000
  H   H1460     1.0  0.92655  0.33595  0.41784  1.0000
  C   C900      1.0  0.57291  0.22753  0.99416  1.0000
  C   C901      1.0  0.89405  0.27732  0.44604  1.0000
  H   H1461     1.0  0.58843  0.21611  0.02345  1.0000
  S   S367      1.0  0.53462  0.21857  0.06303  1.0000
  C   C902      1.0  0.63793  0.37649  0.08913  1.0000
  H   H1462     1.0  0.59194  0.24653  0.00341  1.0000
  Fe  Fe186     1.0  0.92049  0.31843  0.45736  1.0000
  H   H1463     1.0  0.93814  0.34754  0.39622  1.0000
  H   H1464     1.0  0.53956  0.18844  0.12556  1.0000
  C   C903      1.0  0.53450  0.33780  0.05069  1.0000
  H   H1465     1.0  0.51337  0.34486  0.02610  1.0000
  C   C904      1.0  0.52859  0.34076  0.02092  1.0000
  H   H1466     1.0  0.88804  0.28532  0.43448  1.0000
  C   C905      1.0  0.58196  0.35136  0.98817  1.0000
  C   C906      1.0  0.64551  0.34224  0.15689  1.0000
  H   H1467     1.0  0.68681  0.35466  0.99697  1.0000
  H   H1468     1.0  0.65590  0.35510  0.99278  1.0000
  H   H1469     1.0  0.53966  0.35069  0.04576  1.0000
  C   C907      1.0  0.90778  0.36902  0.38520  1.0000
  H   H1470     1.0  0.56661  0.37267  0.00275  1.0000
  S   S368      1.0  0.93744  0.37998  0.43872  1.0000
  C   C908      1.0  0.57323  0.22163  0.02629  1.0000
  N   N93       1.0  0.56749  0.23566  0.01053  1.0000
  C   C909      1.0  0.91426  0.27321  0.46647  1.0000
  H   H1471     1.0  0.58812  0.22224  0.99052  1.0000
  S   S369      1.0  0.94703  0.32806  0.44768  1.0000
  C   C910      1.0  0.65544  0.37771  0.09029  1.0000
  H   H1472     1.0  0.56539  0.31369  0.03824  1.0000
  Fe  Fe187     1.0  0.92994  0.35385  0.45638  1.0000
  S   S370      1.0  0.59619  0.38037  0.04854  1.0000
  H   H1473     1.0  0.54221  0.26376  0.09453  1.0000
  H   H1474     1.0  0.54258  0.24878  0.02699  1.0000
  C   C911      1.0  0.50538  0.20154  0.01541  1.0000
  C   C912      1.0  0.69282  0.34343  0.98931  1.0000
  C   C913      1.0  0.57662  0.25105  0.00690  1.0000
  Fe  Fe188     1.0  0.94935  0.31810  0.47705  1.0000
  S   S371      1.0  0.52730  0.23002  0.10299  1.0000
  C   C914      1.0  0.90921  0.25662  0.47617  1.0000
  H   H1475     1.0  0.62666  0.38587  0.16239  1.0000
  H   H1476     1.0  0.59131  0.36978  0.01853  1.0000
  S   S372      1.0  0.49846  0.24860  0.03215  1.0000
  H   H1477     1.0  0.63254  0.36015  0.12656  1.0000
  H   H1478     1.0  0.51968  0.31255  0.08843  1.0000
  S   S373      1.0  0.90292  0.34513  0.46364  1.0000
  H   H1479     1.0  0.89508  0.37238  0.37968  1.0000
  H   H1480     1.0  0.53720  0.30204  0.05359  1.0000
  C   C915      1.0  0.61247  0.33659  0.99437  1.0000
  H   H1481     1.0  0.56107  0.31729  0.01574  1.0000
  C   C916      1.0  0.92528  0.34880  0.40715  1.0000
  H   H1482     1.0  0.57245  0.26200  0.99522  1.0000
  H   H1483     1.0  0.49992  0.32459  0.13403  1.0000
  H   H1484     1.0  0.91996  0.36784  0.37351  1.0000
  H   H1485     1.0  0.93653  0.38564  0.47472  1.0000
  H   H1486     1.0  0.89214  0.34171  0.42586  1.0000
  C   C917      1.0  0.50665  0.31653  0.12318  1.0000
  H   H1487     1.0  0.89723  0.33860  0.38620  1.0000
  H   H1488     1.0  0.50871  0.34432  0.09387  1.0000
  C   C918      1.0  0.50081  0.20799  0.99809  1.0000
  H   H1489     1.0  0.50836  0.20873  0.03933  1.0000
  S   S374      1.0  0.97629  0.30335  0.48476  1.0000
  C   C919      1.0  0.50540  0.31046  0.09471  1.0000
  H   H1490     1.0  0.52092  0.31899  0.11747  1.0000
  C   C920      1.0  0.97239  0.36947  0.47339  1.0000
  H   H1491     1.0  0.98746  0.36863  0.46774  1.0000
  C   C921      1.0  0.49980  0.23267  0.01924  1.0000
  H   H1492     1.0  0.88297  0.29456  0.48517  1.0000
  H   H1493     1.0  0.69987  0.30847  0.98581  1.0000
  H   H1494     1.0  0.50226  0.27932  0.91076  1.0000
  H   H1495     1.0  0.55749  0.38400  0.87583  1.0000
  C   C922      1.0  0.86648  0.27146  0.51336  1.0000
  C   C923      1.0  0.98139  0.29065  0.65187  1.0000
  C   C924      1.0  0.51916  0.29662  0.93696  1.0000
  H   H1496     1.0  0.84518  0.30083  0.52633  1.0000
  S   S375      1.0  0.90567  0.19004  0.52137  1.0000
  S   S376      1.0  0.49740  0.23252  0.94069  1.0000
  Fe  Fe189     1.0  0.52010  0.22145  0.91889  1.0000
  S   S377      1.0  0.54428  0.23514  0.90694  1.0000
  H   H1497     1.0  0.50492  0.35710  0.91562  1.0000
  H   H1498     1.0  0.50591  0.36524  0.96589  1.0000
  Fe  Fe190     1.0  0.60763  0.31021  0.94150  1.0000
  S   S378      1.0  0.59364  0.33960  0.93501  1.0000
  S   S379      1.0  0.63840  0.30145  0.93853  1.0000
  Fe  Fe191     1.0  0.57172  0.29716  0.95114  1.0000
  S   S380      1.0  0.55456  0.32574  0.94611  1.0000
  S   S381      1.0  0.55727  0.27367  0.96282  1.0000
  Fe  Fe192     1.0  0.57706  0.33044  0.92111  1.0000
  H   H1499     1.0  0.98517  0.23809  0.63361  1.0000
  Fe  Fe193     1.0  0.57275  0.33211  0.96049  1.0000
  H   H1500     1.0  0.86351  0.30843  0.53012  1.0000
  S   S382      1.0  0.59315  0.30143  0.92493  1.0000
  S   S383      1.0  0.58776  0.30309  0.96817  1.0000
  H   H1501     1.0  0.98624  0.31164  0.60944  1.0000
  C   C925      1.0  0.99133  0.35456  0.71127  1.0000
  S   S384      1.0  0.93018  0.34687  0.71569  1.0000
  H   H1502     1.0  0.96134  0.25972  0.57408  1.0000
  C   C926      1.0  0.96740  0.30335  0.66045  1.0000
  H   H1503     1.0  0.94887  0.36221  0.61686  1.0000
  H   H1504     1.0  0.88325  0.27728  0.65641  1.0000
  H   H1505     1.0  0.52001  0.35932  0.94485  1.0000
  Fe  Fe194     1.0  0.93063  0.37636  0.71218  1.0000
  H   H1506     1.0  0.66685  0.35110  0.97011  1.0000
  Fe  Fe195     1.0  0.89309  0.21960  0.51199  1.0000
  S   S385      1.0  0.90795  0.22973  0.52698  1.0000
  H   H1507     1.0  0.69750  0.34984  0.97459  1.0000
  C   C927      1.0  0.98041  0.31497  0.49904  1.0000
  Fe  Fe196     1.0  0.88081  0.19046  0.54463  1.0000
  H   H1508     1.0  0.92165  0.28543  0.55238  1.0000
  Fe  Fe197     1.0  0.88306  0.22745  0.55002  1.0000
  S   S386      1.0  0.87157  0.25176  0.56342  1.0000
  S   S387      1.0  0.52320  0.19248  0.93449  1.0000
  S   S388      1.0  0.86721  0.21951  0.53411  1.0000
  H   H1509     1.0  0.99454  0.35751  0.56528  1.0000
  C   C928      1.0  0.85962  0.26882  0.68880  1.0000
  C   C929      1.0  0.96136  0.20142  0.53929  1.0000
  Fe  Fe198     1.0  0.91016  0.31314  0.64278  1.0000
  S   S389      1.0  0.93661  0.32063  0.62558  1.0000
  S   S390      1.0  0.89095  0.33074  0.66193  1.0000
  Fe  Fe199     1.0  0.91571  0.28074  0.62577  1.0000
  S   S391      1.0  0.94264  0.28547  0.60710  1.0000
  S   S392      1.0  0.90575  0.25578  0.62727  1.0000
  Fe  Fe200     1.0  0.94857  0.29054  0.63178  1.0000
  H   H1510     1.0  0.96247  0.24706  0.55741  1.0000
  Fe  Fe201     1.0  0.92799  0.31494  0.60272  1.0000
  S   S393      1.0  0.93165  0.33460  0.57561  1.0000
  S   S394      1.0  0.92282  0.28339  0.65101  1.0000
  S   S395      1.0  0.90044  0.30990  0.61929  1.0000
  H   H1511     1.0  0.92738  0.35730  0.54075  1.0000
  H   H1512     1.0  0.96662  0.37767  0.62798  1.0000
  H   H1513     1.0  0.97048  0.24063  0.50954  1.0000
  C   C930      1.0  0.89900  0.33364  0.53523  1.0000
  C   C931      1.0  0.90979  0.34656  0.53113  1.0000
  C   C932      1.0  0.91916  0.34717  0.54396  1.0000
  C   C933      1.0  0.91812  0.33460  0.56080  1.0000
  C   C934      1.0  0.90707  0.32182  0.56511  1.0000
  C   C935      1.0  0.89734  0.32147  0.55237  1.0000
  H   H1514     1.0  0.91069  0.35630  0.51814  1.0000
  H   H1515     1.0  0.93125  0.38287  0.61470  1.0000
  H   H1516     1.0  0.90619  0.31209  0.57811  1.0000
  C   C936      1.0  0.88281  0.25287  0.57990  1.0000
  C   C937      1.0  0.89141  0.23694  0.59057  1.0000
  C   C938      1.0  0.89870  0.23801  0.60487  1.0000
  C   C939      1.0  0.89794  0.25502  0.60822  1.0000
  C   C940      1.0  0.89013  0.27103  0.59697  1.0000
  C   C941      1.0  0.88234  0.26993  0.58301  1.0000
  H   H1517     1.0  0.89177  0.22374  0.58833  1.0000
  H   H1518     1.0  0.90472  0.22560  0.61353  1.0000
  H   H1519     1.0  0.88940  0.28421  0.59951  1.0000
  H   H1520     1.0  0.87565  0.28230  0.57483  1.0000
  C   C942      1.0  0.51303  0.38082  0.89653  1.0000
  H   H1521     1.0  0.96049  0.34307  0.58899  1.0000
  H   H1522     1.0  0.84135  0.30413  0.68242  1.0000
  H   H1523     1.0  0.95204  0.32045  0.51374  1.0000
  C   C943      1.0  0.96387  0.26032  0.55910  1.0000
  H   H1524     1.0  0.62992  0.33558  0.91034  1.0000
  H   H1525     1.0  0.50127  0.31270  0.89878  1.0000
  H   H1526     1.0  0.84993  0.29892  0.70306  1.0000
  C   C944      1.0  0.95471  0.27593  0.53044  1.0000
  C   C945      1.0  0.54944  0.36017  0.89479  1.0000
  H   H1527     1.0  0.84694  0.27080  0.68363  1.0000
  H   H1528     1.0  0.69246  0.32387  0.96603  1.0000
  C   C946      1.0  0.98781  0.20940  0.54425  1.0000
  H   H1529     1.0  0.94699  0.35868  0.66627  1.0000
  H   H1530     1.0  0.95103  0.29372  0.56706  1.0000
  C   C947      1.0  0.91880  0.34236  0.70118  1.0000
  C   C948      1.0  0.92423  0.32531  0.69628  1.0000
  C   C949      1.0  0.91592  0.32172  0.68403  1.0000
  C   C950      1.0  0.90150  0.33488  0.67735  1.0000
  C   C951      1.0  0.89548  0.35161  0.68290  1.0000
  C   C952      1.0  0.90443  0.35554  0.69442  1.0000
  H   H1531     1.0  0.93519  0.31499  0.70169  1.0000
  H   H1532     1.0  0.92055  0.30870  0.67996  1.0000
  H   H1533     1.0  0.98298  0.36106  0.58796  1.0000
  S   S396      1.0  0.50124  0.21855  0.90275  1.0000
  H   H1534     1.0  0.85863  0.28672  0.54265  1.0000
  C   C953      1.0  0.98908  0.32564  0.60519  1.0000
  H   H1535     1.0  0.91536  0.24847  0.48757  1.0000
  H   H1536     1.0  0.88891  0.31151  0.55560  1.0000
  H   H1537     1.0  0.63400  0.35541  0.89285  1.0000
  H   H1538     1.0  0.94880  0.22000  0.51771  1.0000
  H   H1539     1.0  0.85944  0.30562  0.49296  1.0000
  C   C954      1.0  0.65151  0.31690  0.93808  1.0000
  C   C955      1.0  0.67070  0.31172  0.93256  1.0000
  C   C956      1.0  0.68189  0.32367  0.93100  1.0000
  C   C957      1.0  0.64350  0.33422  0.94227  1.0000
  H   H1540     1.0  0.67699  0.29840  0.92933  1.0000
  H   H1541     1.0  0.69675  0.31944  0.92664  1.0000
  H   H1542     1.0  0.62867  0.33829  0.94668  1.0000
  H   H1543     1.0  0.90151  0.27514  0.50767  1.0000
  Fe  Fe202     1.0  0.49912  0.20334  0.95550  1.0000
  C   C958      1.0  0.97205  0.33400  0.58134  1.0000
  H   H1544     1.0  0.53711  0.33868  0.91385  1.0000
  H   H1545     1.0  0.52601  0.27693  0.91071  1.0000
  H   H1546     1.0  0.94572  0.28785  0.52311  1.0000
  H   H1547     1.0  0.88414  0.36173  0.67797  1.0000
  C   C959      1.0  0.87324  0.30074  0.49653  1.0000
  N   N94       1.0  0.95099  0.27587  0.55022  1.0000
  Fe  Fe203     1.0  0.91804  0.20004  0.53880  1.0000
  C   C960      1.0  0.54980  0.24400  0.92287  1.0000
  C   C961      1.0  0.56130  0.25659  0.91656  1.0000
  C   C962      1.0  0.56416  0.26537  0.92881  1.0000
  C   C963      1.0  0.55559  0.26155  0.94744  1.0000
  C   C964      1.0  0.54463  0.24849  0.95386  1.0000
  C   C965      1.0  0.54180  0.23969  0.94162  1.0000
  H   H1548     1.0  0.56757  0.25992  0.90207  1.0000
  H   H1549     1.0  0.57268  0.27537  0.92372  1.0000
  H   H1550     1.0  0.53794  0.24543  0.96826  1.0000
  H   H1551     1.0  0.53326  0.22971  0.94671  1.0000
  N   N95       1.0  0.63954  0.33069  0.88302  1.0000
  C   C966      1.0  0.65224  0.33720  0.86577  1.0000
  C   C967      1.0  0.62072  0.33433  0.87976  1.0000
  C   C968      1.0  0.63914  0.34041  0.89709  1.0000
  C   C969      1.0  0.64603  0.31082  0.88954  1.0000
  C   C970      1.0  0.89115  0.28157  0.51856  1.0000
  H   H1552     1.0  0.54273  0.37762  0.92543  1.0000
  H   H1553     1.0  0.66657  0.33454  0.86782  1.0000
  H   H1554     1.0  0.61515  0.34920  0.87505  1.0000
  H   H1555     1.0  0.62039  0.32724  0.86924  1.0000
  H   H1556     1.0  0.85580  0.26552  0.70408  1.0000
  H   H1557     1.0  0.56893  0.23774  0.98197  1.0000
  H   H1558     1.0  0.61085  0.32953  0.89254  1.0000
  H   H1559     1.0  0.65312  0.33808  0.89988  1.0000
  H   H1560     1.0  0.89993  0.36860  0.69840  1.0000
  C   C971      1.0  0.93598  0.37000  0.62438  1.0000
  H   H1561     1.0  0.64750  0.30310  0.87891  1.0000
  C   C972      1.0  0.65484  0.34629  0.94074  1.0000
  Fe  Fe204     1.0  0.50208  0.19024  0.92053  1.0000
  C   C973      1.0  0.87270  0.28885  0.66153  1.0000
  H   H1562     1.0  0.95324  0.30515  0.65961  1.0000
  H   H1563     1.0  0.92836  0.27432  0.57383  1.0000
  H   H1564     1.0  0.85987  0.31369  0.68279  1.0000
  H   H1565     1.0  0.97799  0.33427  0.61371  1.0000
  H   H1566     1.0  0.51068  0.26801  0.93123  1.0000
  H   H1567     1.0  0.95880  0.34862  0.64678  1.0000
  C   C974      1.0  0.85936  0.29626  0.52898  1.0000
  H   H1568     1.0  0.92930  0.26100  0.55789  1.0000
  H   H1569     1.0  0.65281  0.33025  0.85478  1.0000
  N   N96       1.0  0.52361  0.38365  0.95019  1.0000
  H   H1570     1.0  0.53380  0.38194  0.97390  1.0000
  N   N97       1.0  0.86768  0.28520  0.68182  1.0000
  H   H1571     1.0  0.89500  0.27007  0.68485  1.0000
  H   H1572     1.0  0.96872  0.32025  0.58504  1.0000
  S   S397      1.0  0.97645  0.27841  0.63855  1.0000
  H   H1573     1.0  0.86052  0.29107  0.65553  1.0000
  C   C975      1.0  0.51171  0.27963  0.91917  1.0000
  C   C976      1.0  0.97181  0.22874  0.52066  1.0000
  H   H1574     1.0  0.63614  0.30530  0.90194  1.0000
  C   C977      1.0  0.67411  0.34095  0.93506  1.0000
  H   H1575     1.0  0.97853  0.26134  0.55295  1.0000
  H   H1576     1.0  0.51788  0.28526  0.94930  1.0000
  H   H1577     1.0  0.97202  0.33938  0.56650  1.0000
  N   N98       1.0  0.93898  0.37383  0.64087  1.0000
  H   H1578     1.0  0.86557  0.26134  0.52667  1.0000
  C   C978      1.0  0.97177  0.31362  0.67036  1.0000
  H   H1579     1.0  0.53394  0.29449  0.92966  1.0000
  N   N99       1.0  0.50708  0.29727  0.92485  1.0000
  C   C979      1.0  0.54605  0.37805  0.88448  1.0000
  C   C980      1.0  0.51635  0.36284  0.90674  1.0000
  H   H1580     1.0  0.91018  0.37648  0.65400  1.0000
  C   C981      1.0  0.97566  0.19751  0.54865  1.0000
  S   S398      1.0  0.94621  0.18643  0.54492  1.0000
  H   H1581     1.0  0.94052  0.37749  0.49764  1.0000
  N   N100      1.0  0.87256  0.28751  0.51435  1.0000
  N   N101      1.0  0.98995  0.33307  0.58534  1.0000
  S   S399      1.0  0.68948  0.35478  0.93309  1.0000
  C   C982      1.0  0.50992  0.31202  0.90837  1.0000
  H   H1582     1.0  0.64871  0.35964  0.94391  1.0000
  H   H1583     1.0  0.89596  0.29329  0.51981  1.0000
  H   H1584     1.0  0.65961  0.30762  0.89347  1.0000
  C   C983      1.0  0.96576  0.32256  0.51192  1.0000
  H   H1585     1.0  0.87846  0.30134  0.65586  1.0000
  C   C984      1.0  0.88439  0.28200  0.68909  1.0000
  H   H1586     1.0  0.94410  0.30516  0.54594  1.0000
  C   C985      1.0  0.98631  0.33642  0.51961  1.0000
  C   C986      1.0  0.98590  0.22504  0.53020  1.0000
  C   C987      1.0  0.53457  0.35255  0.90599  1.0000
  C   C988      1.0  0.51971  0.36514  0.95656  1.0000
  S   S400      1.0  0.98917  0.35202  0.53046  1.0000
  S   S401      1.0  0.57238  0.34792  0.89395  1.0000
  C   C989      1.0  0.95369  0.29316  0.55237  1.0000
  H   H1587     1.0  0.95231  0.26333  0.52828  1.0000
  H   H1588     1.0  0.88111  0.27938  0.70436  1.0000
  H   H1589     1.0  0.89089  0.29408  0.68399  1.0000
  S   S402      1.0  0.88845  0.33214  0.51854  1.0000
  H   H1590     1.0  0.95746  0.33905  0.53227  1.0000
  H   H1591     1.0  0.96934  0.27663  0.52354  1.0000
  H   H1592     1.0  0.92521  0.36178  0.62813  1.0000
  C   C990      1.0  0.95946  0.21710  0.52531  1.0000
  H   H1593     1.0  0.67761  0.30968  0.98178  1.0000
  C   C991      1.0  0.93174  0.27408  0.55895  1.0000
  H   H1594     1.0  0.86957  0.25664  0.68426  1.0000
  C   C992      1.0  0.96879  0.33304  0.52242  1.0000
  H   H1595     1.0  0.96106  0.32340  0.67708  1.0000
  C   C993      1.0  0.85406  0.30114  0.68782  1.0000
  Fe  Fe205     1.0  0.68288  0.38189  0.94128  1.0000
  H   H1596     1.0  0.87794  0.31294  0.49678  1.0000
  H   H1597     1.0  0.96805  0.29498  0.54586  1.0000
  H   H1598     1.0  0.64778  0.35218  0.86057  1.0000
  H   H1599     1.0  0.52995  0.35562  0.96439  1.0000
  H   H1600     1.0  0.93517  0.34747  0.65728  1.0000
  C   C994      1.0  0.99013  0.31168  0.67110  1.0000
  H   H1601     1.0  0.98140  0.36516  0.71833  1.0000
  H   H1602     1.0  0.98440  0.34307  0.71359  1.0000
  H   H1603     1.0  0.87628  0.26428  0.50273  1.0000
  Fe  Fe206     1.0  0.90911  0.33344  0.49170  1.0000
  H   H1604     1.0  0.99472  0.22305  0.61763  1.0000
  H   H1605     1.0  0.89123  0.27141  0.53177  1.0000
  H   H1606     1.0  0.60089  0.32989  0.97549  1.0000
  S   S403      1.0  0.89403  0.19845  0.56300  1.0000
  H   H1607     1.0  0.85265  0.27542  0.50991  1.0000
  C   C995      1.0  0.94527  0.35641  0.65330  1.0000
  S   S404      1.0  0.56326  0.35169  0.97926  1.0000
  H   H1608     1.0  0.52456  0.30984  0.90060  1.0000
  H   H1609     1.0  0.55306  0.37327  0.94472  1.0000
  C   C996      1.0  0.54209  0.38271  0.93775  1.0000
  H   H1610     1.0  0.99382  0.36062  0.69627  1.0000
  H   H1611     1.0  0.51573  0.30956  0.94187  1.0000
  C   C997      1.0  0.99387  0.35154  0.58021  1.0000
  C   C998      1.0  0.92143  0.38401  0.65046  1.0000
  H   H1612     1.0  0.50632  0.32559  0.91201  1.0000
  S   S405      1.0  0.99588  0.32623  0.68124  1.0000
  H   H1613     1.0  0.96959  0.38032  0.50407  1.0000
  H   H1614     1.0  0.99496  0.35043  0.74563  1.0000
  H   H1615     1.0  0.51151  0.19156  0.84413  1.0000
  S   S406      1.0  0.94261  0.38580  0.73048  1.0000
  C   C999      1.0  0.95317  0.38489  0.63532  1.0000
  C   C1000     1.0  0.68767  0.31792  0.98087  1.0000
  H   H1616     1.0  0.52676  0.18714  0.81244  1.0000
  C   C1001     1.0  0.59872  0.33868  0.98482  1.0000
  C   C1002     1.0  0.66291  0.34429  0.98474  1.0000
  S   S407      1.0  0.92443  0.30598  0.48602  1.0000
  H   H1617     1.0  0.65256  0.33639  0.98574  1.0000
  S   S408      1.0  0.50111  0.19226  0.98529  1.0000
  H   H1618     1.0  0.97085  0.35842  0.48595  1.0000
  Fe  Fe207     1.0  0.91962  0.47020  0.33912  1.0000
  S   S409      1.0  0.89427  0.46196  0.33832  1.0000
  S   S410      1.0  0.94670  0.46667  0.31881  1.0000
  Fe  Fe208     1.0  0.90146  0.48523  0.37347  1.0000
  S   S411      1.0  0.87432  0.47858  0.37590  1.0000
  Fe  Fe209     1.0  0.89160  0.45197  0.36890  1.0000
  S   S412      1.0  0.88406  0.42531  0.38535  1.0000
  Fe  Fe210     1.0  0.87924  0.48917  0.34536  1.0000
  S   S413      1.0  0.85939  0.51120  0.33054  1.0000
  S   S414      1.0  0.91832  0.45794  0.36891  1.0000
  S   S415      1.0  0.90491  0.49815  0.34354  1.0000
  H   H1619     1.0  0.96945  0.41909  0.39674  1.0000
  C   C1003     1.0  0.95465  0.55073  0.20411  1.0000
  S   S416      1.0  0.89680  0.52750  0.19892  1.0000
  S   S417      1.0  0.85792  0.55951  0.17020  1.0000
  Fe  Fe211     1.0  0.88277  0.52667  0.22860  1.0000
  S   S418      1.0  0.87996  0.50045  0.24897  1.0000
  S   S419      1.0  0.69431  0.47050  0.07013  1.0000
  S   S420      1.0  0.64650  0.48492  0.09805  1.0000
  H   H1620     1.0  0.89055  0.57323  0.15580  1.0000
  C   C1004     1.0  0.63278  0.58002  0.04415  1.0000
  H   H1621     1.0  0.93731  0.51591  0.24501  1.0000
  H   H1622     1.0  0.64366  0.45063  0.99658  1.0000
  H   H1623     1.0  0.84085  0.56988  0.29387  1.0000
  H   H1624     1.0  0.93234  0.54422  0.11853  1.0000
  H   H1625     1.0  0.86928  0.54678  0.33788  1.0000
  C   C1005     1.0  0.70130  0.52165  0.07116  1.0000
  H   H1626     1.0  0.75064  0.43197  0.00349  1.0000
  Fe  Fe212     1.0  0.66480  0.56816  0.10643  1.0000
  S   S421      1.0  0.67596  0.54051  0.12229  1.0000
  S   S422      1.0  0.94121  0.54755  0.19047  1.0000
  H   H1627     1.0  0.72590  0.55602  0.99104  1.0000
  S   S423      1.0  0.60003  0.38881  0.09383  1.0000
  H   H1628     1.0  0.72350  0.54427  0.04998  1.0000
  Fe  Fe213     1.0  0.81181  0.51914  0.11548  1.0000
  S   S424      1.0  0.81248  0.53785  0.08745  1.0000
  S   S425      1.0  0.83300  0.50871  0.13356  1.0000
  Fe  Fe214     1.0  0.77456  0.51132  0.11703  1.0000
  S   S426      1.0  0.77167  0.52939  0.08973  1.0000
  S   S427      1.0  0.75183  0.49692  0.13363  1.0000
  Fe  Fe215     1.0  0.80163  0.51711  0.08034  1.0000
  S   S428      1.0  0.81195  0.50568  0.05455  1.0000
  Fe  Fe216     1.0  0.78236  0.54865  0.09886  1.0000
  H   H1629     1.0  0.84345  0.57016  0.35058  1.0000
  S   S429      1.0  0.80377  0.49733  0.10721  1.0000
  S   S430      1.0  0.78247  0.53163  0.12726  1.0000
  C   C1006     1.0  0.72324  0.55280  0.11776  1.0000
  Fe  Fe217     1.0  0.69158  0.45054  0.05585  1.0000
  S   S431      1.0  0.75979  0.51673  0.00021  1.0000
  C   C1007     1.0  0.92476  0.55280  0.15152  1.0000
  H   H1630     1.0  0.85818  0.57545  0.36164  1.0000
  C   C1008     1.0  0.75148  0.58388  0.08262  1.0000
  H   H1631     1.0  0.85163  0.51010  0.00443  1.0000
  H   H1632     1.0  0.61225  0.41601  0.03104  1.0000
  C   C1009     1.0  0.91308  0.52739  0.37260  1.0000
  C   C1010     1.0  0.97677  0.55474  0.22576  1.0000
  C   C1011     1.0  0.79602  0.50791  0.04113  1.0000
  C   C1012     1.0  0.78070  0.52257  0.04040  1.0000
  C   C1013     1.0  0.76942  0.52500  0.02804  1.0000
  C   C1014     1.0  0.77347  0.51286  0.01631  1.0000
  C   C1015     1.0  0.78845  0.49793  0.01742  1.0000
  C   C1016     1.0  0.79965  0.49547  0.02982  1.0000
  H   H1633     1.0  0.77798  0.53244  0.04882  1.0000
  H   H1634     1.0  0.75790  0.53664  0.02718  1.0000
  H   H1635     1.0  0.79149  0.48834  0.00868  1.0000
  H   H1636     1.0  0.81134  0.48398  0.03054  1.0000
  H   H1637     1.0  0.62822  0.56039  0.01219  1.0000
  S   S432      1.0  0.99007  0.55662  0.24011  1.0000
  S   S433      1.0  0.88885  0.57171  0.19470  1.0000
  H   H1638     1.0  0.73402  0.51148  0.04821  1.0000
  H   H1639     1.0  0.83694  0.56906  0.37501  1.0000
  C   C1017     1.0  0.92224  0.39292  0.42441  1.0000
  H   H1640     1.0  0.91240  0.55956  0.11095  1.0000
  H   H1641     1.0  0.95480  0.42889  0.37023  1.0000
  H   H1642     1.0  0.57786  0.40000  0.00775  1.0000
  N   N102      1.0  0.97391  0.44207  0.37446  1.0000
  C   C1018     1.0  0.72069  0.51652  0.09247  1.0000
  H   H1643     1.0  0.87910  0.56009  0.26466  1.0000
  S   S434      1.0  0.63584  0.58509  0.10930  1.0000
  H   H1644     1.0  0.76758  0.56534  0.06502  1.0000
  C   C1019     1.0  0.80101  0.56781  0.28457  1.0000
  H   H1645     1.0  0.87704  0.40288  0.42171  1.0000
  C   C1020     1.0  0.91834  0.55183  0.38303  1.0000
  H   H1646     1.0  0.95209  0.55548  0.24724  1.0000
  H   H1647     1.0  0.68419  0.39575  0.03795  1.0000
  H   H1648     1.0  0.94387  0.40315  0.40316  1.0000
  H   H1649     1.0  0.98582  0.55718  0.36207  1.0000
  C   C1021     1.0  0.64127  0.40624  0.04700  1.0000
  H   H1650     1.0  0.71042  0.52642  0.10021  1.0000
  H   H1651     1.0  0.82727  0.56429  0.25366  1.0000
  C   C1022     1.0  0.84588  0.53499  0.36864  1.0000
  C   C1023     1.0  0.69457  0.42262  0.99552  1.0000
  C   C1024     1.0  0.63476  0.56596  0.01926  1.0000
  C   C1025     1.0  0.50173  0.38721  0.07848  1.0000
  H   H1652     1.0  0.74538  0.54983  0.14047  1.0000
  C   C1026     1.0  0.68769  0.40744  0.02747  1.0000
  C   C1027     1.0  0.69000  0.42246  0.03254  1.0000
  H   H1653     1.0  0.52927  0.39041  0.07597  1.0000
  H   H1654     1.0  0.68820  0.42223  0.04690  1.0000
  C   C1028     1.0  0.65443  0.50006  0.10549  1.0000
  C   C1029     1.0  0.67042  0.49411  0.11262  1.0000
  C   C1030     1.0  0.67667  0.50640  0.11848  1.0000
  C   C1031     1.0  0.66732  0.52475  0.11655  1.0000
  C   C1032     1.0  0.65155  0.53071  0.10913  1.0000
  C   C1033     1.0  0.64496  0.51832  0.10385  1.0000
  H   H1655     1.0  0.67775  0.47997  0.11398  1.0000
  H   H1656     1.0  0.68880  0.50172  0.12434  1.0000
  H   H1657     1.0  0.64421  0.54484  0.10769  1.0000
  H   H1658     1.0  0.63257  0.52296  0.09839  1.0000
  C   C1034     1.0  0.72922  0.46578  0.11537  1.0000
  C   C1035     1.0  0.73236  0.47599  0.12622  1.0000
  C   C1036     1.0  0.74816  0.48344  0.12067  1.0000
  C   C1037     1.0  0.76082  0.48054  0.10436  1.0000
  H   H1659     1.0  0.71700  0.46011  0.11963  1.0000
  H   H1660     1.0  0.72243  0.47832  0.13876  1.0000
  H   H1661     1.0  0.77299  0.48627  0.09986  1.0000
  C   C1038     1.0  0.85064  0.54498  0.16080  1.0000
  C   C1039     1.0  0.85634  0.52593  0.16522  1.0000
  C   C1040     1.0  0.85082  0.51501  0.15678  1.0000
  C   C1041     1.0  0.83942  0.52298  0.14402  1.0000
  C   C1042     1.0  0.83360  0.54200  0.13974  1.0000
  C   C1043     1.0  0.83930  0.55292  0.14800  1.0000
  H   H1662     1.0  0.86509  0.51962  0.17503  1.0000
  H   H1663     1.0  0.85543  0.50031  0.16016  1.0000
  H   H1664     1.0  0.82488  0.54834  0.12992  1.0000
  H   H1665     1.0  0.83485  0.56764  0.14445  1.0000
  S   S435      1.0  0.73934  0.44949  0.08546  1.0000
  C   C1044     1.0  0.94291  0.38813  0.48481  1.0000
  C   C1045     1.0  0.98134  0.56437  0.31809  1.0000
  H   H1666     1.0  0.93267  0.55247  0.22811  1.0000
  H   H1667     1.0  0.68875  0.56389  0.13698  1.0000
  S   S436      1.0  0.66560  0.44420  0.07503  1.0000
  H   H1668     1.0  0.71379  0.55044  0.07183  1.0000
  C   C1046     1.0  0.89864  0.41343  0.40063  1.0000
  C   C1047     1.0  0.91754  0.41332  0.39539  1.0000
  H   H1669     1.0  0.85173  0.48511  0.99041  1.0000
  C   C1048     1.0  0.86581  0.54222  0.38355  1.0000
  C   C1049     1.0  0.95926  0.45554  0.38360  1.0000
  H   H1670     1.0  0.92322  0.42045  0.38187  1.0000
  H   H1671     1.0  0.77946  0.43374  0.02333  1.0000
  H   H1672     1.0  0.84038  0.53800  0.35602  1.0000
  C   C1050     1.0  0.96051  0.47922  0.32249  1.0000
  C   C1051     1.0  0.97832  0.47930  0.31163  1.0000
  C   C1052     1.0  0.83877  0.49340  0.98610  1.0000
  C   C1053     1.0  0.98247  0.49921  0.32869  1.0000
  C   C1054     1.0  0.96466  0.49922  0.33945  1.0000
  C   C1055     1.0  0.95387  0.48894  0.33657  1.0000
  H   H1673     1.0  0.75176  0.43885  0.04873  1.0000
  C   C1056     1.0  0.89806  0.57337  0.14129  1.0000
  H   H1674     1.0  0.95945  0.50656  0.35049  1.0000
  H   H1675     1.0  0.94064  0.48821  0.34566  1.0000
  C   C1057     1.0  0.86394  0.50834  0.30793  1.0000
  C   C1058     1.0  0.86781  0.49085  0.30440  1.0000
  C   C1059     1.0  0.87231  0.48851  0.28626  1.0000
  C   C1060     1.0  0.87309  0.50364  0.27160  1.0000
  C   C1061     1.0  0.86898  0.52117  0.27511  1.0000
  C   C1062     1.0  0.86436  0.52353  0.29327  1.0000
  H   H1676     1.0  0.86715  0.47910  0.31567  1.0000
  H   H1677     1.0  0.87542  0.47493  0.28359  1.0000
  H   H1678     1.0  0.86952  0.53285  0.26380  1.0000
  H   H1679     1.0  0.86165  0.53701  0.29594  1.0000
  C   C1063     1.0  0.75468  0.57497  0.06826  1.0000
  N   N103      1.0  0.71794  0.55840  0.13559  1.0000
  N   N104      1.0  0.96285  0.38764  0.47746  1.0000
  H   H1680     1.0  0.88199  0.52955  0.35299  1.0000
  H   H1681     1.0  0.67597  0.57545  0.01676  1.0000
  C   C1064     1.0  0.74126  0.57876  0.05787  1.0000
  H   H1682     1.0  0.93229  0.56405  0.14785  1.0000
  C   C1065     1.0  0.92193  0.55711  0.12028  1.0000
  C   C1066     1.0  0.98941  0.48912  0.31490  1.0000
  H   H1683     1.0  0.98493  0.46252  0.35248  1.0000
  C   C1067     1.0  0.62451  0.40508  0.09910  1.0000
  H   H1684     1.0  0.97725  0.42565  0.35506  1.0000
  H   H1685     1.0  0.63275  0.42048  0.01424  1.0000
  H   H1686     1.0  0.72345  0.53806  0.11973  1.0000
  H   H1687     1.0  0.73210  0.53242  0.14899  1.0000
  H   H1688     1.0  0.98576  0.43081  0.39825  1.0000
  H   H1689     1.0  0.69481  0.55931  0.15876  1.0000
  S   S437      1.0  0.76703  0.57780  0.09714  1.0000
  H   H1690     1.0  0.96969  0.56958  0.31082  1.0000
  C   C1068     1.0  0.99050  0.55743  0.34708  1.0000
  C   C1069     1.0  0.90343  0.39266  0.42956  1.0000
  H   H1691     1.0  0.60768  0.39277  0.98589  1.0000
  N   N105      1.0  0.75248  0.44943  0.01987  1.0000
  C   C1070     1.0  0.74429  0.46628  0.00789  1.0000
  C   C1071     1.0  0.74647  0.43371  0.01797  1.0000
  C   C1072     1.0  0.74629  0.45147  0.03916  1.0000
  H   H1692     1.0  0.73727  0.55498  0.11017  1.0000
  H   H1693     1.0  0.72893  0.46920  0.01179  1.0000
  C   C1073     1.0  0.71812  0.57794  0.13244  1.0000
  C   C1074     1.0  0.69920  0.55552  0.14513  1.0000
  H   H1694     1.0  0.73095  0.45433  0.04352  1.0000
  H   H1695     1.0  0.75097  0.46290  0.04125  1.0000
  H   H1696     1.0  0.82694  0.51477  0.01108  1.0000
  C   C1075     1.0  0.73387  0.50798  0.06317  1.0000
  C   C1076     1.0  0.65342  0.56666  0.01288  1.0000
  H   H1697     1.0  0.88400  0.55282  0.34859  1.0000
  H   H1698     1.0  0.74806  0.50723  0.06460  1.0000
  C   C1077     1.0  0.96126  0.55252  0.34627  1.0000
  H   H1699     1.0  0.91479  0.51443  0.41779  1.0000
  C   C1078     1.0  0.96644  0.43562  0.36235  1.0000
  N   N106      1.0  0.64642  0.50669  0.03949  1.0000
  C   C1079     1.0  0.62700  0.51425  0.03783  1.0000
  C   C1080     1.0  0.64892  0.48695  0.04777  1.0000
  C   C1081     1.0  0.65097  0.51612  0.05129  1.0000
  C   C1082     1.0  0.65879  0.50933  0.02107  1.0000
  H   H1700     1.0  0.62326  0.50783  0.02854  1.0000
  H   H1701     1.0  0.62451  0.52924  0.03213  1.0000
  H   H1702     1.0  0.61729  0.51198  0.05145  1.0000
  H   H1703     1.0  0.66349  0.48083  0.04895  1.0000
  H   H1704     1.0  0.64004  0.48437  0.06185  1.0000
  H   H1705     1.0  0.64553  0.47945  0.03923  1.0000
  H   H1706     1.0  0.66532  0.51035  0.05338  1.0000
  H   H1707     1.0  0.64158  0.51470  0.06517  1.0000
  H   H1708     1.0  0.64966  0.53102  0.04524  1.0000
  H   H1709     1.0  0.67356  0.50372  0.02182  1.0000
  H   H1710     1.0  0.65721  0.52405  0.01434  1.0000
  H   H1711     1.0  0.65574  0.50228  0.01188  1.0000
  N   N107      1.0  0.85864  0.54684  0.36663  1.0000
  H   H1712     1.0  0.89447  0.53932  0.15989  1.0000
  C   C1083     1.0  0.87419  0.54389  0.35083  1.0000
  H   H1713     1.0  0.94734  0.44949  0.39220  1.0000
  C   C1084     1.0  0.96574  0.58320  0.34030  1.0000
  C   C1085     1.0  0.87814  0.57071  0.28787  1.0000
  N   N108      1.0  0.91169  0.55601  0.13959  1.0000
  H   H1714     1.0  0.79121  0.57582  0.29454  1.0000
  C   C1086     1.0  0.52502  0.38930  0.05001  1.0000
  S   S438      1.0  0.63230  0.48889  0.99430  1.0000
  H   H1715     1.0  0.73119  0.43552  0.02212  1.0000
  Fe  Fe218     1.0  0.68436  0.42201  0.09073  1.0000
  C   C1087     1.0  0.89163  0.40294  0.41767  1.0000
  C   C1088     1.0  0.66162  0.57456  0.02181  1.0000
  H   H1716     1.0  0.81781  0.57489  0.30719  1.0000
  H   H1717     1.0  0.60705  0.42133  0.06263  1.0000
  H   H1718     1.0  0.60809  0.44477  0.05210  1.0000
  H   H1719     1.0  0.69049  0.53139  0.07875  1.0000
  C   C1089     1.0  0.96544  0.40183  0.46040  1.0000
  C   C1090     1.0  0.62447  0.57245  0.03502  1.0000
  S   S439      1.0  0.67905  0.39353  0.09845  1.0000
  Fe  Fe219     1.0  0.87339  0.55153  0.19342  1.0000
  C   C1091     1.0  0.69381  0.43791  0.01910  1.0000
  C   C1092     1.0  0.69665  0.43777  0.00056  1.0000
  H   H1720     1.0  0.69847  0.54096  0.14736  1.0000
  S   S440      1.0  0.54722  0.39185  0.03773  1.0000
  S   S441      1.0  0.90705  0.49485  0.39572  1.0000
  S   S442      1.0  0.85836  0.54926  0.22303  1.0000
  C   C1093     1.0  0.92926  0.40328  0.40734  1.0000
  N   N109      1.0  0.71997  0.52152  0.07285  1.0000
  Fe  Fe220     1.0  0.66997  0.46205  0.09092  1.0000
  S   S443      1.0  0.69442  0.45755  0.02554  1.0000
  H   H1721     1.0  0.49750  0.38739  0.09297  1.0000
  C   C1094     1.0  0.74215  0.46264  0.09923  1.0000
  H   H1722     1.0  0.63188  0.39653  0.05314  1.0000
  S   S444      1.0  0.66858  0.56932  0.07663  1.0000
  H   H1723     1.0  0.91138  0.52225  0.36175  1.0000
  C   C1095     1.0  0.95808  0.55428  0.23313  1.0000
  C   C1096     1.0  0.65121  0.58150  0.03728  1.0000
  C   C1097     1.0  0.75794  0.46999  0.09382  1.0000
  H   H1724     1.0  0.65081  0.43757  0.04462  1.0000
  H   H1725     1.0  0.91177  0.52748  0.14387  1.0000
  C   C1098     1.0  0.94705  0.55246  0.22232  1.0000
  H   H1726     1.0  0.70246  0.56517  0.98842  1.0000
  C   C1099     1.0  0.91239  0.51639  0.39026  1.0000
  H   H1727     1.0  0.74376  0.57191  0.04674  1.0000
  H   H1728     1.0  0.70029  0.44938  0.99007  1.0000
  Fe  Fe221     1.0  0.71097  0.44644  0.08620  1.0000
  Fe  Fe222     1.0  0.91094  0.54749  0.20284  1.0000
  C   C1100     1.0  0.77286  0.44629  0.01446  1.0000
  H   H1729     1.0  0.74888  0.47837  0.00860  1.0000
  C   C1101     1.0  0.64382  0.43755  0.03385  1.0000
  H   H1730     1.0  0.64342  0.41805  0.10412  1.0000
  H   H1731     1.0  0.91583  0.55376  0.35554  1.0000
  H   H1732     1.0  0.76800  0.46759  0.08136  1.0000
  H   H1733     1.0  0.88737  0.57585  0.13322  1.0000
  H   H1734     1.0  0.80819  0.52042  0.98796  1.0000
  C   C1102     1.0  0.91572  0.54523  0.36907  1.0000
  C   C1103     1.0  0.84879  0.56621  0.36340  1.0000
  N   N110      1.0  0.63095  0.42499  0.04083  1.0000
  C   C1104     1.0  0.98941  0.45072  0.36334  1.0000
  H   H1735     1.0  0.65489  0.43342  0.02212  1.0000
  H   H1736     1.0  0.95551  0.51680  0.26671  1.0000
  H   H1737     1.0  0.95866  0.41575  0.46299  1.0000
  C   C1105     1.0  0.83208  0.56077  0.26673  1.0000
  H   H1738     1.0  0.93526  0.53979  0.15079  1.0000
  H   H1739     1.0  0.78726  0.46169  0.19013  1.0000
  H   H1740     1.0  0.81091  0.46247  0.18775  1.0000
  H   H1741     1.0  0.73460  0.51605  0.09439  1.0000
  H   H1742     1.0  0.64890  0.40568  0.05748  1.0000
  H   H1743     1.0  0.65162  0.40099  0.03537  1.0000
  H   H1744     1.0  0.79695  0.49723  0.14795  1.0000
  H   H1745     1.0  0.91700  0.53109  0.28917  1.0000
  H   H1746     1.0  0.78936  0.47179  0.13996  1.0000
  C   C1106     1.0  0.83878  0.51790  0.99962  1.0000
  S   S445      1.0  0.68667  0.43939  0.10869  1.0000
  H   H1747     1.0  0.78193  0.49282  0.17012  1.0000
  H   H1748     1.0  0.95990  0.58351  0.35508  1.0000
  H   H1749     1.0  0.77799  0.44451  1.00000  1.0000
  S   S446      1.0  0.89882  0.54443  0.23296  1.0000
  H   H1750     1.0  0.61249  0.41554  0.10290  1.0000
  C   C1107     1.0  0.97334  0.55133  0.19668  1.0000
  C   C1108     1.0  0.80144  0.45885  0.18141  1.0000
  H   H1751     1.0  0.91666  0.50695  0.25384  1.0000
  H   H1752     1.0  0.61466  0.41231  0.98761  1.0000
  H   H1753     1.0  0.80569  0.44387  0.18203  1.0000
  H   H1754     1.0  0.88195  0.55736  0.29643  1.0000
  C   C1109     1.0  0.91841  0.54055  0.40046  1.0000
  S   S447      1.0  0.66679  0.55757  0.99395  1.0000
  C   C1110     1.0  0.72400  0.53989  0.06479  1.0000
  C   C1111     1.0  0.68913  0.40786  0.00898  1.0000
  C   C1112     1.0  0.91834  0.52807  0.27556  1.0000
  H   H1755     1.0  0.90536  0.49739  0.28726  1.0000
  H   H1756     1.0  0.90412  0.53006  0.27357  1.0000
  C   C1113     1.0  0.79633  0.48905  0.16218  1.0000
  N   N111      1.0  0.97473  0.56438  0.33791  1.0000
  H   H1757     1.0  0.83099  0.46931  0.15660  1.0000
  H   H1758     1.0  0.73109  0.49400  0.06884  1.0000
  S   S448      1.0  0.71025  0.42692  0.06996  1.0000
  H   H1759     1.0  0.92502  0.53846  0.26481  1.0000
  C   C1114     1.0  0.62218  0.42521  0.02605  1.0000
  S   S449      1.0  0.68219  0.39094  0.00311  1.0000
  H   H1760     1.0  0.95612  0.49303  0.27717  1.0000
  H   H1761     1.0  0.91841  0.49802  0.30288  1.0000
  H   H1762     1.0  0.77787  0.45797  0.01552  1.0000
  N   N112      1.0  0.80202  0.46930  0.16230  1.0000
  C   C1115     1.0  0.93054  0.50592  0.25627  1.0000
  H   H1763     1.0  0.61013  0.57151  0.04022  1.0000
  H   H1764     1.0  0.80568  0.49349  0.16797  1.0000
  H   H1765     1.0  0.79303  0.44936  0.15430  1.0000
  C   C1116     1.0  0.91956  0.49605  0.28890  1.0000
  C   C1117     1.0  0.73127  0.54732  0.14702  1.0000
  H   H1766     1.0  0.83832  0.53272  0.99751  1.0000
  H   H1767     1.0  0.74822  0.46498  0.99331  1.0000
  C   C1118     1.0  0.82107  0.46521  0.15123  1.0000
  H   H1768     1.0  0.71744  0.50286  0.09901  1.0000
  H   H1769     1.0  0.87335  0.52766  0.38638  1.0000
  H   H1770     1.0  0.73799  0.54023  0.06589  1.0000
  H   H1771     1.0  0.75252  0.42072  0.02667  1.0000
  H   H1772     1.0  0.82204  0.47291  0.13672  1.0000
  N   N113      1.0  0.92907  0.50931  0.27454  1.0000
  H   H1773     1.0  0.92715  0.48172  0.28843  1.0000
  H   H1774     1.0  0.80137  0.55306  0.29080  1.0000
  H   H1775     1.0  0.83312  0.54586  0.27239  1.0000
  H   H1776     1.0  0.82598  0.45043  0.15105  1.0000
  C   C1119     1.0  0.78926  0.46418  0.15439  1.0000
  C   C1120     1.0  0.91523  0.52294  0.40413  1.0000
  H   H1777     1.0  0.94717  0.50973  0.29109  1.0000
  H   H1778     1.0  0.77468  0.46740  0.16218  1.0000
  H   H1779     1.0  0.93882  0.49198  0.25494  1.0000
  C   C1121     1.0  0.98435  0.55347  0.20742  1.0000
  N   N114      1.0  0.81963  0.57173  0.27997  1.0000
  C   C1122     1.0  0.94779  0.50717  0.27745  1.0000
  H   H1780     1.0  0.62287  0.43154  0.06748  1.0000
  H   H1781     1.0  0.73223  0.58047  0.12572  1.0000
  Fe  Fe223     1.0  0.87577  0.56728  0.22475  1.0000
  C   C1123     1.0  0.90199  0.54077  0.14527  1.0000
  H   H1782     1.0  0.69788  0.50795  0.07707  1.0000
  H   H1783     1.0  0.63657  0.45186  0.02900  1.0000
  H   H1784     1.0  0.96116  0.44714  0.35165  1.0000
  H   H1785     1.0  0.91744  0.55192  0.16616  1.0000
  H   H1786     1.0  0.92945  0.56845  0.11558  1.0000
  H   H1787     1.0  0.84629  0.56326  0.26306  1.0000
  H   H1788     1.0  0.98365  0.47160  0.30088  1.0000
  H   H1789     1.0  0.61454  0.43923  0.02078  1.0000
  H   H1790     1.0  0.92053  0.54556  0.41127  1.0000
  H   H1791     1.0  0.70006  0.52572  0.05656  1.0000
  C   C1124     1.0  0.64202  0.40657  0.09970  1.0000
  C   C1125     1.0  0.61658  0.43093  0.05642  1.0000
  H   H1792     1.0  0.72739  0.55069  0.16082  1.0000
  H   H1793     1.0  0.95381  0.46757  0.37342  1.0000
  C   C1126     1.0  0.98061  0.42636  0.38851  1.0000
  H   H1794     1.0  0.71339  0.56076  0.10880  1.0000
  H   H1795     1.0  0.82696  0.48938  0.99706  1.0000
  H   H1796     1.0  0.85305  0.52029  0.37085  1.0000
  H   H1797     1.0  0.96451  0.46082  0.39271  1.0000
  H   H1798     1.0  0.96744  0.53826  0.34460  1.0000
  C   C1127     1.0  0.62242  0.39013  0.09373  1.0000
  H   H1799     1.0  0.95621  0.55201  0.36129  1.0000
  H   H1800     1.0  0.89148  0.54301  0.13704  1.0000
  H   H1801     1.0  0.79520  0.57127  0.27208  1.0000
  H   H1802     1.0  0.83396  0.53672  0.38046  1.0000
  C   C1128     1.0  0.57797  0.41470  0.00213  1.0000
  H   H1803     1.0  0.99229  0.41631  0.38214  1.0000
  H   H1804     1.0  0.71376  0.58276  0.14555  1.0000
  H   H1805     1.0  0.87564  0.55080  0.38243  1.0000
  C   C1129     1.0  0.65750  0.39281  0.09549  1.0000
  H   H1806     1.0  0.90479  0.58526  0.13663  1.0000
  H   H1807     1.0  0.94903  0.55744  0.33993  1.0000
  C   C1130     1.0  0.82687  0.56692  0.29687  1.0000
  C   C1131     1.0  0.87654  0.57224  0.26987  1.0000
  H   H1808     1.0  0.97936  0.55007  0.18259  1.0000
  H   H1809     1.0  0.99144  0.57329  0.31136  1.0000
  S   S450      1.0  0.62315  0.54052  0.99140  1.0000
  H   H1810     1.0  0.98039  0.40170  0.45446  1.0000
  H   H1811     1.0  0.58491  0.41890  0.01062  1.0000
  H   H1812     1.0  0.99542  0.45579  0.37197  1.0000
  H   H1813     1.0  0.82810  0.55212  0.30338  1.0000
  C   C1132     1.0  0.51972  0.38886  0.06888  1.0000
  S   S451      1.0  0.99655  0.51035  0.33383  1.0000
  H   H1814     1.0  0.95954  0.39968  0.44976  1.0000
  H   H1815     1.0  0.85448  0.54433  0.39578  1.0000
  H   H1816     1.0  0.98814  0.55032  0.31580  1.0000
  S   S452      1.0  0.92161  0.57408  0.37894  1.0000
  H   H1817     1.0  0.56326  0.42223  0.00437  1.0000
  S   S453      1.0  0.91822  0.58518  0.32701  1.0000
  S   S454      1.0  0.87268  0.58399  0.31854  1.0000
  C   C1133     1.0  0.51258  0.38743  0.04087  1.0000
  H   H1818     1.0  0.51671  0.38756  0.02632  1.0000
  H   H1819     1.0  0.73428  0.55252  0.88797  1.0000
  H   H1820     1.0  0.71093  0.55456  0.94237  1.0000
  H   H1821     1.0  0.95995  0.42818  0.64770  1.0000
  C   C1134     1.0  0.99631  0.44629  0.71820  1.0000
  H   H1822     1.0  0.64130  0.43058  0.97805  1.0000
  Fe  Fe224     1.0  0.69946  0.41499  0.93467  1.0000
  S   S455      1.0  0.67741  0.42624  0.95664  1.0000
  S   S456      1.0  0.71983  0.43284  0.91941  1.0000
  H   H1823     1.0  0.57237  0.44603  0.97743  1.0000
  Fe  Fe225     1.0  0.65773  0.41834  0.94548  1.0000
  S   S457      1.0  0.63107  0.43891  0.94349  1.0000
  H   H1824     1.0  0.94922  0.47871  0.76985  1.0000
  H   H1825     1.0  0.96887  0.45430  0.65328  1.0000
  C   C1135     1.0  0.70849  0.56210  0.95343  1.0000
  Fe  Fe226     1.0  0.77766  0.47255  0.95762  1.0000
  H   H1826     1.0  0.99572  0.56590  0.81088  1.0000
  H   H1827     1.0  0.72644  0.41494  0.95589  1.0000
  H   H1828     1.0  0.88877  0.48724  0.68137  1.0000
  C   C1136     1.0  0.83912  0.52721  0.84773  1.0000
  S   S458      1.0  0.79176  0.48603  0.92966  1.0000
  H   H1829     1.0  0.87099  0.45443  0.70114  1.0000
  Fe  Fe227     1.0  0.80723  0.49490  0.94516  1.0000
  S   S459      1.0  0.83631  0.49974  0.93567  1.0000
  Fe  Fe228     1.0  0.76984  0.51085  0.93522  1.0000
  S   S460      1.0  0.75741  0.53090  0.91260  1.0000
  S   S461      1.0  0.91856  0.42734  0.65866  1.0000
  H   H1830     1.0  0.97324  0.41936  0.84605  1.0000
  S   S462      1.0  0.91890  0.54850  0.69790  1.0000
  C   C1137     1.0  0.62137  0.48271  0.96592  1.0000
  Fe  Fe229     1.0  0.91363  0.52459  0.66229  1.0000
  S   S463      1.0  0.88942  0.54178  0.67805  1.0000
  S   S464      1.0  0.90852  0.51302  0.64109  1.0000
  Fe  Fe230     1.0  0.90825  0.56105  0.67210  1.0000
  H   H1831     1.0  0.96503  0.42076  0.72376  1.0000
  Fe  Fe231     1.0  0.90237  0.52759  0.70218  1.0000
  S   S465      1.0  0.88679  0.51354  0.72885  1.0000
  S   S466      1.0  0.93147  0.54496  0.65428  1.0000
  S   S467      1.0  0.92521  0.50878  0.68689  1.0000
  Fe  Fe232     1.0  0.91305  0.47376  0.85008  1.0000
  S   S468      1.0  0.92003  0.50146  0.84321  1.0000
  S   S469      1.0  0.89337  0.46063  0.87428  1.0000
  Fe  Fe233     1.0  0.93514  0.46469  0.81309  1.0000
  C   C1138     1.0  0.90691  0.44387  0.77315  1.0000
  S   S470      1.0  0.94896  0.44431  0.79505  1.0000
  C   C1139     1.0  0.72326  0.52232  0.92803  1.0000
  Fe  Fe234     1.0  0.91386  0.50330  0.81598  1.0000
  S   S471      1.0  0.89782  0.52868  0.80069  1.0000
  S   S472      1.0  0.94234  0.45925  0.84041  1.0000
  S   S473      1.0  0.90534  0.47657  0.82340  1.0000
  H   H1832     1.0  0.52544  0.40240  0.87785  1.0000
  C   C1140     1.0  0.97737  0.53092  0.69730  1.0000
  C   C1141     1.0  0.67289  0.46734  0.92202  1.0000
  H   H1833     1.0  0.98582  0.44714  0.83611  1.0000
  C   C1142     1.0  0.93456  0.42430  0.75933  1.0000
  S   S474      1.0  0.67277  0.53992  0.91519  1.0000
  H   H1834     1.0  0.99356  0.39137  0.57694  1.0000
  Fe  Fe235     1.0  0.65426  0.53975  0.94318  1.0000
  H   H1835     1.0  0.81936  0.53860  0.97433  1.0000
  S   S475      1.0  0.58822  0.57388  0.96580  1.0000
  C   C1143     1.0  0.86987  0.51073  0.85105  1.0000
  C   C1144     1.0  0.93872  0.50887  0.74565  1.0000
  S   S476      1.0  0.93695  0.42605  0.70185  1.0000
  H   H1836     1.0  0.69611  0.51695  0.94027  1.0000
  S   S477      1.0  0.78619  0.52079  0.94873  1.0000
  Fe  Fe236     1.0  0.92002  0.41102  0.72669  1.0000
  H   H1837     1.0  0.72953  0.51244  0.93854  1.0000
  H   H1838     1.0  0.83099  0.49406  0.86170  1.0000
  H   H1839     1.0  0.87629  0.45885  0.73740  1.0000
  C   C1145     1.0  0.88920  0.51838  0.74875  1.0000
  C   C1146     1.0  0.88783  0.50504  0.76505  1.0000
  C   C1147     1.0  0.89059  0.50814  0.78097  1.0000
  C   C1148     1.0  0.89412  0.52484  0.78083  1.0000
  C   C1149     1.0  0.89498  0.53841  0.76465  1.0000
  C   C1150     1.0  0.89277  0.53510  0.74853  1.0000
  H   H1840     1.0  0.88495  0.49213  0.76531  1.0000
  H   H1841     1.0  0.88963  0.49770  0.79339  1.0000
  H   H1842     1.0  0.89764  0.55138  0.76449  1.0000
  H   H1843     1.0  0.89355  0.54557  0.73604  1.0000
  C   C1151     1.0  0.91717  0.45102  0.65292  1.0000
  C   C1152     1.0  0.90609  0.46211  0.64080  1.0000
  C   C1153     1.0  0.90387  0.48113  0.63692  1.0000
  C   C1154     1.0  0.91269  0.48915  0.64516  1.0000
  C   C1155     1.0  0.92434  0.47804  0.65677  1.0000
  C   C1156     1.0  0.92663  0.45898  0.66058  1.0000
  H   H1844     1.0  0.89888  0.45604  0.63469  1.0000
  H   H1845     1.0  0.89499  0.48969  0.62779  1.0000
  H   H1846     1.0  0.93169  0.48414  0.66264  1.0000
  H   H1847     1.0  0.93583  0.45053  0.66927  1.0000
  C   C1157     1.0  0.91699  0.44784  0.78363  1.0000
  H   H1848     1.0  0.89229  0.44985  0.77456  1.0000
  H   H1849     1.0  0.91011  0.45686  0.79303  1.0000
  C   C1158     1.0  0.85162  0.48938  0.91798  1.0000
  C   C1159     1.0  0.84881  0.47388  0.91432  1.0000
  C   C1160     1.0  0.86183  0.46518  0.90095  1.0000
  C   C1161     1.0  0.87743  0.47218  0.89079  1.0000
  C   C1162     1.0  0.88002  0.48795  0.89412  1.0000
  C   C1163     1.0  0.86723  0.49641  0.90783  1.0000
  H   H1850     1.0  0.83690  0.46828  0.92216  1.0000
  H   H1851     1.0  0.85981  0.45291  0.89850  1.0000
  H   H1852     1.0  0.89213  0.49331  0.88649  1.0000
  H   H1853     1.0  0.86951  0.50835  0.91067  1.0000
  C   C1164     1.0  0.69625  0.53705  0.91486  1.0000
  H   H1854     1.0  0.69707  0.45735  0.94404  1.0000
  H   H1855     1.0  0.93527  0.40163  0.48805  1.0000
  C   C1165     1.0  0.73405  0.53252  0.91342  1.0000
  C   C1166     1.0  0.70430  0.52487  0.92897  1.0000
  H   H1856     1.0  0.85398  0.48170  0.86383  1.0000
  C   C1167     1.0  0.62857  0.45272  0.95881  1.0000
  C   C1168     1.0  0.62083  0.47145  0.95475  1.0000
  H   H1857     1.0  0.97768  0.40961  0.64014  1.0000
  H   H1858     1.0  0.50947  0.39091  0.97615  1.0000
  C   C1169     1.0  0.93154  0.48140  0.74346  1.0000
  H   H1859     1.0  0.74364  0.56352  0.94942  1.0000
  H   H1860     1.0  0.61510  0.47738  0.94263  1.0000
  H   H1861     1.0  0.99016  0.48335  0.78474  1.0000
  Fe  Fe237     1.0  0.94084  0.53087  0.68055  1.0000
  H   H1862     1.0  0.93701  0.46727  0.74100  1.0000
  C   C1170     1.0  0.73310  0.43657  0.93276  1.0000
  C   C1171     1.0  0.73392  0.42580  0.95033  1.0000
  H   H1863     1.0  0.89466  0.45318  0.68916  1.0000
  H   H1864     1.0  0.85786  0.47175  0.72605  1.0000
  C   C1172     1.0  0.75360  0.45378  0.93608  1.0000
  C   C1173     1.0  0.74286  0.45063  0.92572  1.0000
  H   H1865     1.0  0.87936  0.49977  0.69936  1.0000
  H   H1866     1.0  0.83627  0.53168  0.86091  1.0000
  H   H1867     1.0  0.76127  0.46450  0.93043  1.0000
  H   H1868     1.0  0.74232  0.45899  0.91213  1.0000
  C   C1174     1.0  0.93585  0.43990  0.78205  1.0000
  C   C1175     1.0  0.88499  0.45419  0.70265  1.0000
  H   H1869     1.0  0.86514  0.48841  0.69350  1.0000
  S   S478      1.0  0.66379  0.52297  0.96862  1.0000
  C   C1176     1.0  0.84443  0.49541  0.86327  1.0000
  H   H1870     1.0  0.92232  0.48033  0.75739  1.0000
  H   H1871     1.0  0.56298  0.41916  0.97351  1.0000
  H   H1872     1.0  0.69358  0.56369  0.96028  1.0000
  S   S479      1.0  0.76939  0.44540  0.96609  1.0000
  H   H1873     1.0  0.70110  0.55606  0.88894  1.0000
  H   H1874     1.0  0.86782  0.51526  0.86404  1.0000
  H   H1875     1.0  0.87984  0.49730  0.85203  1.0000
  H   H1876     1.0  0.84205  0.49891  0.87688  1.0000
  C   C1177     1.0  0.90400  0.46962  0.71042  1.0000
  C   C1178     1.0  0.87222  0.47114  0.72677  1.0000
  H   H1877     1.0  0.68356  0.45486  0.91935  1.0000
  H   H1878     1.0  0.66816  0.47428  0.90902  1.0000
  H   H1879     1.0  0.66092  0.46278  0.93238  1.0000
  Fe  Fe238     1.0  0.92594  0.41327  0.68585  1.0000
  S   S480      1.0  0.75455  0.49679  0.96195  1.0000
  H   H1880     1.0  0.99072  0.50681  0.75344  1.0000
  H   H1881     1.0  0.90888  0.45725  0.72052  1.0000
  C   C1179     1.0  0.87933  0.48720  0.69515  1.0000
  H   H1882     1.0  0.91408  0.46925  0.69706  1.0000
  H   H1883     1.0  0.96966  0.48541  0.75454  1.0000
  C   C1180     1.0  0.66569  0.49591  0.93154  1.0000
  C   C1181     1.0  0.63574  0.44512  0.97457  1.0000
  H   H1884     1.0  0.67059  0.50502  0.93701  1.0000
  C   C1182     1.0  0.70720  0.54674  0.89996  1.0000
  N   N115      1.0  0.68027  0.47952  0.92842  1.0000
  H   H1885     1.0  0.95881  0.55231  0.73326  1.0000
  C   C1183     1.0  0.99107  0.41897  0.70423  1.0000
  Fe  Fe239     1.0  0.63552  0.51684  0.97778  1.0000
  C   C1184     1.0  0.50949  0.39600  0.94024  1.0000
  H   H1886     1.0  0.85353  0.51447  0.95484  1.0000
  S   S481      1.0  0.79525  0.47903  0.97291  1.0000
  C   C1185     1.0  0.99610  0.52910  0.69657  1.0000
  H   H1887     1.0  0.98941  0.56634  0.85114  1.0000
  H   H1888     1.0  0.83827  0.48938  0.97354  1.0000
  S   S482      1.0  0.64329  0.56570  0.95358  1.0000
  S   S483      1.0  0.65956  0.39059  0.96407  1.0000
  H   H1889     1.0  0.98198  0.43830  0.66903  1.0000
  H   H1890     1.0  0.54569  0.39635  0.93276  1.0000
  H   H1891     1.0  0.96586  0.42484  0.82485  1.0000
  C   C1186     1.0  0.98447  0.51996  0.85844  1.0000
  Fe  Fe240     1.0  0.77298  0.50435  0.97515  1.0000
  C   C1187     1.0  0.96926  0.54579  0.72305  1.0000
  H   H1892     1.0  0.87652  0.52065  0.83958  1.0000
  H   H1893     1.0  0.97944  0.45272  0.81431  1.0000
  S   S484      1.0  0.97110  0.52383  0.68071  1.0000
  N   N116      1.0  0.88513  0.47054  0.70874  1.0000
  Fe  Fe241     1.0  0.94884  0.48716  0.83103  1.0000
  H   H1894     1.0  0.70734  0.47284  0.91134  1.0000
  N   N117      1.0  0.72046  0.55241  0.96665  1.0000
  H   H1895     1.0  0.74312  0.54173  0.94640  1.0000
  C   C1188     1.0  0.68619  0.46992  0.94581  1.0000
  C   C1189     1.0  0.91566  0.43197  0.76108  1.0000
  C   C1190     1.0  0.58680  0.43779  0.97559  1.0000
  C   C1191     1.0  0.69626  0.48498  0.91431  1.0000
  H   H1896     1.0  0.90453  0.48162  0.71518  1.0000
  H   H1897     1.0  0.86717  0.51022  0.97151  1.0000
  H   H1898     1.0  0.97412  0.45002  0.62161  1.0000
  N   N118      1.0  0.83793  0.51320  0.98268  1.0000
  C   C1192     1.0  0.85375  0.51789  0.96782  1.0000
  H   H1899     1.0  0.59327  0.44091  0.96066  1.0000
  S   S485      1.0  0.98804  0.40167  0.69573  1.0000
  H   H1900     1.0  0.97073  0.49712  0.72198  1.0000
  H   H1901     1.0  0.51279  0.40969  0.93398  1.0000
  H   H1902     1.0  0.94973  0.51590  0.74486  1.0000
  H   H1903     1.0  0.94134  0.41499  0.75022  1.0000
  C   C1193     1.0  0.82045  0.52361  0.97710  1.0000
  C   C1194     1.0  0.96399  0.53889  0.71084  1.0000
  N   N119      1.0  0.94663  0.49032  0.74200  1.0000
  H   H1904     1.0  0.61555  0.49719  0.96271  1.0000
  C   C1195     1.0  0.97641  0.51080  0.85042  1.0000
  H   H1905     1.0  0.70172  0.53539  0.98348  1.0000
  C   C1196     1.0  0.98754  0.50066  0.83744  1.0000
  N   N120      1.0  0.85223  0.50931  0.84812  1.0000
  C   C1197     1.0  0.74498  0.42868  0.96053  1.0000
  H   H1906     1.0  0.93636  0.57971  0.64627  1.0000
  H   H1907     1.0  0.96346  0.46522  0.75385  1.0000
  C   C1198     1.0  0.95847  0.49157  0.72330  1.0000
  H   H1908     1.0  0.61408  0.40949  0.96563  1.0000
  Fe  Fe242     1.0  0.68136  0.39771  0.97323  1.0000
  H   H1909     1.0  0.96967  0.44462  0.73625  1.0000
  S   S486      1.0  0.97859  0.48869  0.82691  1.0000
  C   C1199     1.0  0.98266  0.44519  0.65430  1.0000
  H   H1910     1.0  0.95083  0.50058  0.71275  1.0000
  H   H1911     1.0  0.97590  0.52768  0.86860  1.0000
  N   N121      1.0  0.99436  0.42506  0.82180  1.0000
  H   H1912     1.0  0.95577  0.38790  0.64747  1.0000
  H   H1913     1.0  0.97367  0.41256  0.66313  1.0000
  H   H1914     1.0  0.82563  0.52667  0.84552  1.0000
  H   H1915     1.0  0.84469  0.53798  0.83646  1.0000
  H   H1916     1.0  0.87195  0.48328  0.73183  1.0000
  C   C1200     1.0  0.85558  0.50388  0.83043  1.0000
  H   H1917     1.0  0.86503  0.49020  0.83047  1.0000
  S   S487      1.0  0.62688  0.53155  0.95126  1.0000
  H   H1918     1.0  0.67441  0.46584  0.95686  1.0000
  H   H1919     1.0  0.84251  0.50315  0.82749  1.0000
  H   H1920     1.0  0.86208  0.51377  0.81875  1.0000
  S   S488      1.0  0.94298  0.49178  0.80321  1.0000
  H   H1921     1.0  0.96385  0.47797  0.71963  1.0000
  H   H1922     1.0  0.94883  0.39824  0.62610  1.0000
  H   H1923     1.0  0.92285  0.48925  0.73338  1.0000
  C   C1201     1.0  0.98794  0.54490  0.72161  1.0000
  C   C1202     1.0  0.72597  0.54470  0.89938  1.0000
  H   H1924     1.0  0.69210  0.47868  0.95081  1.0000
  S   S489      1.0  0.90671  0.40047  0.71038  1.0000
  H   H1925     1.0  0.96168  0.51144  0.85438  1.0000
  H   H1926     1.0  0.94958  0.53996  0.71183  1.0000
  C   C1203     1.0  0.99046  0.44469  0.82189  1.0000
  H   H1927     1.0  0.92956  0.50844  0.75960  1.0000
  C   C1204     1.0  0.95774  0.47950  0.75566  1.0000
  H   H1928     1.0  0.88924  0.44144  0.71272  1.0000
  Fe  Fe243     1.0  0.95834  0.40005  0.70406  1.0000
  H   H1929     1.0  0.96805  0.57547  0.65754  1.0000
  H   H1930     1.0  0.70248  0.49384  0.91880  1.0000
  C   C1205     1.0  0.94461  0.42824  0.76979  1.0000
  H   H1931     1.0  0.92283  0.38636  0.66349  1.0000
  H   H1932     1.0  0.65320  0.49224  0.94165  1.0000
  C   C1206     1.0  0.75496  0.44259  0.95338  1.0000
  H   H1933     1.0  0.69221  0.49276  0.90116  1.0000
  H   H1934     1.0  0.95920  0.42207  0.76848  1.0000
  S   S490      1.0  0.90283  0.42684  0.74829  1.0000
  H   H1935     1.0  0.66138  0.50405  0.91859  1.0000
  C   C1207     1.0  0.71627  0.53423  0.97560  1.0000
  H   H1936     1.0  0.96773  0.56857  0.68153  1.0000
  N   N122      1.0  0.58734  0.41804  0.98250  1.0000
  S   S491      1.0  0.94863  0.38830  0.68623  1.0000
  C   C1208     1.0  0.97739  0.42611  0.71807  1.0000
  C   C1209     1.0  0.97771  0.41768  0.83156  1.0000
  S   S492      1.0  0.67941  0.40932  0.92174  1.0000
  C   C1210     1.0  0.97413  0.42002  0.64863  1.0000
  Fe  Fe244     1.0  0.61673  0.55605  0.96418  1.0000
  H   H1937     1.0  0.98142  0.51612  0.78283  1.0000
  C   C1211     1.0  0.98001  0.43975  0.72508  1.0000
  H   H1938     1.0  0.91673  0.39766  0.64186  1.0000
  H   H1939     1.0  0.72031  0.57685  0.97456  1.0000
  H   H1940     1.0  0.74947  0.54325  0.96643  1.0000
  C   C1212     1.0  0.74004  0.55015  0.95681  1.0000
  H   H1941     1.0  0.52552  0.40480  0.96204  1.0000
  H   H1942     1.0  0.93029  0.51749  0.73555  1.0000
  H   H1943     1.0  0.71106  0.57598  0.94663  1.0000
  H   H1944     1.0  0.85354  0.53274  0.96475  1.0000
  H   H1945     1.0  0.98015  0.40291  0.83167  1.0000
  C   C1213     1.0  0.97064  0.39115  0.49125  1.0000
  H   H1946     1.0  0.71818  0.52598  0.96532  1.0000
  S   S493      1.0  0.99427  0.55498  0.73587  1.0000
  C   C1214     1.0  0.96832  0.58037  0.66964  1.0000
  H   H1947     1.0  0.96342  0.40452  0.49503  1.0000
  H   H1948     1.0  0.98827  0.43002  0.79517  1.0000
  S   S494      1.0  0.70501  0.38677  0.95207  1.0000
  H   H1949     1.0  0.81938  0.52034  0.96437  1.0000
  H   H1950     1.0  0.74591  0.42001  0.97392  1.0000
  H   H1951     1.0  0.69727  0.42241  0.98123  1.0000
  H   H1952     1.0  0.98611  0.58044  0.69511  1.0000
  N   N123      1.0  0.98779  0.43172  0.64253  1.0000
  C   C1215     1.0  0.98791  0.57960  0.84091  1.0000
  C   C1216     1.0  0.98797  0.44135  0.62321  1.0000
  H   H1953     1.0  0.99289  0.45399  0.65042  1.0000
  H   H1954     1.0  0.99185  0.43150  0.61400  1.0000
  H   H1955     1.0  0.58437  0.41461  0.95696  1.0000
  C   C1217     1.0  0.57779  0.41197  0.97189  1.0000
  H   H1956     1.0  0.97545  0.58116  0.83556  1.0000
  C   C1218     1.0  0.62976  0.47519  0.98100  1.0000
  C   C1219     1.0  0.52310  0.39069  0.96625  1.0000
  C   C1220     1.0  0.71715  0.56310  0.98079  1.0000
  C   C1221     1.0  0.99620  0.51623  0.78120  1.0000
  Fe  Fe245     1.0  0.65059  0.54821  0.97974  1.0000
  H   H1957     1.0  0.50842  0.39042  0.92893  1.0000
  C   C1222     1.0  0.52793  0.38845  0.88561  1.0000
  H   H1958     1.0  0.57829  0.39704  0.97645  1.0000
  C   C1223     1.0  0.63669  0.45638  0.98538  1.0000
  H   H1959     1.0  0.91085  0.58624  0.60246  1.0000
  C   C1224     1.0  0.60677  0.40770  0.98036  1.0000
  H   H1960     1.0  0.98545  0.39166  0.48587  1.0000
  H   H1961     1.0  0.72538  0.52639  0.98533  1.0000
  H   H1962     1.0  0.59443  0.44277  0.98282  1.0000
  C   C1225     1.0  0.99046  0.70254  0.42325  1.0000
  S   S495      1.0  0.88134  0.60504  0.35429  1.0000
  H   H1963     1.0  0.85762  0.72718  0.41171  1.0000
  Fe  Fe246     1.0  0.92480  0.61281  0.31607  1.0000
  S   S496      1.0  0.89634  0.62724  0.31178  1.0000
  S   S497      1.0  0.95206  0.61593  0.29719  1.0000
  Fe  Fe247     1.0  0.89123  0.63107  0.34069  1.0000
  S   S498      1.0  0.88050  0.65840  0.34856  1.0000
  H   H1964     1.0  0.91481  0.73544  0.43829  1.0000
  H   H1965     1.0  0.63223  0.63023  0.00359  1.0000
  S   S499      1.0  0.92018  0.61846  0.34387  1.0000
  C   C1226     1.0  0.98656  0.63820  0.31056  1.0000
  H   H1966     1.0  0.54950  0.65013  0.06565  1.0000
  S   S500      1.0  0.62024  0.58748  0.06417  1.0000
  H   H1967     1.0  0.96648  0.63643  0.38907  1.0000
  S   S501      1.0  0.86458  0.59148  0.23822  1.0000
  C   C1227     1.0  0.54130  0.65588  0.07784  1.0000
  S   S502      1.0  0.51929  0.74649  0.14044  1.0000
  H   H1968     1.0  0.96894  0.60353  0.37247  1.0000
  C   C1228     1.0  0.96129  0.61752  0.36711  1.0000
  S   S503      1.0  0.92746  0.78463  0.45767  1.0000
  C   C1229     1.0  0.60470  0.63221  0.10888  1.0000
  H   H1969     1.0  0.94701  0.65287  0.36630  1.0000
  Fe  Fe248     1.0  0.55712  0.67945  0.00445  1.0000
  H   H1970     1.0  0.62654  0.68108  0.10099  1.0000
  N   N124      1.0  0.52179  0.66375  0.07659  1.0000
  H   H1971     1.0  0.86585  0.61572  0.28956  1.0000
  H   H1972     1.0  0.86232  0.61839  0.25800  1.0000
  H   H1973     1.0  0.97173  0.62602  0.36020  1.0000
  S   S504      1.0  0.56914  0.66659  0.02927  1.0000
  C   C1230     1.0  0.96808  0.60449  0.23190  1.0000
  S   S505      1.0  0.63765  0.63278  0.11569  1.0000
  S   S506      1.0  0.58071  0.72881  0.05828  1.0000
  Fe  Fe249     1.0  0.89969  0.70379  0.45193  1.0000
  Fe  Fe250     1.0  0.90567  0.67127  0.43489  1.0000
  S   S507      1.0  0.93494  0.66094  0.43818  1.0000
  S   S508      1.0  0.89293  0.65243  0.42735  1.0000
  S   S509      1.0  0.92818  0.69564  0.45736  1.0000
  Fe  Fe251     1.0  0.93679  0.69030  0.42885  1.0000
  S   S510      1.0  0.96287  0.69768  0.41035  1.0000
  Fe  Fe252     1.0  0.92378  0.66720  0.46612  1.0000
  S   S511      1.0  0.89425  0.67558  0.46374  1.0000
  C   C1231     1.0  0.87418  0.58637  0.29504  1.0000
  C   C1232     1.0  0.96572  0.72430  0.44688  1.0000
  C   C1233     1.0  0.95954  0.71893  0.43423  1.0000
  C   C1234     1.0  0.97168  0.70749  0.42295  1.0000
  H   H1974     1.0  0.96021  0.59427  0.24134  1.0000
  H   H1975     1.0  0.98616  0.76229  0.47448  1.0000
  H   H1976     1.0  0.95604  0.73257  0.45608  1.0000
  H   H1977     1.0  0.94526  0.72339  0.43332  1.0000
  C   C1235     1.0  0.57646  0.68298  0.03548  1.0000
  C   C1236     1.0  0.58129  0.67899  0.05246  1.0000
  C   C1237     1.0  0.58420  0.69289  0.05887  1.0000
  C   C1238     1.0  0.58289  0.71063  0.04808  1.0000
  C   C1239     1.0  0.57982  0.71418  0.03038  1.0000
  C   C1240     1.0  0.57618  0.70046  0.02423  1.0000
  H   H1978     1.0  0.58153  0.66551  0.06124  1.0000
  C   C1241     1.0  0.88455  0.75945  0.46880  1.0000
  H   H1979     1.0  0.57892  0.72784  0.02198  1.0000
  H   H1980     1.0  0.57250  0.70367  0.01108  1.0000
  C   C1242     1.0  0.58577  0.63878  0.10917  1.0000
  C   C1243     1.0  0.57596  0.65407  0.11660  1.0000
  H   H1981     1.0  0.96507  0.61349  0.40128  1.0000
  H   H1982     1.0  0.57879  0.63209  0.10347  1.0000
  Fe  Fe253     1.0  0.64101  0.58876  0.07873  1.0000
  H   H1983     1.0  0.58592  0.69021  0.07281  1.0000
  C   C1244     1.0  0.73511  0.59694  0.08622  1.0000
  S   S512      1.0  0.55229  0.66215  0.11674  1.0000
  H   H1984     1.0  0.51731  0.68170  0.09483  1.0000
  H   H1985     1.0  0.50480  0.75006  0.02843  1.0000
  H   H1986     1.0  0.54164  0.76619  0.10893  1.0000
  C   C1245     1.0  0.58511  0.66270  0.12387  1.0000
  C   C1246     1.0  0.88445  0.65698  0.37019  1.0000
  C   C1247     1.0  0.88714  0.67225  0.37457  1.0000
  C   C1248     1.0  0.89027  0.67101  0.39197  1.0000
  C   C1249     1.0  0.89009  0.65464  0.40512  1.0000
  C   C1250     1.0  0.88731  0.63949  0.40071  1.0000
  C   C1251     1.0  0.88488  0.64053  0.38319  1.0000
  H   H1987     1.0  0.88698  0.68495  0.36442  1.0000
  H   H1988     1.0  0.89259  0.68271  0.39523  1.0000
  H   H1989     1.0  0.88708  0.62682  0.41088  1.0000
  H   H1990     1.0  0.88279  0.62873  0.37992  1.0000
  S   S513      1.0  0.87999  0.72877  0.46090  1.0000
  C   C1252     1.0  0.85842  0.69231  0.42963  1.0000
  S   S514      1.0  0.53212  0.70217  0.00269  1.0000
  C   C1253     1.0  0.51145  0.67086  0.09326  1.0000
  H   H1991     1.0  0.64716  0.68953  0.08950  1.0000
  C   C1254     1.0  0.98133  0.66350  0.46949  1.0000
  C   C1255     1.0  0.87049  0.58940  0.25918  1.0000
  H   H1992     1.0  0.52841  0.67383  0.04730  1.0000
  Fe  Fe254     1.0  0.51692  0.72161  0.09014  1.0000
  H   H1993     1.0  0.96683  0.77792  0.43265  1.0000
  C   C1256     1.0  0.96064  0.63063  0.30464  1.0000
  C   C1257     1.0  0.97971  0.62851  0.30209  1.0000
  H   H1994     1.0  0.53309  0.77956  0.03344  1.0000
  C   C1258     1.0  0.97446  0.64972  0.32182  1.0000
  C   C1259     1.0  0.95542  0.65295  0.32317  1.0000
  C   C1260     1.0  0.94853  0.64348  0.31447  1.0000
  H   H1995     1.0  0.83753  0.71790  0.46196  1.0000
  H   H1996     1.0  0.99622  0.62189  0.22205  1.0000
  H   H1997     1.0  0.94596  0.66231  0.33136  1.0000
  H   H1998     1.0  0.93380  0.64599  0.31557  1.0000
  H   H1999     1.0  0.85963  0.70259  0.45962  1.0000
  C   C1261     1.0  0.62759  0.61980  0.99965  1.0000
  H   H2000     1.0  0.92642  0.61215  0.38164  1.0000
  H   H2001     1.0  0.99287  0.66519  0.36752  1.0000
  Fe  Fe255     1.0  0.52439  0.68644  0.98682  1.0000
  C   C1262     1.0  0.72143  0.60022  0.07630  1.0000
  C   C1263     1.0  0.53099  0.77595  0.11579  1.0000
  H   H2002     1.0  0.60627  0.59579  0.00544  1.0000
  N   N125      1.0  0.63522  0.68082  0.07220  1.0000
  C   C1264     1.0  0.62447  0.66717  0.07391  1.0000
  C   C1265     1.0  0.63942  0.67919  0.09014  1.0000
  C   C1266     1.0  0.62432  0.69939  0.06638  1.0000
  C   C1267     1.0  0.65267  0.67747  0.05840  1.0000
  C   C1268     1.0  0.51860  0.76984  0.13184  1.0000
  H   H2003     1.0  0.62094  0.66802  0.06068  1.0000
  C   C1269     1.0  0.51348  0.64941  0.07510  1.0000
  H   H2004     1.0  0.64795  0.66546  0.09481  1.0000
  H   H2005     1.0  0.58559  0.64518  0.99283  1.0000
  H   H2006     1.0  0.61127  0.66914  0.08433  1.0000
  H   H2007     1.0  0.63196  0.71008  0.06492  1.0000
  H   H2008     1.0  0.61106  0.70235  0.07654  1.0000
  H   H2009     1.0  0.62078  0.70117  0.05293  1.0000
  H   H2010     1.0  0.66122  0.68743  0.05681  1.0000
  H   H2011     1.0  0.64998  0.67863  0.04470  1.0000
  H   H2012     1.0  0.66112  0.66349  0.06244  1.0000
  H   H2013     1.0  0.51396  0.63785  0.08728  1.0000
  Fe  Fe256     1.0  0.64950  0.60889  0.10195  1.0000
  H   H2014     1.0  0.95635  0.63543  0.25898  1.0000
  C   C1270     1.0  0.86705  0.60508  0.26620  1.0000
  C   C1271     1.0  0.91997  0.75769  0.44634  1.0000
  H   H2015     1.0  0.54491  0.76792  0.99628  1.0000
  H   H2016     1.0  0.70864  0.61006  0.07938  1.0000
  H   H2017     1.0  0.52367  0.74290  0.05170  1.0000
  H   H2018     1.0  0.88947  0.78197  0.47664  1.0000
  H   H2019     1.0  0.54252  0.64482  0.09035  1.0000
  H   H2020     1.0  0.52324  0.73831  0.01298  1.0000
  S   S515      1.0  0.90848  0.70035  0.42264  1.0000
  H   H2021     1.0  0.82146  0.70139  0.43965  1.0000
  H   H2022     1.0  0.97434  0.59480  0.26613  1.0000
  C   C1272     1.0  0.61378  0.64054  0.11655  1.0000
  Fe  Fe257     1.0  0.53104  0.73054  0.11826  1.0000
  C   C1273     1.0  0.84576  0.70564  0.45639  1.0000
  C   C1274     1.0  0.98270  0.62916  0.22912  1.0000
  H   H2023     1.0  0.55865  0.76183  0.01329  1.0000
  C   C1275     1.0  0.98225  0.60461  0.25598  1.0000
  C   C1276     1.0  0.54796  0.75787  0.00895  1.0000
  H   H2024     1.0  0.61220  0.62069  0.10270  1.0000
  C   C1277     1.0  0.59881  0.62389  0.02211  1.0000
  H   H2025     1.0  0.87085  0.76014  0.47755  1.0000
  H   H2026     1.0  0.52736  0.68970  0.06058  1.0000
  H   H2027     1.0  0.87264  0.68889  0.43206  1.0000
  N   N126      1.0  0.94742  0.62537  0.38197  1.0000
  H   H2028     1.0  0.94137  0.59923  0.39692  1.0000
  C   C1278     1.0  0.93422  0.61333  0.39123  1.0000
  C   C1279     1.0  0.93735  0.64368  0.37408  1.0000
  C   C1280     1.0  0.95685  0.62698  0.39548  1.0000
  N   N127      1.0  0.60725  0.62379  0.00251  1.0000
  Fe  Fe258     1.0  0.91107  0.59219  0.35455  1.0000
  H   H2029     1.0  0.98114  0.59660  0.22472  1.0000
  H   H2030     1.0  0.51306  0.76182  0.00530  1.0000
  C   C1281     1.0  0.60172  0.60961  0.99712  1.0000
  H   H2031     1.0  0.80894  0.60013  0.28108  1.0000
  C   C1282     1.0  0.98433  0.71875  0.44772  1.0000
  H   H2032     1.0  0.57753  0.67435  0.12987  1.0000
  H   H2033     1.0  0.96464  0.69605  0.47830  1.0000
  H   H2034     1.0  0.52096  0.64376  0.06266  1.0000
  C   C1283     1.0  0.97563  0.76966  0.44254  1.0000
  H   H2035     1.0  0.55422  0.74441  0.00501  1.0000
  S   S516      1.0  0.51599  0.70907  0.11987  1.0000
  C   C1284     1.0  0.98085  0.70103  0.35739  1.0000
  Fe  Fe259     1.0  0.68003  0.59389  0.07216  1.0000
  N   N128      1.0  0.84719  0.70884  0.43639  1.0000
  C   C1285     1.0  0.60394  0.65578  0.12409  1.0000
  H   H2036     1.0  0.96894  0.65858  0.46994  1.0000
  H   H2037     1.0  0.85973  0.69409  0.41461  1.0000
  H   H2038     1.0  0.84802  0.73718  0.43167  1.0000
  C   C1286     1.0  0.89194  0.74590  0.45842  1.0000
  C   C1287     1.0  0.85608  0.72446  0.42686  1.0000
  H   H2039     1.0  0.97528  0.63820  0.21839  1.0000
  H   H2040     1.0  0.81963  0.72534  0.43763  1.0000
  H   H2041     1.0  0.51206  0.65993  0.10595  1.0000
  C   C1288     1.0  0.82851  0.71295  0.43269  1.0000
  H   H2042     1.0  0.63228  0.65300  0.07833  1.0000
  H   H2043     1.0  0.83925  0.69388  0.46407  1.0000
  H   H2044     1.0  0.91578  0.72966  0.48576  1.0000
  H   H2045     1.0  0.92937  0.64295  0.36441  1.0000
  H   H2046     1.0  0.92385  0.61865  0.40282  1.0000
  H   H2047     1.0  0.61084  0.66220  0.13016  1.0000
  C   C1289     1.0  0.72441  0.59097  0.06228  1.0000
  N   N129      1.0  0.97177  0.61619  0.24202  1.0000
  C   C1290     1.0  0.99487  0.76975  0.46234  1.0000
  S   S517      1.0  0.52997  0.74437  0.08891  1.0000
  C   C1291     1.0  0.90945  0.74536  0.44687  1.0000
  C   C1292     1.0  0.86909  0.60360  0.28403  1.0000
  H   H2048     1.0  0.93360  0.75704  0.43746  1.0000
  Fe  Fe260     1.0  0.88907  0.59992  0.32562  1.0000
  H   H2049     1.0  0.92736  0.65031  0.38500  1.0000
  H   H2050     1.0  0.73282  0.60425  0.09695  1.0000
  S   S518      1.0  0.98299  0.65833  0.33577  1.0000
  N   N130      1.0  0.53110  0.75701  0.02369  1.0000
  C   C1293     1.0  0.95405  0.62651  0.25115  1.0000
  Fe  Fe261     1.0  0.55726  0.72488  0.08268  1.0000
  S   S519      1.0  0.55962  0.71285  0.11193  1.0000
  Fe  Fe262     1.0  0.54434  0.69271  0.11068  1.0000
  C   C1294     1.0  0.91305  0.77062  0.45742  1.0000
  H   H2051     1.0  0.98237  0.67525  0.45754  1.0000
  H   H2052     1.0  0.85239  0.68010  0.43668  1.0000
  H   H2053     1.0  0.63286  0.60629  0.00810  1.0000
  S   S520      1.0  0.65277  0.61368  0.07143  1.0000
  H   H2054     1.0  0.82913  0.71542  0.41770  1.0000
  C   C1295     1.0  0.60085  0.64187  0.99111  1.0000
  H   H2055     1.0  0.94672  0.63241  0.40715  1.0000
  H   H2056     1.0  0.94551  0.61714  0.26115  1.0000
  S   S521      1.0  0.54385  0.70367  0.08113  1.0000
  H   H2057     1.0  0.51947  0.78580  0.01632  1.0000
  C   C1296     1.0  0.53589  0.74340  0.04008  1.0000
  S   S522      1.0  0.54739  0.66220  0.99201  1.0000
  H   H2058     1.0  0.54815  0.66634  0.07868  1.0000
  H   H2059     1.0  0.60266  0.63444  0.02666  1.0000
  H   H2060     1.0  0.87012  0.72189  0.42956  1.0000
  H   H2061     1.0  0.97033  0.70289  0.37027  1.0000
  H   H2062     1.0  0.96002  0.61267  0.22136  1.0000
  H   H2063     1.0  0.95417  0.58907  0.33302  1.0000
  H   H2064     1.0  0.97596  0.69305  0.35045  1.0000
  H   H2065     1.0  0.95470  0.61682  0.35632  1.0000
  H   H2066     1.0  0.58344  0.62699  0.02475  1.0000
  C   C1297     1.0  0.51740  0.75158  0.01735  1.0000
  H   H2067     1.0  0.97563  0.59246  0.33466  1.0000
  H   H2068     1.0  0.94574  0.63536  0.24107  1.0000
  H   H2069     1.0  0.50637  0.68532  0.05896  1.0000
  C   C1298     1.0  0.50512  0.78250  0.14090  1.0000
  H   H2070     1.0  0.58645  0.61224  0.99902  1.0000
  H   H2071     1.0  0.98921  0.61900  0.29408  1.0000
  C   C1299     1.0  0.52316  0.77514  0.02843  1.0000
  C   C1300     1.0  0.81858  0.59138  0.27170  1.0000
  H   H2072     1.0  0.60446  0.65298  0.99500  1.0000
  H   H2073     1.0  0.54674  0.74664  0.04485  1.0000
  C   C1301     1.0  0.52091  0.67877  0.06013  1.0000
  H   H2074     1.0  0.83231  0.59488  0.26856  1.0000
  H   H2075     1.0  0.81394  0.59537  0.25849  1.0000
  H   H2076     1.0  0.98110  0.71478  0.34830  1.0000
  H   H2077     1.0  0.54118  0.72940  0.03726  1.0000
  C   C1302     1.0  0.89512  0.77177  0.46835  1.0000
  H   H2078     1.0  0.96664  0.76209  0.45428  1.0000
  H   H2079     1.0  0.98640  0.75931  0.43574  1.0000
  H   H2080     1.0  0.98862  0.67494  0.38715  1.0000
  S   S523      1.0  0.67814  0.59154  0.10204  1.0000
  H   H2081     1.0  0.98551  0.61301  0.26373  1.0000
  H   H2082     1.0  0.49875  0.65488  0.07413  1.0000
  H   H2083     1.0  0.60330  0.61049  0.03118  1.0000
  H   H2084     1.0  0.51034  0.77497  0.03945  1.0000
  N   N131      1.0  0.98392  0.78126  0.44876  1.0000
  H   H2085     1.0  0.98592  0.63797  0.23646  1.0000
  H   H2086     1.0  0.99365  0.65235  0.46668  1.0000
  H   H2087     1.0  0.99515  0.70548  0.38305  1.0000
  S   S524      1.0  0.70665  0.59370  0.05111  1.0000
  S   S525      1.0  0.99189  0.72398  0.46459  1.0000
  H   H2088     1.0  0.99561  0.59654  0.24953  1.0000
  H   H2089     1.0  0.65745  0.58814  0.04376  1.0000
  C   C1303     1.0  0.99682  0.67493  0.48572  1.0000
  C   C1304     1.0  0.99678  0.70837  0.43552  1.0000
  H   H2090     1.0  0.70866  0.58666  0.12334  1.0000
  C   C1305     1.0  0.57051  0.62779  0.96472  1.0000
  H   H2091     1.0  0.52575  0.73702  0.94789  1.0000
  S   S526      1.0  0.99437  0.74725  0.55943  1.0000
  H   H2092     1.0  0.99002  0.64138  0.50069  1.0000
  C   C1306     1.0  0.98961  0.73228  0.54898  1.0000
  H   H2093     1.0  0.54711  0.64763  0.91018  1.0000
  Fe  Fe263     1.0  0.56349  0.67581  0.96557  1.0000
  N   N132      1.0  0.53065  0.66098  0.93215  1.0000
  S   S527      1.0  0.58253  0.65926  0.94536  1.0000
  H   H2094     1.0  0.93755  0.77337  0.55660  1.0000
  H   H2095     1.0  0.90787  0.63630  0.59443  1.0000
  S   S528      1.0  0.53973  0.69894  0.95924  1.0000
  C   C1307     1.0  0.51957  0.77456  0.96497  1.0000
  Fe  Fe264     1.0  0.91577  0.67101  0.57565  1.0000
  S   S529      1.0  0.92371  0.69775  0.56189  1.0000
  S   S530      1.0  0.89310  0.66538  0.56667  1.0000
  Fe  Fe265     1.0  0.94473  0.65923  0.59850  1.0000
  S   S531      1.0  0.95508  0.68510  0.58681  1.0000
  S   S532      1.0  0.95914  0.63535  0.61702  1.0000
  Fe  Fe266     1.0  0.92507  0.69884  0.58995  1.0000
  S   S533      1.0  0.91231  0.72463  0.60038  1.0000
  Fe  Fe267     1.0  0.95268  0.68147  0.55994  1.0000
  S   S534      1.0  0.97539  0.68582  0.53517  1.0000
  S   S535      1.0  0.91468  0.67318  0.60411  1.0000
  S   S536      1.0  0.94483  0.65449  0.57125  1.0000
  H   H2096     1.0  0.53587  0.68128  0.90731  1.0000
  C   C1308     1.0  0.90335  0.65926  0.54548  1.0000
  C   C1309     1.0  0.89642  0.66900  0.52986  1.0000
  C   C1310     1.0  0.92237  0.65194  0.51097  1.0000
  C   C1311     1.0  0.53469  0.67906  0.92236  1.0000
  C   C1312     1.0  0.92887  0.64181  0.52669  1.0000
  C   C1313     1.0  0.91947  0.64558  0.54390  1.0000
  H   H2097     1.0  0.88390  0.67955  0.53109  1.0000
  H   H2098     1.0  0.88297  0.63106  0.58281  1.0000
  H   H2099     1.0  0.94132  0.63115  0.52553  1.0000
  H   H2100     1.0  0.92469  0.63786  0.55597  1.0000
  H   H2101     1.0  0.90103  0.67336  0.50039  1.0000
  H   H2102     1.0  0.61333  0.59615  0.94079  1.0000
  C   C1314     1.0  0.91188  0.62247  0.65012  1.0000
  H   H2103     1.0  0.95320  0.72005  0.54269  1.0000
  H   H2104     1.0  0.95064  0.67964  0.49055  1.0000
  C   C1315     1.0  0.90246  0.74204  0.58389  1.0000
  C   C1316     1.0  0.88527  0.75330  0.58929  1.0000
  C   C1317     1.0  0.58725  0.59743  0.96036  1.0000
  H   H2105     1.0  0.50528  0.70234  0.95483  1.0000
  C   C1318     1.0  0.90477  0.76035  0.55280  1.0000
  C   C1319     1.0  0.91214  0.74545  0.56558  1.0000
  H   H2106     1.0  0.87777  0.75074  0.60345  1.0000
  H   H2107     1.0  0.93204  0.71215  0.52009  1.0000
  H   H2108     1.0  0.96210  0.68824  0.50265  1.0000
  H   H2109     1.0  0.92557  0.73694  0.56144  1.0000
  H   H2110     1.0  0.95543  0.59094  0.67251  1.0000
  C   C1320     1.0  0.94668  0.60413  0.63394  1.0000
  C   C1321     1.0  0.94271  0.62314  0.63136  1.0000
  C   C1322     1.0  0.92536  0.63232  0.63955  1.0000
  C   C1323     1.0  0.91577  0.60343  0.65255  1.0000
  C   C1324     1.0  0.96737  0.71971  0.54237  1.0000
  H   H2111     1.0  0.92231  0.64701  0.63783  1.0000
  N   N133      1.0  0.94065  0.77361  0.58328  1.0000
  H   H2112     1.0  0.56071  0.60314  0.97861  1.0000
  C   C1325     1.0  0.54577  0.64650  0.92508  1.0000
  C   C1326     1.0  0.60147  0.60492  0.94763  1.0000
  C   C1327     1.0  0.59997  0.62393  0.94316  1.0000
  C   C1328     1.0  0.58449  0.63543  0.95174  1.0000
  H   H2113     1.0  0.86410  0.77618  0.58054  1.0000
  C   C1329     1.0  0.51294  0.65971  0.92921  1.0000
  H   H2114     1.0  0.52560  0.77994  0.97284  1.0000
  H   H2115     1.0  0.61078  0.62972  0.93296  1.0000
  C   C1330     1.0  0.88736  0.77139  0.55812  1.0000
  C   C1331     1.0  0.57174  0.60892  0.96879  1.0000
  H   H2116     1.0  0.98584  0.66119  0.60184  1.0000
  N   N134      1.0  0.90569  0.72821  0.51482  1.0000
  H   H2117     1.0  0.54799  0.68045  0.92436  1.0000
  C   C1332     1.0  0.93326  0.59429  0.64462  1.0000
  C   C1333     1.0  0.90611  0.66553  0.51252  1.0000
  C   C1334     1.0  0.89499  0.71717  0.53068  1.0000
  N   N135      1.0  0.89498  0.61325  0.60505  1.0000
  S   S537      1.0  0.54670  0.74367  0.97028  1.0000
  C   C1335     1.0  0.97800  0.65305  0.50240  1.0000
  C   C1336     1.0  0.98139  0.70502  0.53737  1.0000
  C   C1337     1.0  0.91143  0.62130  0.59989  1.0000
  H   H2118     1.0  0.96026  0.77458  0.55733  1.0000
  H   H2119     1.0  0.94102  0.74869  0.60409  1.0000
  H   H2120     1.0  0.97682  0.65674  0.51565  1.0000
  C   C1338     1.0  0.88078  0.62211  0.61904  1.0000
  H   H2121     1.0  0.55850  0.63629  0.97141  1.0000
  H   H2122     1.0  0.54351  0.63261  0.93246  1.0000
  H   H2123     1.0  0.90610  0.59071  0.62501  1.0000
  C   C1339     1.0  0.94558  0.75347  0.58898  1.0000
  H   H2124     1.0  0.89839  0.62962  0.65629  1.0000
  C   C1340     1.0  0.52737  0.75702  0.96146  1.0000
  H   H2125     1.0  0.95989  0.59702  0.62721  1.0000
  H   H2126     1.0  0.96540  0.64811  0.50366  1.0000
  H   H2127     1.0  0.98519  0.59066  0.84847  1.0000
  H   H2128     1.0  0.97213  0.61481  0.65438  1.0000
  H   H2129     1.0  0.88110  0.71790  0.52852  1.0000
  Fe  Fe268     1.0  0.54886  0.71341  0.97535  1.0000
  H   H2130     1.0  0.89280  0.72199  0.54356  1.0000
  H   H2131     1.0  0.88811  0.58693  0.61703  1.0000
  C   C1341     1.0  0.95119  0.78166  0.59110  1.0000
  H   H2132     1.0  0.92299  0.73166  0.53051  1.0000
  H   H2133     1.0  0.91241  0.76305  0.53880  1.0000
  H   H2134     1.0  0.52747  0.64472  0.95974  1.0000
  H   H2135     1.0  0.96057  0.74456  0.55206  1.0000
  H   H2136     1.0  0.93902  0.74680  0.58233  1.0000
  H   H2137     1.0  0.91755  0.61913  0.61191  1.0000
  C   C1342     1.0  0.88747  0.61622  0.58862  1.0000
  C   C1343     1.0  0.50382  0.78519  0.95846  1.0000
  H   H2138     1.0  0.89798  0.61021  0.57753  1.0000
  H   H2139     1.0  0.90218  0.70250  0.53312  1.0000
  H   H2140     1.0  0.88229  0.74955  0.50864  1.0000
  H   H2141     1.0  0.50128  0.67050  0.93442  1.0000
  H   H2142     1.0  0.96074  0.74806  0.58526  1.0000
  C   C1344     1.0  0.97154  0.73356  0.54778  1.0000
  H   H2143     1.0  0.51737  0.66853  0.95816  1.0000
  N   N136      1.0  0.97994  0.66883  0.48682  1.0000
  H   H2144     1.0  0.87526  0.61001  0.59191  1.0000
  H   H2145     1.0  0.54191  0.66085  0.95452  1.0000
  C   C1345     1.0  0.98545  0.59253  0.68344  1.0000
  H   H2146     1.0  0.89251  0.75267  0.52531  1.0000
  H   H2147     1.0  0.98484  0.60067  0.63826  1.0000
  H   H2148     1.0  0.91235  0.77455  0.58408  1.0000
  C   C1346     1.0  0.52929  0.65865  0.95201  1.0000
  C   C1347     1.0  0.51962  0.75034  0.95100  1.0000
  H   H2149     1.0  0.52363  0.69033  0.92736  1.0000
  H   H2150     1.0  0.86807  0.61654  0.62315  1.0000
  S   S538      1.0  0.89820  0.59151  0.66417  1.0000
  H   H2151     1.0  0.55935  0.64735  0.92688  1.0000
  H   H2152     1.0  0.93258  0.73471  0.50626  1.0000
  H   H2153     1.0  0.92237  0.61517  0.58916  1.0000
  C   C1348     1.0  0.90025  0.59342  0.61266  1.0000
  H   H2154     1.0  0.50945  0.64626  0.93652  1.0000
  H   H2155     1.0  0.89426  0.72248  0.49516  1.0000
  H   H2156     1.0  0.88587  0.61988  0.63176  1.0000
  C   C1349     1.0  0.50427  0.76121  0.94394  1.0000
  C   C1350     1.0  0.87758  0.76772  0.57635  1.0000
  C   C1351     1.0  0.89571  0.74757  0.51245  1.0000
  C   C1352     1.0  0.92414  0.72660  0.51806  1.0000
  H   H2157     1.0  0.49852  0.75607  0.93563  1.0000
  H   H2158     1.0  0.51342  0.66142  0.91437  1.0000
  H   H2159     1.0  0.91646  0.77581  0.60527  1.0000
  H   H2160     1.0  0.90402  0.75654  0.50158  1.0000
  C   C1353     1.0  0.98472  0.60395  0.65138  1.0000
  H   H2161     1.0  0.87675  0.63716  0.61386  1.0000
  H   H2162     1.0  0.98715  0.64009  0.58236  1.0000
  H   H2163     1.0  0.60696  0.64238  0.97621  1.0000
  H   H2164     1.0  0.91536  0.70695  0.49940  1.0000
  H   H2165     1.0  0.96638  0.77692  0.58615  1.0000
  C   C1354     1.0  0.94524  0.77919  0.56301  1.0000
  H   H2166     1.0  0.60788  0.60912  0.98242  1.0000
  H   H2167     1.0  0.97293  0.60296  0.68771  1.0000
  C   C1355     1.0  0.90790  0.72153  0.49806  1.0000
  C   C1356     1.0  0.92060  0.78014  0.59006  1.0000
  H   H2168     1.0  0.94811  0.77765  0.60638  1.0000
  S   S539      1.0  0.57470  0.69177  0.97838  1.0000
  H   H2169     1.0  0.99028  0.59971  0.80619  1.0000
  N   N137      1.0  0.98503  0.58756  0.66651  1.0000
  C   C1357     1.0  0.96357  0.68387  0.48971  1.0000
  H   H2170     1.0  0.99568  0.68034  0.49798  1.0000
  S   S540      1.0  0.93521  0.64785  0.48951  1.0000
  H   H2171     1.0  0.99570  0.67026  0.56802  1.0000
  H   H2172     1.0  0.63441  0.61950  0.98503  1.0000
  H   H2173     1.0  0.54678  0.81760  0.15029  1.0000
  H   H2174     1.0  0.50170  0.91562  0.28915  1.0000
  H   H2175     1.0  0.51113  0.91795  0.31642  1.0000
  Fe  Fe269     1.0  0.57910  0.94183  0.35186  1.0000
  S   S541      1.0  0.55707  0.96531  0.36035  1.0000
  S   S542      1.0  0.60259  0.93158  0.36688  1.0000
  Fe  Fe270     1.0  0.55491  0.93321  0.33102  1.0000
  S   S543      1.0  0.53089  0.95572  0.33873  1.0000
  S   S544      1.0  0.55069  0.91379  0.31652  1.0000
  H   H2176     1.0  0.51200  0.94142  0.30633  1.0000
  C   C1358     1.0  0.86274  0.89813  0.48108  1.0000
  Fe  Fe271     1.0  0.53771  0.94671  0.36655  1.0000
  H   H2177     1.0  0.54256  0.86530  0.12285  1.0000
  S   S545      1.0  0.57666  0.94991  0.32216  1.0000
  S   S546      1.0  0.55977  0.92274  0.35958  1.0000
  H   H2178     1.0  0.95204  0.87852  0.47626  1.0000
  S   S547      1.0  0.51982  0.94354  0.39493  1.0000
  H   H2179     1.0  0.55874  0.83315  0.13233  1.0000
  H   H2180     1.0  0.79515  0.87213  0.47813  1.0000
  C   C1359     1.0  0.52978  0.79475  0.10875  1.0000
  S   S548      1.0  0.54123  0.94557  0.23447  1.0000
  H   H2181     1.0  0.57826  0.93415  0.40524  1.0000
  S   S549      1.0  0.50410  0.92094  0.22753  1.0000
  S   S550      1.0  0.92999  0.82552  0.47692  1.0000
  Fe  Fe272     1.0  0.51508  0.94473  0.22735  1.0000
  C   C1360     1.0  0.56564  0.92959  0.40569  1.0000
  H   H2182     1.0  0.54004  0.83898  0.17113  1.0000
  H   H2183     1.0  0.71104  0.94964  0.44214  1.0000
  H   H2184     1.0  0.56375  0.93310  0.39135  1.0000
  H   H2185     1.0  0.51454  0.82835  0.16594  1.0000
  C   C1361     1.0  0.53808  0.85057  0.15919  1.0000
  Fe  Fe273     1.0  0.55271  0.97188  0.33169  1.0000
  H   H2186     1.0  0.51920  0.87332  0.13438  1.0000
  H   H2187     1.0  0.81053  0.88581  0.46221  1.0000
  H   H2188     1.0  0.81977  0.90900  0.47254  1.0000
  H   H2189     1.0  0.79566  0.91922  0.47866  1.0000
  C   C1362     1.0  0.98606  0.84907  0.48551  1.0000
  S   S551      1.0  0.79977  0.95568  0.48409  1.0000
  H   H2190     1.0  0.57144  0.89087  0.43875  1.0000
  H   H2191     1.0  0.50794  0.83646  0.14425  1.0000
  Fe  Fe274     1.0  0.64882  0.98376  0.40896  1.0000
  H   H2192     1.0  0.58200  0.90228  0.38769  1.0000
  H   H2193     1.0  0.50281  0.85177  0.15942  1.0000
  C   C1363     1.0  0.55040  0.90441  0.41358  1.0000
  H   H2194     1.0  0.54044  0.82566  0.12848  1.0000
  H   H2195     1.0  0.73051  0.93001  0.46393  1.0000
  C   C1364     1.0  0.58350  0.89948  0.40214  1.0000
  H   H2196     1.0  0.92038  0.89014  0.46916  1.0000
  C   C1365     1.0  0.51339  0.84031  0.15421  1.0000
  H   H2197     1.0  0.54798  0.90735  0.39944  1.0000
  C   C1366     1.0  0.79857  0.88584  0.47421  1.0000
  H   H2198     1.0  0.50616  0.89115  0.16086  1.0000
  H   H2199     1.0  0.58534  0.88448  0.40757  1.0000
  C   C1367     1.0  0.61211  0.94751  0.37159  1.0000
  C   C1368     1.0  0.61981  0.94278  0.38715  1.0000
  C   C1369     1.0  0.62798  0.95505  0.39090  1.0000
  C   C1370     1.0  0.62899  0.97190  0.37877  1.0000
  C   C1371     1.0  0.62147  0.97652  0.36313  1.0000
  C   C1372     1.0  0.61271  0.96454  0.35975  1.0000
  H   H2200     1.0  0.61959  0.92953  0.39626  1.0000
  H   H2201     1.0  0.63383  0.95133  0.40293  1.0000
  C   C1373     1.0  0.50269  0.93219  0.31500  1.0000
  H   H2202     1.0  0.60702  0.96815  0.34763  1.0000
  C   C1374     1.0  0.72288  0.97293  0.43738  1.0000
  N   N138      1.0  0.53140  0.84547  0.14555  1.0000
  S   S552      1.0  0.51379  0.83086  0.10823  1.0000
  H   H2203     1.0  0.97478  0.80407  0.46209  1.0000
  H   H2204     1.0  0.96026  0.80361  0.44765  1.0000
  H   H2205     1.0  0.59654  0.90341  0.40150  1.0000
  C   C1375     1.0  0.54830  0.92275  0.29365  1.0000
  C   C1376     1.0  0.54229  0.91266  0.28486  1.0000
  C   C1377     1.0  0.53951  0.91984  0.26688  1.0000
  C   C1378     1.0  0.54314  0.93698  0.25748  1.0000
  C   C1379     1.0  0.54928  0.94701  0.26622  1.0000
  C   C1380     1.0  0.55158  0.94005  0.28439  1.0000
  H   H2206     1.0  0.53980  0.89925  0.29196  1.0000
  H   H2207     1.0  0.53509  0.91192  0.26007  1.0000
  H   H2208     1.0  0.55229  0.96018  0.25889  1.0000
  H   H2209     1.0  0.55621  0.94790  0.29109  1.0000
  H   H2210     1.0  0.50257  0.93908  0.27906  1.0000
  N   N139      1.0  0.56739  0.90979  0.41346  1.0000
  C   C1381     1.0  0.74451  0.95090  0.46262  1.0000
  H   H2211     1.0  0.95978  0.78818  0.46952  1.0000
  H   H2212     1.0  0.55156  0.85473  0.15306  1.0000
  Fe  Fe275     1.0  0.91847  0.80110  0.47966  1.0000
  C   C1382     1.0  0.96908  0.79492  0.45739  1.0000
  H   H2213     1.0  0.58685  0.98262  0.39094  1.0000
  S   S553      1.0  0.64229  0.94402  0.47399  1.0000
  H   H2214     1.0  0.84208  0.92296  0.48427  1.0000
  H   H2215     1.0  0.55813  0.91329  0.44134  1.0000
  C   C1383     1.0  0.54496  0.82980  0.13891  1.0000
  H   H2216     1.0  0.55115  0.88956  0.41937  1.0000
  C   C1384     1.0  0.50346  0.80126  0.13349  1.0000
  S   S554      1.0  0.66337  0.98376  0.45282  1.0000
  H   H2217     1.0  0.53791  0.91211  0.42177  1.0000
  S   S555      1.0  0.88968  0.86724  0.47704  1.0000
  H   H2218     1.0  0.98826  0.79951  0.42231  1.0000
  H   H2219     1.0  0.49816  0.93537  0.32892  1.0000
  C   C1385     1.0  0.73180  0.94400  0.45800  1.0000
  S   S556      1.0  0.66964  0.96039  0.42140  1.0000
  H   H2220     1.0  0.75604  0.97435  0.45820  1.0000
  C   C1386     1.0  0.74622  0.96894  0.45477  1.0000
  Fe  Fe276     1.0  0.64952  0.96445  0.44808  1.0000
  C   C1387     1.0  0.72074  0.95509  0.44570  1.0000
  H   H2221     1.0  0.55346  0.93781  0.41367  1.0000
  H   H2222     1.0  0.86724  0.90270  0.46640  1.0000
  H   H2223     1.0  0.96509  0.83666  0.48333  1.0000
  C   C1388     1.0  0.52920  0.86118  0.12989  1.0000
  H   H2224     1.0  0.69217  0.94634  0.47996  1.0000
  H   H2225     1.0  0.78651  0.89602  0.46953  1.0000
  C   C1389     1.0  0.57004  0.90570  0.43244  1.0000
  H   H2226     1.0  0.52398  0.85788  0.11941  1.0000
  H   H2227     1.0  0.98769  0.85692  0.47152  1.0000
  H   H2228     1.0  0.94963  0.89885  0.48417  1.0000
  C   C1390     1.0  0.51580  0.80740  0.11743  1.0000
  Fe  Fe277     1.0  0.68144  0.98230  0.42508  1.0000
  H   H2229     1.0  0.58276  0.90964  0.43278  1.0000
  S   S557      1.0  0.50970  0.95937  0.19942  1.0000
  S   S558      1.0  0.75819  0.93655  0.47804  1.0000
  S   S559      1.0  0.50182  0.91922  0.17975  1.0000
  C   C1391     1.0  0.91636  0.89652  0.48133  1.0000
  H   H2230     1.0  0.91879  0.91064  0.47652  1.0000
  H   H2231     1.0  0.53938  0.79948  0.09635  1.0000
  C   C1392     1.0  0.99607  0.79069  0.43284  1.0000
  H   H2232     1.0  0.83150  0.87664  0.48442  1.0000
  H   H2233     1.0  0.49980  0.94584  0.36733  1.0000
  H   H2234     1.0  0.58361  0.98385  0.32135  1.0000
  C   C1393     1.0  0.80717  0.90864  0.48379  1.0000
  C   C1394     1.0  0.73568  0.97980  0.44190  1.0000
  H   H2235     1.0  0.70595  0.97176  0.47935  1.0000
  H   H2236     1.0  0.62143  0.98111  0.47373  1.0000
  H   H2237     1.0  0.52813  0.86225  0.16463  1.0000
  H   H2238     1.0  0.49732  0.97902  0.37985  1.0000
  C   C1395     1.0  0.49695  0.94278  0.39638  1.0000
  Fe  Fe278     1.0  0.62080  0.97506  0.56185  1.0000
  H   H2239     1.0  0.66404  0.97069  0.51720  1.0000
  S   S560      1.0  0.90540  0.82753  0.51883  1.0000
  C   C1396     1.0  0.50432  0.97749  0.77194  1.0000
  C   C1397     1.0  0.52893  0.98048  0.74490  1.0000
  H   H2240     1.0  0.49770  0.79855  0.96155  1.0000
  C   C1398     1.0  0.55442  0.95441  0.64141  1.0000
  H   H2241     1.0  0.59457  0.95513  0.55088  1.0000
  C   C1399     1.0  0.57980  0.96932  0.63544  1.0000
  Fe  Fe279     1.0  0.89658  0.80267  0.51809  1.0000
  C   C1400     1.0  0.54796  0.96097  0.56611  1.0000
  H   H2242     1.0  0.93123  0.85799  0.51161  1.0000
  Fe  Fe280     1.0  0.64987  0.94489  0.57761  1.0000
  Fe  Fe281     1.0  0.76338  0.95870  0.52994  1.0000
  H   H2243     1.0  0.95481  0.87680  0.49895  1.0000
  S   S561      1.0  0.74192  0.96281  0.55557  1.0000
  Fe  Fe282     1.0  0.80247  0.94035  0.51277  1.0000
  Fe  Fe283     1.0  0.63594  0.97904  0.59251  1.0000
  S   S562      1.0  0.82507  0.91766  0.52347  1.0000
  H   H2244     1.0  0.99483  0.78826  0.53176  1.0000
  S   S563      1.0  0.92508  0.78771  0.50725  1.0000
  C   C1401     1.0  0.81878  0.87668  0.49560  1.0000
  S   S564      1.0  0.79103  0.96520  0.52523  1.0000
  S   S565      1.0  0.77500  0.93270  0.52005  1.0000
  S   S566      1.0  0.75739  0.97530  0.50295  1.0000
  H   H2245     1.0  0.57715  0.97259  0.54144  1.0000
  H   H2246     1.0  0.71328  0.91751  0.54740  1.0000
  C   C1402     1.0  0.56941  0.96958  0.57790  1.0000
  S   S567      1.0  0.87726  0.78954  0.54227  1.0000
  H   H2247     1.0  0.53000  0.95034  0.78583  1.0000
  H   H2248     1.0  0.56291  0.93616  0.59303  1.0000
  H   H2249     1.0  0.56648  0.98397  0.57010  1.0000
  C   C1403     1.0  0.57186  0.93781  0.57892  1.0000
  H   H2250     1.0  0.53862  0.97097  0.77748  1.0000
  H   H2251     1.0  0.68335  0.98435  0.48795  1.0000
  C   C1404     1.0  0.61689  0.98502  0.50112  1.0000
  H   H2252     1.0  0.58372  0.96644  0.57993  1.0000
  S   S568      1.0  0.67553  0.92547  0.56712  1.0000
  S   S569      1.0  0.88918  0.81437  0.49051  1.0000
  S   S570      1.0  0.62246  0.94517  0.57303  1.0000
  H   H2253     1.0  0.49798  0.80778  0.89625  1.0000
  H   H2254     1.0  0.92751  0.88606  0.52302  1.0000
  C   C1405     1.0  0.70700  0.94367  0.50852  1.0000
  N   N140      1.0  0.56728  0.95668  0.56817  1.0000
  N   N141      1.0  0.80277  0.89036  0.48971  1.0000
  C   C1406     1.0  0.62924  0.95886  0.52282  1.0000
  C   C1407     1.0  0.63529  0.94840  0.50931  1.0000
  C   C1408     1.0  0.54347  0.96624  0.65304  1.0000
  H   H2255     1.0  0.56015  0.96869  0.59185  1.0000
  H   H2256     1.0  0.63217  0.95275  0.53618  1.0000
  H   H2257     1.0  0.64258  0.93430  0.51248  1.0000
  C   C1409     1.0  0.72387  0.95172  0.55937  1.0000
  C   C1410     1.0  0.70697  0.95742  0.57099  1.0000
  C   C1411     1.0  0.69221  0.94907  0.57373  1.0000
  C   C1412     1.0  0.69439  0.93485  0.56501  1.0000
  C   C1413     1.0  0.71146  0.92875  0.55385  1.0000
  C   C1414     1.0  0.72611  0.93735  0.55082  1.0000
  C   C1415     1.0  0.61979  0.97712  0.51885  1.0000
  H   H2258     1.0  0.67923  0.95351  0.58279  1.0000
  H   H2259     1.0  0.76612  0.98360  0.55737  1.0000
  H   H2260     1.0  0.73917  0.93267  0.54210  1.0000
  C   C1416     1.0  0.51745  0.95267  0.75603  1.0000
  Fe  Fe284     1.0  0.77122  0.94975  0.49238  1.0000
  H   H2261     1.0  0.67817  0.93623  0.50093  1.0000
  H   H2262     1.0  0.70522  0.96840  0.57779  1.0000
  H   H2263     1.0  0.54409  0.97515  0.55810  1.0000
  H   H2264     1.0  0.54584  0.95148  0.55883  1.0000
  N   N142      1.0  0.92665  0.88559  0.49567  1.0000
  H   H2265     1.0  0.52956  0.96488  0.65992  1.0000
  N   N143      1.0  0.52150  0.96766  0.76148  1.0000
  H   H2266     1.0  0.92783  0.86022  0.48903  1.0000
  C   C1417     1.0  0.98228  0.82846  0.52144  1.0000
  H   H2267     1.0  0.57030  0.92763  0.57214  1.0000
  C   C1418     1.0  0.97153  0.82717  0.51014  1.0000
  C   C1419     1.0  0.53526  0.95999  0.77313  1.0000
  Fe  Fe285     1.0  0.93361  0.81344  0.50578  1.0000
  H   H2268     1.0  0.54158  0.97348  0.73631  1.0000
  C   C1420     1.0  0.56889  0.98101  0.64708  1.0000
  S   S571      1.0  0.58593  0.94196  0.61730  1.0000
  S   S572      1.0  0.64910  0.97431  0.56410  1.0000
  Fe  Fe286     1.0  0.61073  0.95303  0.60025  1.0000
  H   H2269     1.0  0.51481  0.82072  0.88212  1.0000
  C   C1421     1.0  0.86559  0.87512  0.50893  1.0000
  C   C1422     1.0  0.85154  0.88668  0.51902  1.0000
  C   C1423     1.0  0.84284  0.90387  0.51017  1.0000
  C   C1424     1.0  0.94664  0.88494  0.48844  1.0000
  Fe  Fe287     1.0  0.90091  0.83791  0.49005  1.0000
  H   H2270     1.0  0.87208  0.86185  0.51590  1.0000
  H   H2271     1.0  0.84724  0.88222  0.53376  1.0000
  N   N144      1.0  0.69038  0.95690  0.50348  1.0000
  H   H2272     1.0  0.49840  0.96828  0.78461  1.0000
  H   H2273     1.0  0.58637  0.93412  0.58073  1.0000
  C   C1425     1.0  0.67669  0.96055  0.52041  1.0000
  Fe  Fe288     1.0  0.78608  0.98007  0.49730  1.0000
  C   C1426     1.0  0.87128  0.88086  0.48994  1.0000
  H   H2274     1.0  0.68254  0.96582  0.52905  1.0000
  H   H2275     1.0  0.91640  0.79530  0.58629  1.0000
  C   C1427     1.0  0.57254  0.95608  0.63249  1.0000
  H   H2276     1.0  0.54883  0.94405  0.63930  1.0000
  H   H2277     1.0  0.90502  0.89467  0.51767  1.0000
  H   H2278     1.0  0.98078  0.82064  0.53544  1.0000
  H   H2279     1.0  0.82197  0.87962  0.50753  1.0000
  S   S573      1.0  0.49945  0.98042  0.71175  1.0000
  C   C1428     1.0  0.57988  0.95840  0.54981  1.0000
  H   H2280     1.0  0.78252  0.87695  0.50988  1.0000
  S   S574      1.0  0.63851  0.94941  0.60640  1.0000
  H   H2281     1.0  0.50669  0.95791  0.74770  1.0000
  H   H2282     1.0  0.52995  0.94520  0.74768  1.0000
  C   C1429     1.0  0.92008  0.89401  0.51190  1.0000
  H   H2283     1.0  0.57861  0.94900  0.54193  1.0000
  H   H2284     1.0  0.51216  0.94258  0.76828  1.0000
  H   H2285     1.0  0.94168  0.79431  0.55827  1.0000
  S   S575      1.0  0.60718  0.98320  0.58875  1.0000
  H   H2286     1.0  0.94787  0.79684  0.58712  1.0000
  C   C1430     1.0  0.55069  0.97967  0.65575  1.0000
  H   H2287     1.0  0.80961  0.91284  0.49536  1.0000
  H   H2288     1.0  0.67227  0.94785  0.52909  1.0000
  C   C1431     1.0  0.68228  0.94923  0.49287  1.0000
  C   C1432     1.0  0.69555  0.97411  0.49217  1.0000
  H   H2289     1.0  0.92223  0.90822  0.50835  1.0000
  H   H2290     1.0  0.70348  0.93070  0.51746  1.0000
  H   H2291     1.0  0.78935  0.89351  0.51729  1.0000
  H   H2292     1.0  0.59391  0.97038  0.62894  1.0000
  S   S576      1.0  0.95746  0.81104  0.51848  1.0000
  H   H2293     1.0  0.70171  0.98031  0.49973  1.0000
  H   H2294     1.0  0.71377  0.94923  0.51609  1.0000
  H   H2295     1.0  0.53814  0.95983  0.57974  1.0000
  C   C1433     1.0  0.78651  0.89041  0.50525  1.0000
  H   H2296     1.0  0.54839  0.95242  0.76568  1.0000
  H   H2297     1.0  0.81614  0.86264  0.49985  1.0000
  C   C1434     1.0  0.84848  0.90959  0.49115  1.0000
  H   H2298     1.0  0.90850  0.86686  0.50672  1.0000
  C   C1435     1.0  0.92345  0.86683  0.50104  1.0000
  H   H2299     1.0  0.51178  0.83490  0.90795  1.0000
  C   C1436     1.0  0.63265  0.95641  0.49148  1.0000
  H   H2300     1.0  0.77429  0.90095  0.50141  1.0000
  H   H2301     1.0  0.71749  0.94018  0.49619  1.0000
  H   H2302     1.0  0.50694  0.85479  0.87777  1.0000
  C   C1437     1.0  0.97323  0.83769  0.49220  1.0000
  H   H2303     1.0  0.66970  0.95886  0.48887  1.0000
  C   C1438     1.0  0.49973  0.82103  0.88653  1.0000
  C   C1439     1.0  0.99511  0.83973  0.51476  1.0000
  C   C1440     1.0  0.62350  0.97475  0.48742  1.0000
  H   H2304     1.0  0.90118  0.89763  0.48652  1.0000
