data_image0
_chemical_formula_structural       H2FeS2FeSNSC4HS2H2SCH3SCFeS2HSFeSFeHSC2H3SHFeS2FeS2FeSFeS3FeS2FeS2FeSFeS3C6H4C5H5C6H6CFeHSC6H4C5H2FeSH3CHCH2C4HCH2NHCHC2HC6H4C6H2SHC6H3SH2CSHCFeH3FeH2FeH5SH3CHSFeH3NCH2CH3CHNCH3NC4H15SH2CH4CH2CNC4HNH3FeCHSH7SHCHSC2H3CHCSCH2NHFeH2NC2H4CH2NFeHCSCH3CNHC2H3CH2CHFeC2H2CH2CFeH2CHCH2NH3C2SH2CH2CH2SHSH2CH3NH2C2H5CNCH2SHCHCH5CH2C2H3CH5C2H2SH2S2HCFeHS4H3C2FeS2FeCFeHFeS3CSHFeS2HSHFeCFeSHSFeS2FeS2FeSFeS3FeS2FeS2FeSFeS4H2SCH2C4HC6H4C6H5SCHC2HCH3C2HNH2CHC6H3CFeC4H2CSH2CHC6H5C2H5FeH7CFeC6H3C6H4C6H11C2H7CHFeCNCH3C2NSHCSH4C2HSCSHCNC2H7CNH5C5H5CHNC3H8CH2SC3HCSH4C2H6CH6NCH5FeSCHCH4CFeH2CNC2H3NHSHC3H5CHNSN2C2FeH4CS2HCFeH3NC2H6CH3CH4CHSH3C2H2SH4SNCH6CH5C4HCH2CSH2C2H2CHSHFeH3NCHCHCHCHFeS2FeS2FeHFeS3FeS2FeSCFeSFeS3FeS2CFeSCSCHSH5SHFe2HSH2CHC2FeS2H2CH2CHC2HS3H3SHSHFeCH2CH4C5HC2H2SHFeHCH4SNHC2HC3NC2HNHCH2C7H4C2FeH2CH4SNH2SH2SH2C6H3C3H2C2H4C6HC9HSH2FeCH4C6H5CH2NH6NH2C3H3C2HCHC2H2C2H2SCHC2HCH5FeH4CHC3H2NC5H7CH2CNCSCSH3FeH6CNSH2CH2CS3H2CSNSH2CH2CFeH2CH2FeSH3CH5CHCSHC2H3C2HC2SCHCSNH5CSCH8SCNHCH2C2H3CHCHC2H3CHNFe2NHCH12C2H2CH2CH2CHFeH2CH5CHS2H5SH4CH2CH2C2H3C3H3CSCFeHSHSHCSHC2SC2H2SH2SHCFeS2FeS2FeSFeS3FeHSFeS2FeS2FeS2FeSFeS3FeHSFeSFeSCHCH2S2CHCHFeS2FeS3HCHSCHFeCHSNC3SHCHCH4FeHCNSHCNH3FeCH2NH3C6H4C6H4C3H2SH4C6H4C5H7SHC6H8SH2C6H4C6H4C7H4C7H5NHFeCH2CHCH2CH3CHCHNC4H12CSHCHFeHC2H4C2SHNC4H12CHCH3S2CH3NCHCHNC4H12NC3H2CH4CHNC4H5CH6NC4H5CH11CFeCH2SCH4C2HSH2CH2SFeSFeH3NFeHCFeSFeS2FeSFeS3FeS2CHCHFeS2HFeS2FeS2FeSFeS3CHSCH4CHFeS2HCSHCFeSHSCHSH5FeCSCFeS2HFe2SH2CH5C2H2SH3C3H3C2H5SHNHCSCSH2C4H2SHFeC6H4C6H3C6H4C6H5C7H5C8H2C3HFeC6H2SH2NC2H3CFeCSCH3CS3H6CH3CH2CH3CH2NHNCNC2HSH2Fe2H6NC4H13FeCHCH4C3H2CSN2C4H12S2HCH2FeH4FeSHSCSHCHCH2CNSCH4CH3NCHC2H2CHFeHC2HCH4C3H2N2C2HCHCH4CH2CH2CH2C2H2S2H3C2H6FeCH4SH2CH4FeC2H2CH3FeH6C2H3CHCH3FeSHFeS2FeS2FeCFeS3FeS2FeS2FeHFeS3FeSHFeS2FeSFeS3H2SFeSCFeS2FeSFeS3H2C4H4SHSCHSHC2FeSHSHSH2CH2CHFeH2CHCHCH2CH3C4HSH2CSC2H2CH2C2NH3C7H2NHC2H8C7H3C2H2C6H4C6H5FeHC2SCH2CHCH2C6H4C3HSCH3CFeH2C4H5C2HCH4CH2CNC3HCHS2H5CH2SH2CSH5CSH6SHC3S2HCHCH4SNHC3HCSCH2CHCH3CNH4CH2C2HC2H2CSH2CHC3H4CHNH4SCSHC3NCNHNH2SHSHSH2N2HSFeS2H2NH2C2H9CH3C3HCH2CHCSC2H3CFeHC9HNCFeH7SN2H7CH2CH2SFe3HSHFeHCHCH2CHCH2CHCH2CFeH4CH2CHC2HFeC2H6NCH4SCH3CHSHCH2C4H4CHSCH4SFeH4SHSC2HCH3CHCHFeCH2SFeHCH4NCH2CH2CH4FeS2Fe2S3FeSFeS2HSH3FeS2FeS2FeNFeS3FeS2FeS2FeSFeS3CH3NFeS2FeS2FeSFeHS2FeS2FeS2FeSFeS3C6H6C3H7CH3CHCHCNC3H2C6H4CHCHCH3C3HC3NH3CH2C3HC4HC6H6FeH5C7H4C6H6C2H2C6H4C6H4NCH3CH3SH4NCHC5H4CSNC2H2CH4FeSH4C2H2FeNCH4CH2NC4H12NC4H3CH2CSH4NC4H12NC4H12SH7FeH2SHSH2CH3CHC2H2SHCSCFeH6CH3CH3CSHCHCH3CHSH2SHSFe2SCHNC2NC2HCH2CH2CHC3H3SCH7CHNFeS2FeS2FeSFeS2FeS2FeS2HSCH4CFeS2FeS2FeSFeHS2FeS2FeS2FeSFeS3H2SH2CH4NHFeCHFeS2FeSHCSCFeS2FeS2FeSFeS3HC6H4C4H2C3HC2H2SHC6H10NCHCHCH2C4H2CHC4H4C6H4CSHC8H4C6H5C3H2C6H4C6H3FeCH3C2HCH2FeCH5C2SCHFeHCH8SH3NHC3H3NC4H13NH4CHNH3CSCHCNFeHC2H3NC2H6NC2HCH2SH9SFeSHCH2NC4H12CSH2CHCHSC2HSCNC2SFeH3CH4C2S2H6CH3CHCH2NH2CNH2CHCHSH5CH2CHC2H6C2H2CHCH2FeS2FeSHFeS2NSH2CHFeS2FeSHSHCFeSHCHS2HFeSHFeS2Fe2S2HFeS2FeSFeS3FeS2FeS2FeSFeS3CSFe2SFeSH2S2C3HSHNSHSCHFeS2FeS2FeHFeS3HFeHSH2SHSHFeS2FeS2FeSFeS3HC8H6S2HC8H4NCH2C2HC6H4C2HFeSCHCH2C6H4C5SCH2SHC2HCHC7HSC4HFeH3CHC4HNH2C6FeH5C2H2CH2C2SC3HCHSH2C7H5FeCH4C6H5C6H3SNC4H12NC4H16CH2S2FeH3FeCH2NFeSH2CH2C2H2C2SH4NH5SH2FeCH4CHNH7S2HCHNSC2NH5FeNCHNSHSCH2CHSH7NC2HCH4CHCHFeH3CHCHFeHFeHCH2C2H3CNC4H15FeCHSH2CH5NHC3HCHCHCHFeH3CFeH2C2HCSHC3H3C3HC2HFeCSH2CFeSH4C3H4CHCH2CH2CSHCH2CNH2SHC4HC2H2CHSC3HCH2CH2NHCHCH2CH10FeHNCHFeH2CH2NH4C2H4C2H2CH2CFeHSHCH3C4SH6C2HS3H2SH3C2NCH2CH2CSH4CHSHC4H2CH2C2SH5FeSC3SHCHSNHCH6CHNH4NCHC2H3CSH2C2SH4CH4CH2SHCH3SHCH2FeS2FeS2FeSFeS4CHSH2CH3CFe2S2FeS2FeSFeS3FeSFeS2FeSFeS4CSH2SFeH3FeHCH3CFeS2FeSFeCFeHSH3NH4CH2CHC2H4NSC8H4C6H2CHCFeHC3H2CH2CH4C2SC3HC2H4C7H3C6H4C6H4CH2C3H2CHC6H3NC4H12NHC2HCNCH2CH3SHSNC4H16CH5CH3CH2FeHCH4SCHSCFeHCHSHCH2NC3HC3H3NC3NC4H15C2HCH3S2HNSH4CHNH9C3H6SHC3H3C2H9C3H3CHC2SFeC2H2CH5CHCH5NH2SHSC2H2Fe2H5FeS2CSFeS2FeS2FeS2FeSFeS3FeSHFeS2FeSFeS3FeS2FeS2FeSFeS3H2CH2CFeNH5CH2SH2SH2CH3C5H3CH2C2H2CFeH3CH2C2H2C6H4C6H5C2H2C6H3C6H4C6H4CH2C3H5FeC3H2CFeSC5H5SFeH5C4HSNH2CNC5NHSH3CHNHCH2NHC6SFeH4CHCHCHCHSHFeHCHSH7SH7SNHCHSNC4H14C2H2SHC2HSC2HSH2C2H6S3HCH2CNHCHCNFeC2H4CH5CHCH3C2H3CNH2C2H2CH6FeHC3H2CH3SH6NCH3CFeSCFeC2S2HCH2S3H6SFeSCHFeCH5NHFeS2CSCH2SH2FeCHFeCSFeSH2S3HC2HCHC5H11SCHSCH2CSFeH4SH4SH9C5HFeH2SCH2SHC3HFeH2C2HCHCHC5H2CN2H3CSCHCHCHSCH2FeH2CHC2FeCN2CHCHNC3H4CH2C2H3CH2CSCHSCHFeSHC2HCFeC2H2SHNHCSC2SHSC3HCHSFeHCHFeHCHCH10SHNCHC2H3CFeH6SCNFeHSHSFeSFeH2FeS2CHFeSCSH2CH2SH2SFeCFeS2FeS2FeSFeS2FeS2FeS2FeSFeS3FeSHSHCFeS2HSCFeS2FeS3FeHC2H3C3H2C6H4C6H4C6H4C6HCH2C2HC2H9SCHCHC2HC6H4C6H7C3HCH2C6H5SHSHFeHNHCSH3CHCH3NC4H12C2H4NC4H12NC4H12NC4H4SH6CNFeHC3HC2HCH2NH2CH3CH4SC2NFeH2C4SFe2SHCHSHCHC2H2SHSHC2H2CHCH2CFeHNHCSFeH2SH5CH8NHSHSCH5CSCH4FeH2CH5C4H3CHS2FeSFeS2FeCSHFeS5H3CH2CHFeS2FeS2FeSFeHS2FeS2FeS2FeSFeS3FeS2CH6SC2SFeS2FeSFeSHSFeS2FeS2HC6H4SHC2SC3SCH2C6H6N2HC6H4C6H4SH2C3FeCHCHC4HFeH12C7H4C6H4C6H4C4H2NC4H15SH3CNC4H13CNC4H12NC4H12NC4H8FeSHSCFeNH3C2H2FeH7C2HC2HCH2SNHC2HCHCHC3H2C2H4SCH4C2HFeNCHCHCH3NFeH5C6SH4SCH3C2HC2HCHFeH2CH2CSHFeH3SCSH4SNH5
_chemical_formula_sum              "H3072 Fe384 S768 N192 C1920"
_cell_length_a       80.7685
_cell_length_b       81.6871
_cell_length_c       81.7131
_cell_angle_alpha    75.31
_cell_angle_beta     75.2906
_cell_angle_gamma    75.4046

_space_group_name_H-M_alt    "P 1"
_space_group_IT_number       1

loop_
  _space_group_symop_operation_xyz
  'x, y, z'

loop_
  _atom_site_type_symbol
  _atom_site_label
  _atom_site_symmetry_multiplicity
  _atom_site_fract_x
  _atom_site_fract_y
  _atom_site_fract_z
  _atom_site_occupancy
  H   H1        1.0  0.06683  0.01362  0.75756  1.0000
  H   H2        1.0  0.14485  0.04058  0.79564  1.0000
  Fe  Fe1       1.0  0.10401  0.01704  0.74673  1.0000
  S   S1        1.0  0.11472  0.01765  0.76934  1.0000
  S   S2        1.0  0.08495  0.03847  0.73312  1.0000
  Fe  Fe2       1.0  0.14102  0.01054  0.75282  1.0000
  S   S3        1.0  0.16350  0.02138  0.75362  1.0000
  N   N1        1.0  0.18346  0.00213  0.70073  1.0000
  S   S4        1.0  0.13058  0.01245  0.72946  1.0000
  C   C1        1.0  0.06110  0.99507  0.73779  1.0000
  C   C2        1.0  0.12710  0.15774  0.75021  1.0000
  C   C3        1.0  0.01877  0.19336  0.66983  1.0000
  C   C4        1.0  0.02938  0.41711  0.71769  1.0000
  H   H3        1.0  0.05972  0.99477  0.77125  1.0000
  S   S5        1.0  0.12667  0.43878  0.73441  1.0000
  S   S6        1.0  0.01430  0.34531  0.72499  1.0000
  H   H4        1.0  0.05562  0.36737  0.76474  1.0000
  H   H5        1.0  0.11339  0.43533  0.80514  1.0000
  S   S7        1.0  0.01530  0.23989  0.64519  1.0000
  C   C5        1.0  0.01488  0.40266  0.74517  1.0000
  H   H6        1.0  0.03650  0.05751  0.77936  1.0000
  H   H7        1.0  0.03465  0.02180  0.72900  1.0000
  H   H8        1.0  0.13161  0.44474  0.80348  1.0000
  S   S8        1.0  0.00942  0.32187  0.77376  1.0000
  C   C6        1.0  0.11727  0.14488  0.73176  1.0000
  Fe  Fe3       1.0  0.16893  0.45413  0.79905  1.0000
  S   S9        1.0  0.15082  0.46034  0.82327  1.0000
  S   S10       1.0  0.16436  0.47099  0.77361  1.0000
  H   H9        1.0  0.00479  0.16695  0.69071  1.0000
  S   S11       1.0  0.17563  0.42843  0.84478  1.0000
  Fe  Fe4       1.0  0.15317  0.43138  0.83144  1.0000
  S   S12       1.0  0.12788  0.42109  0.83933  1.0000
  Fe  Fe5       1.0  0.17474  0.45696  0.83400  1.0000
  H   H10       1.0  0.05720  0.38957  0.73839  1.0000
  S   S13       1.0  0.17018  0.42571  0.80648  1.0000
  C   C7        1.0  0.07738  0.34985  0.72979  1.0000
  C   C8        1.0  0.15632  0.04433  0.79786  1.0000
  H   H11       1.0  0.13062  0.14498  0.75875  1.0000
  H   H12       1.0  0.04359  0.34821  0.74284  1.0000
  H   H13       1.0  0.04520  0.43457  0.71869  1.0000
  S   S14       1.0  0.14766  0.10177  0.72807  1.0000
  H   H14       1.0  0.12584  0.17256  0.70763  1.0000
  Fe  Fe6       1.0  0.06465  0.34936  0.80751  1.0000
  S   S15       1.0  0.09013  0.35542  0.79157  1.0000
  S   S16       1.0  0.04002  0.36849  0.80372  1.0000
  Fe  Fe7       1.0  0.08001  0.31295  0.82295  1.0000
  S   S17       1.0  0.10723  0.31584  0.80870  1.0000
  S   S18       1.0  0.07430  0.28662  0.83716  1.0000
  Fe  Fe8       1.0  0.10065  0.34222  0.81549  1.0000
  S   S19       1.0  0.12356  0.35212  0.81839  1.0000
  Fe  Fe9       1.0  0.09509  0.32907  0.78585  1.0000
  S   S20       1.0  0.10575  0.32467  0.75872  1.0000
  S   S21       1.0  0.07442  0.33805  0.83221  1.0000
  S   S22       1.0  0.06860  0.32427  0.79936  1.0000
  Fe  Fe10      1.0  0.08397  0.20572  0.73608  1.0000
  S   S23       1.0  0.10852  0.21491  0.73334  1.0000
  S   S24       1.0  0.07830  0.18022  0.75169  1.0000
  Fe  Fe11      1.0  0.06704  0.23879  0.71442  1.0000
  S   S25       1.0  0.09026  0.25126  0.70941  1.0000
  S   S26       1.0  0.04030  0.25114  0.70856  1.0000
  Fe  Fe12      1.0  0.10611  0.22484  0.70565  1.0000
  S   S27       1.0  0.12813  0.21775  0.68385  1.0000
  Fe  Fe13      1.0  0.09090  0.24027  0.73754  1.0000
  S   S28       1.0  0.09173  0.25159  0.75973  1.0000
  S   S29       1.0  0.08266  0.21368  0.70814  1.0000
  S   S30       1.0  0.06649  0.22995  0.74274  1.0000
  C   C9        1.0  0.10286  0.30416  0.75827  1.0000
  C   C10       1.0  0.10319  0.29969  0.74267  1.0000
  C   C11       1.0  0.10010  0.28343  0.74271  1.0000
  C   C12       1.0  0.09704  0.27158  0.75834  1.0000
  C   C13       1.0  0.09717  0.27601  0.77377  1.0000
  C   C14       1.0  0.09982  0.29227  0.77378  1.0000
  H   H15       1.0  0.10562  0.30883  0.73061  1.0000
  H   H16       1.0  0.10005  0.28007  0.73074  1.0000
  H   H17       1.0  0.09515  0.26684  0.78588  1.0000
  H   H18       1.0  0.09965  0.29548  0.78588  1.0000
  C   C15       1.0  0.17498  0.17749  0.70036  1.0000
  C   C16       1.0  0.16823  0.19204  0.70793  1.0000
  C   C17       1.0  0.15375  0.20432  0.70306  1.0000
  C   C18       1.0  0.14619  0.20236  0.69024  1.0000
  C   C19       1.0  0.15306  0.18791  0.68250  1.0000
  H   H19       1.0  0.03243  0.03149  0.74713  1.0000
  H   H20       1.0  0.17423  0.19382  0.71762  1.0000
  H   H21       1.0  0.14864  0.21549  0.70900  1.0000
  H   H22       1.0  0.14735  0.18640  0.67247  1.0000
  H   H23       1.0  0.15092  0.13487  0.73311  1.0000
  C   C20       1.0  0.12406  0.37187  0.82356  1.0000
  C   C21       1.0  0.14035  0.37635  0.82114  1.0000
  C   C22       1.0  0.14163  0.39148  0.82562  1.0000
  C   C23       1.0  0.12662  0.40230  0.83279  1.0000
  C   C24       1.0  0.11026  0.39797  0.83504  1.0000
  C   C25       1.0  0.10895  0.38287  0.83038  1.0000
  H   H24       1.0  0.15214  0.36790  0.81602  1.0000
  H   H25       1.0  0.15433  0.39445  0.82399  1.0000
  H   H26       1.0  0.09859  0.40610  0.84081  1.0000
  H   H27       1.0  0.09637  0.37942  0.83264  1.0000
  H   H28       1.0  0.01714  0.17240  0.79958  1.0000
  H   H29       1.0  0.08525  0.41794  0.78958  1.0000
  C   C26       1.0  0.02229  0.41125  0.75364  1.0000
  Fe  Fe14      1.0  0.00186  0.11133  0.74884  1.0000
  H   H30       1.0  0.03086  0.26454  0.77222  1.0000
  S   S31       1.0  0.10320  0.98857  0.75470  1.0000
  C   C27       1.0  0.02229  0.24305  0.66282  1.0000
  C   C28       1.0  0.03882  0.23431  0.66620  1.0000
  C   C29       1.0  0.04448  0.23642  0.68035  1.0000
  C   C30       1.0  0.03361  0.24731  0.69119  1.0000
  C   C31       1.0  0.01711  0.25596  0.68786  1.0000
  C   C32       1.0  0.01155  0.25393  0.67369  1.0000
  H   H31       1.0  0.04733  0.22597  0.65778  1.0000
  H   H32       1.0  0.05731  0.22979  0.68271  1.0000
  H   H33       1.0  0.00870  0.26460  0.69603  1.0000
  H   H34       1.0  0.19076  0.46257  0.73739  1.0000
  C   C33       1.0  0.04235  0.29410  0.69038  1.0000
  C   C34       1.0  0.02660  0.34029  0.80641  1.0000
  C   C35       1.0  0.02781  0.35709  0.79751  1.0000
  C   C36       1.0  0.02182  0.36361  0.78209  1.0000
  C   C37       1.0  0.01585  0.35287  0.77492  1.0000
  H   H35       1.0  0.03101  0.33536  0.81847  1.0000
  H   H36       1.0  0.02286  0.37657  0.77519  1.0000
  Fe  Fe15      1.0  0.19229  0.42477  0.81892  1.0000
  S   S32       1.0  0.00277  0.20132  0.81642  1.0000
  H   H37       1.0  0.16458  0.47048  0.87563  1.0000
  H   H38       1.0  0.16254  0.47167  0.69314  1.0000
  H   H39       1.0  0.08452  0.45482  0.80142  1.0000
  C   C38       1.0  0.03330  0.42282  0.74422  1.0000
  H   H40       1.0  0.04734  0.40279  0.78527  1.0000
  C   C39       1.0  0.02691  0.20523  0.76478  1.0000
  H   H41       1.0  0.05842  0.28296  0.65113  1.0000
  H   H42       1.0  0.05586  0.99331  0.72713  1.0000
  C   C40       1.0  0.13807  0.44762  0.74452  1.0000
  C   C41       1.0  0.14943  0.43676  0.75493  1.0000
  C   C42       1.0  0.15772  0.44383  0.76384  1.0000
  C   C43       1.0  0.15493  0.46176  0.76203  1.0000
  H   H43       1.0  0.04569  0.01571  0.77156  1.0000
  C   C44       1.0  0.13571  0.46553  0.74237  1.0000
  H   H44       1.0  0.15148  0.42288  0.75647  1.0000
  H   H45       1.0  0.16635  0.43537  0.77196  1.0000
  N   N2        1.0  0.05111  0.29676  0.67195  1.0000
  H   H46       1.0  0.06118  0.28232  0.76818  1.0000
  C   C45       1.0  0.01843  0.40550  0.72711  1.0000
  H   H47       1.0  0.03211  0.41958  0.70371  1.0000
  C   C46       1.0  0.03891  0.29792  0.83877  1.0000
  C   C47       1.0  0.05270  0.28369  0.83990  1.0000
  H   H48       1.0  0.04142  0.31072  0.83680  1.0000
  C   C48       1.0  0.04947  0.16072  0.72183  1.0000
  C   C49       1.0  0.04363  0.15986  0.73961  1.0000
  C   C50       1.0  0.05305  0.16504  0.74893  1.0000
  C   C51       1.0  0.06782  0.17194  0.74031  1.0000
  C   C52       1.0  0.07372  0.17275  0.72253  1.0000
  C   C53       1.0  0.06461  0.16705  0.71331  1.0000
  H   H49       1.0  0.03174  0.15551  0.74619  1.0000
  H   H50       1.0  0.04855  0.16423  0.76271  1.0000
  H   H51       1.0  0.08542  0.17760  0.71585  1.0000
  H   H52       1.0  0.06922  0.16769  0.69956  1.0000
  C   C54       1.0  0.15797  0.04385  0.74804  1.0000
  C   C55       1.0  0.14259  0.05197  0.74198  1.0000
  C   C56       1.0  0.13882  0.06999  0.73658  1.0000
  C   C57       1.0  0.15038  0.07978  0.73746  1.0000
  C   C58       1.0  0.16517  0.07169  0.74451  1.0000
  C   C59       1.0  0.16917  0.05371  0.74948  1.0000
  H   H53       1.0  0.13388  0.04437  0.74088  1.0000
  H   H54       1.0  0.12744  0.07617  0.73103  1.0000
  S   S33       1.0  0.00287  0.32243  0.69424  1.0000
  H   H55       1.0  0.16420  0.43316  0.67610  1.0000
  C   C60       1.0  0.06560  0.05197  0.74187  1.0000
  C   C61       1.0  0.05658  0.06485  0.73041  1.0000
  C   C62       1.0  0.04051  0.07517  0.73653  1.0000
  C   C63       1.0  0.03308  0.07244  0.75417  1.0000
  C   C64       1.0  0.04218  0.05967  0.76568  1.0000
  C   C65       1.0  0.05853  0.04966  0.75960  1.0000
  H   H56       1.0  0.06190  0.06665  0.71666  1.0000
  H   H57       1.0  0.03351  0.08478  0.72753  1.0000
  H   H58       1.0  0.06543  0.03996  0.76860  1.0000
  S   S34       1.0  0.01229  0.13119  0.75565  1.0000
  H   H59       1.0  0.05001  0.29640  0.78300  1.0000
  H   H60       1.0  0.18061  0.02053  0.78291  1.0000
  C   C66       1.0  0.11583  0.47774  0.79613  1.0000
  S   S35       1.0  0.18478  0.47803  0.83997  1.0000
  H   H61       1.0  0.19218  0.02354  0.81494  1.0000
  C   C67       1.0  0.02873  0.21032  0.73398  1.0000
  Fe  Fe16      1.0  0.99670  0.37137  0.72544  1.0000
  H   H62       1.0  0.18102  0.04746  0.75422  1.0000
  H   H63       1.0  0.01785  0.19136  0.65715  1.0000
  H   H64       1.0  0.02960  0.25180  0.84679  1.0000
  Fe  Fe17      1.0  0.99798  0.33731  0.75100  1.0000
  H   H65       1.0  0.18030  0.05581  0.67036  1.0000
  H   H66       1.0  0.07612  0.30104  0.65660  1.0000
  Fe  Fe18      1.0  0.17517  0.10626  0.71841  1.0000
  H   H67       1.0  0.02871  0.18247  0.67513  1.0000
  H   H68       1.0  0.11391  0.45854  0.82834  1.0000
  H   H69       1.0  0.00670  0.23716  0.76159  1.0000
  H   H70       1.0  0.18205  0.00418  0.80222  1.0000
  H   H71       1.0  0.03823  0.27979  0.66570  1.0000
  S   S36       1.0  0.19308  0.16233  0.70699  1.0000
  H   H72       1.0  0.05849  0.27317  0.80642  1.0000
  H   H73       1.0  0.02930  0.29086  0.69231  1.0000
  H   H74       1.0  0.02681  0.28724  0.80749  1.0000
  C   C68       1.0  0.12428  0.17323  0.72140  1.0000
  H   H75       1.0  0.06614  0.38391  0.71768  1.0000
  S   S37       1.0  0.08150  0.45091  0.71988  1.0000
  Fe  Fe19      1.0  0.13055  0.98414  0.73873  1.0000
  H   H76       1.0  0.12410  0.46770  0.67823  1.0000
  H   H77       1.0  0.04027  0.32406  0.66743  1.0000
  H   H78       1.0  0.00632  0.39396  0.75263  1.0000
  N   N3        1.0  0.01789  0.21462  0.75045  1.0000
  C   C69       1.0  0.01835  0.27899  0.84337  1.0000
  H   H79       1.0  0.07683  0.35252  0.71588  1.0000
  H   H80       1.0  0.13571  0.16616  0.75093  1.0000
  C   C70       1.0  0.02038  0.32962  0.79939  1.0000
  H   H81       1.0  0.07996  0.41445  0.81282  1.0000
  H   H82       1.0  0.05538  0.43563  0.78767  1.0000
  H   H83       1.0  0.03664  0.42715  0.79975  1.0000
  C   C71       1.0  0.14954  0.31431  0.77220  1.0000
  H   H84       1.0  0.11345  0.16369  0.75566  1.0000
  N   N4        1.0  0.06396  0.36225  0.73900  1.0000
  C   C72       1.0  0.16980  0.01768  0.69715  1.0000
  H   H85       1.0  0.17343  0.02541  0.68391  1.0000
  H   H86       1.0  0.08019  0.38113  0.73255  1.0000
  H   H87       1.0  0.06828  0.25765  0.79288  1.0000
  N   N5        1.0  0.08005  0.10542  0.73257  1.0000
  C   C73       1.0  0.07473  0.11777  0.74432  1.0000
  C   C74       1.0  0.06647  0.10840  0.72234  1.0000
  C   C75       1.0  0.08210  0.08756  0.74282  1.0000
  C   C76       1.0  0.09685  0.10799  0.72081  1.0000
  H   H88       1.0  0.07343  0.13134  0.73695  1.0000
  H   H89       1.0  0.08444  0.11569  0.75255  1.0000
  H   H90       1.0  0.06185  0.11650  0.75305  1.0000
  H   H91       1.0  0.06478  0.12166  0.71420  1.0000
  H   H92       1.0  0.06979  0.09907  0.71360  1.0000
  H   H93       1.0  0.05350  0.10699  0.73083  1.0000
  H   H94       1.0  0.08637  0.07790  0.73432  1.0000
  H   H95       1.0  0.06957  0.08506  0.75161  1.0000
  H   H96       1.0  0.09207  0.08489  0.75088  1.0000
  H   H97       1.0  0.10132  0.09876  0.71187  1.0000
  H   H98       1.0  0.10739  0.10597  0.72809  1.0000
  H   H99       1.0  0.09573  0.12128  0.71273  1.0000
  H   H100      1.0  0.13386  0.44711  0.67253  1.0000
  H   H101      1.0  0.15715  0.01415  0.69790  1.0000
  H   H102      1.0  0.14046  0.48163  0.69077  1.0000
  S   S38       1.0  0.00920  0.39526  0.71572  1.0000
  H   H103      1.0  0.19025  0.12135  0.83439  1.0000
  H   H104      1.0  0.02670  0.99490  0.74686  1.0000
  C   C77       1.0  0.10224  0.46084  0.82258  1.0000
  H   H105      1.0  0.01314  0.18664  0.70442  1.0000
  H   H106      1.0  0.17955  0.04468  0.81638  1.0000
  H   H107      1.0  0.13692  0.31104  0.78003  1.0000
  H   H108      1.0  0.14604  0.01844  0.82299  1.0000
  C   C78       1.0  0.15588  0.32216  0.79626  1.0000
  H   H109      1.0  0.17616  0.44355  0.68481  1.0000
  H   H110      1.0  0.14793  0.31840  0.75851  1.0000
  C   C79       1.0  0.14957  0.46904  0.69346  1.0000
  N   N6        1.0  0.06108  0.40932  0.80133  1.0000
  C   C80       1.0  0.05363  0.39824  0.81747  1.0000
  C   C81       1.0  0.06094  0.40240  0.78633  1.0000
  C   C82       1.0  0.07927  0.40957  0.80152  1.0000
  C   C83       1.0  0.05043  0.42703  0.79992  1.0000
  H   H111      1.0  0.06114  0.38467  0.81881  1.0000
  N   N7        1.0  0.10713  0.46285  0.80359  1.0000
  H   H112      1.0  0.05362  0.40298  0.82908  1.0000
  H   H113      1.0  0.06724  0.40995  0.77399  1.0000
  H   H114      1.0  0.06793  0.38876  0.78736  1.0000
  Fe  Fe20      1.0  0.09948  0.45455  0.73492  1.0000
  C   C84       1.0  0.03684  0.42566  0.72616  1.0000
  H   H115      1.0  0.17487  0.34224  0.77123  1.0000
  S   S39       1.0  0.01200  0.08382  0.76206  1.0000
  H   H116      1.0  0.07822  0.35740  0.75920  1.0000
  H   H117      1.0  0.05856  0.26950  0.67228  1.0000
  H   H118      1.0  0.01983  0.31654  0.80618  1.0000
  H   H119      1.0  0.15651  0.15580  0.72630  1.0000
  H   H120      1.0  0.14933  0.14711  0.71181  1.0000
  H   H121      1.0  0.13268  0.18194  0.72178  1.0000
  H   H122      1.0  0.11054  0.17950  0.72593  1.0000
  S   S40       1.0  0.00708  0.12178  0.72014  1.0000
  H   H123      1.0  0.16756  0.02624  0.70650  1.0000
  C   C85       1.0  0.17101  0.33192  0.76720  1.0000
  H   H124      1.0  0.11833  0.14346  0.71832  1.0000
  S   S41       1.0  0.07979  0.45347  0.75983  1.0000
  C   C86       1.0  0.15795  0.02244  0.82384  1.0000
  C   C87       1.0  0.14722  0.14812  0.72556  1.0000
  H   H125      1.0  0.12069  0.13168  0.73962  1.0000
  H   H126      1.0  0.03639  0.24745  0.79000  1.0000
  H   H127      1.0  0.10340  0.15035  0.73695  1.0000
  C   C88       1.0  0.06706  0.37997  0.73156  1.0000
  H   H128      1.0  0.06169  0.34487  0.76378  1.0000
  C   C89       1.0  0.04923  0.26700  0.84308  1.0000
  S   S42       1.0  0.04246  0.43310  0.75564  1.0000
  C   C90       1.0  0.04066  0.25884  0.78058  1.0000
  H   H129      1.0  0.05328  0.25402  0.77220  1.0000
  H   H130      1.0  0.02757  0.23770  0.74715  1.0000
  N   N8        1.0  0.12895  0.15599  0.73223  1.0000
  H   H131      1.0  0.04522  0.36473  0.72343  1.0000
  Fe  Fe21      1.0  0.07435  0.47990  0.71481  1.0000
  H   H132      1.0  0.02071  0.26698  0.81030  1.0000
  H   H133      1.0  0.15131  0.05458  0.80564  1.0000
  N   N9        1.0  0.04260  0.27166  0.78953  1.0000
  C   C91       1.0  0.02564  0.27778  0.80042  1.0000
  C   C92       1.0  0.05164  0.28160  0.66493  1.0000
  H   H134      1.0  0.05118  0.25313  0.81117  1.0000
  H   H135      1.0  0.05028  0.43285  0.81089  1.0000
  H   H136      1.0  0.02775  0.31118  0.66303  1.0000
  H   H137      1.0  0.06918  0.31009  0.67575  1.0000
  C   C93       1.0  0.05569  0.26356  0.80048  1.0000
  H   H138      1.0  0.00248  0.19537  0.75456  1.0000
  H   H139      1.0  0.14344  0.31915  0.80481  1.0000
  N   N10       1.0  0.00166  0.19453  0.68193  1.0000
  Fe  Fe22      1.0  0.11638  0.98898  0.77599  1.0000
  H   H140      1.0  0.16196  0.01140  0.79445  1.0000
  C   C94       1.0  0.99701  0.16946  0.78809  1.0000
  S   S43       1.0  0.18726  0.99588  0.87471  1.0000
  C   C95       1.0  0.09125  0.46594  0.79651  1.0000
  H   H141      1.0  0.16607  0.01095  0.83073  1.0000
  H   H142      1.0  0.15799  0.43455  0.69855  1.0000
  H   H143      1.0  0.12765  0.34126  0.78426  1.0000
  C   C96       1.0  0.04154  0.02270  0.73884  1.0000
  N   N11       1.0  0.15089  0.45834  0.68090  1.0000
  H   H144      1.0  0.19098  0.03984  0.79565  1.0000
  C   C97       1.0  0.17317  0.47897  0.87498  1.0000
  C   C98       1.0  0.04842  0.28648  0.77664  1.0000
  H   H145      1.0  0.03883  0.29294  0.76818  1.0000
  H   H146      1.0  0.05984  0.25590  0.84415  1.0000
  H   H147      1.0  0.16344  0.05016  0.78502  1.0000
  C   C99       1.0  0.06489  0.35780  0.75749  1.0000
  H   H148      1.0  0.02386  0.20542  0.66723  1.0000
  H   H149      1.0  0.01239  0.35762  0.76246  1.0000
  C   C100      1.0  0.04649  0.36135  0.73721  1.0000
  H   H150      1.0  0.03613  0.37059  0.74395  1.0000
  Fe  Fe23      1.0  0.01555  0.14258  0.72730  1.0000
  C   C101      1.0  0.03213  0.26465  0.84457  1.0000
  C   C102      1.0  0.11915  0.44700  0.79901  1.0000
  H   H151      1.0  0.04021  0.30587  0.69576  1.0000
  H   H152      1.0  0.09078  0.35037  0.73064  1.0000
  C   C103      1.0  0.15783  0.46734  0.66329  1.0000
  H   H153      1.0  0.02232  0.00441  0.76547  1.0000
  H   H154      1.0  0.15910  0.33233  0.80111  1.0000
  C   C104      1.0  0.01500  0.23342  0.74945  1.0000
  Fe  Fe24      1.0  0.06094  0.45218  0.74411  1.0000
  H   H155      1.0  0.07567  0.33631  0.73553  1.0000
  H   H156      1.0  0.04765  0.31496  0.64826  1.0000
  C   C105      1.0  0.02182  0.29558  0.84067  1.0000
  H   H157      1.0  0.15965  0.30220  0.77330  1.0000
  C   C106      1.0  0.16722  0.17533  0.68776  1.0000
  H   H158      1.0  0.19022  0.07893  0.67775  1.0000
  H   H159      1.0  0.02265  0.21772  0.72280  1.0000
  N   N12       1.0  0.04765  0.00550  0.74914  1.0000
  H   H160      1.0  0.00846  0.24094  0.73859  1.0000
  H   H161      1.0  0.18175  0.32032  0.76824  1.0000
  H   H162      1.0  0.01124  0.30674  0.83989  1.0000
  C   C107      1.0  0.00357  0.19742  0.69844  1.0000
  C   C108      1.0  0.00085  0.20951  0.75363  1.0000
  S   S44       1.0  0.19261  0.45270  0.80884  1.0000
  H   H163      1.0  0.17375  0.07931  0.74582  1.0000
  H   H164      1.0  0.01549  0.28429  0.79260  1.0000
  C   C109      1.0  0.18326  0.03460  0.80843  1.0000
  H   H165      1.0  0.14340  0.35438  0.78058  1.0000
  H   H166      1.0  0.15890  0.45970  0.65343  1.0000
  C   C110      1.0  0.04136  0.31242  0.66219  1.0000
  H   H167      1.0  0.17106  0.46980  0.66222  1.0000
  H   H168      1.0  0.14463  0.46245  0.70684  1.0000
  S   S45       1.0  0.99671  0.27726  0.84432  1.0000
  H   H169      1.0  0.05013  0.28333  0.69839  1.0000
  S   S46       1.0  0.03827  0.15357  0.71018  1.0000
  H   H170      1.0  0.08762  0.39636  0.80230  1.0000
  H   H171      1.0  0.01937  0.40900  0.76761  1.0000
  C   C111      1.0  0.17336  0.01574  0.79611  1.0000
  H   H172      1.0  0.17266  0.98610  0.69067  1.0000
  H   H173      1.0  0.05266  0.02911  0.73171  1.0000
  H   H174      1.0  0.15368  0.03218  0.83222  1.0000
  N   N13       1.0  0.16773  0.02928  0.80656  1.0000
  H   H175      1.0  0.17246  0.16426  0.68171  1.0000
  H   H176      1.0  0.12764  0.44881  0.69490  1.0000
  C   C112      1.0  0.06913  0.29889  0.67035  1.0000
  C   C113      1.0  0.99547  0.17824  0.68502  1.0000
  H   H177      1.0  0.01949  0.20877  0.77730  1.0000
  H   H178      1.0  0.12019  0.47921  0.78190  1.0000
  H   H179      1.0  0.12249  0.44781  0.78479  1.0000
  H   H180      1.0  0.03989  0.39776  0.81773  1.0000
  H   H181      1.0  0.09585  0.44956  0.82867  1.0000
  C   C114      1.0  0.01542  0.33577  0.78341  1.0000
  N   N14       1.0  0.15421  0.32802  0.77797  1.0000
  C   C115      1.0  0.16283  0.44163  0.68528  1.0000
  H   H182      1.0  0.03073  0.19633  0.73406  1.0000
  H   H183      1.0  0.07688  0.28718  0.67744  1.0000
  S   S47       1.0  0.18307  0.12272  0.69239  1.0000
  H   H184      1.0  0.00523  0.29619  0.67554  1.0000
  C   C116      1.0  0.13337  0.45533  0.68168  1.0000
  H   H185      1.0  0.16581  0.98914  0.72117  1.0000
  C   C117      1.0  0.00397  0.17750  0.79743  1.0000
  H   H186      1.0  0.99906  0.26111  0.67104  1.0000
  H   H187      1.0  0.02848  0.19102  0.76647  1.0000
  H   H188      1.0  0.04189  0.21349  0.73145  1.0000
  H   H189      1.0  0.00832  0.20960  0.69646  1.0000
  H   H190      1.0  0.04022  0.20798  0.76248  1.0000
  C   C118      1.0  0.05527  0.00747  0.76301  1.0000
  H   H191      1.0  0.00478  0.15823  0.78311  1.0000
  H   H192      1.0  0.12750  0.47401  0.73390  1.0000
  C   C119      1.0  0.14435  0.47259  0.75088  1.0000
  C   C120      1.0  0.14042  0.34377  0.77620  1.0000
  H   H193      1.0  0.16621  0.31033  0.79815  1.0000
  H   H194      1.0  0.17022  0.33643  0.75332  1.0000
  H   H195      1.0  0.09444  0.46817  0.78214  1.0000
  C   C121      1.0  0.18505  0.99066  0.68877  1.0000
  H   H196      1.0  0.17773  0.00090  0.72814  1.0000
  H   H197      1.0  0.13864  0.34854  0.76261  1.0000
  H   H198      1.0  0.19440  0.44891  0.75767  1.0000
  H   H199      1.0  0.12769  0.47622  0.80126  1.0000
  H   H200      1.0  0.09315  0.47256  0.82648  1.0000
  C   C122      1.0  0.17867  0.99281  0.71873  1.0000
  C   C123      1.0  0.03271  0.99674  0.75694  1.0000
  H   H201      1.0  0.08175  0.47765  0.79999  1.0000
  H   H202      1.0  0.18820  0.99743  0.67504  1.0000
  S   S48       1.0  0.15099  0.98476  0.85779  1.0000
  H   H203      1.0  0.14924  0.48006  0.65959  1.0000
  H   H204      1.0  0.07254  0.00141  0.73174  1.0000
  S   S49       1.0  0.18666  0.11868  0.73314  1.0000
  S   S50       1.0  0.05249  0.48118  0.73807  1.0000
  H   H205      1.0  0.16374  0.48155  0.90165  1.0000
  C   C124      1.0  0.19389  0.05684  0.66625  1.0000
  Fe  Fe25      1.0  0.07327  0.48240  0.75146  1.0000
  H   H206      1.0  0.03682  0.98377  0.76491  1.0000
  S   S51       1.0  0.18467  0.71043  0.11373  1.0000
  S   S52       1.0  0.13338  0.72896  0.00198  1.0000
  S   S53       1.0  0.00162  0.70518  0.30545  1.0000
  S   S54       1.0  0.14818  0.77150  0.98874  1.0000
  H   H207      1.0  0.12728  0.84526  0.46207  1.0000
  H   H208      1.0  0.02648  0.77233  0.27480  1.0000
  H   H209      1.0  0.00571  0.64444  0.28788  1.0000
  C   C125      1.0  0.03735  0.76081  0.27477  1.0000
  C   C126      1.0  0.01312  0.78579  0.33974  1.0000
  Fe  Fe26      1.0  0.09137  0.75364  0.02791  1.0000
  S   S55       1.0  0.11842  0.75181  0.03200  1.0000
  S   S56       1.0  0.07059  0.76946  0.04576  1.0000
  Fe  Fe27      1.0  0.10573  0.73213  0.99962  1.0000
  C   C127      1.0  0.00228  0.67158  0.18399  1.0000
  Fe  Fe28      1.0  0.12280  0.72419  0.03034  1.0000
  H   H210      1.0  0.08717  0.83345  0.37444  1.0000
  Fe  Fe29      1.0  0.12664  0.75698  0.00329  1.0000
  S   S57       1.0  0.18589  0.83568  0.43104  1.0000
  S   S58       1.0  0.09547  0.72526  0.02844  1.0000
  S   S59       1.0  0.09938  0.76091  0.99870  1.0000
  C   C128      1.0  0.02367  0.75989  0.39568  1.0000
  S   S60       1.0  0.01492  0.62857  0.25531  1.0000
  H   H211      1.0  0.09169  0.74769  0.33925  1.0000
  Fe  Fe30      1.0  0.15952  0.83044  0.43312  1.0000
  S   S61       1.0  0.14644  0.85830  0.42736  1.0000
  S   S62       1.0  0.14785  0.81132  0.45517  1.0000
  H   H212      1.0  0.15513  0.69283  0.01552  1.0000
  S   S63       1.0  0.17933  0.86289  0.39461  1.0000
  H   H213      1.0  0.08213  0.73054  0.35422  1.0000
  Fe  Fe31      1.0  0.17345  0.86342  0.42308  1.0000
  C   C129      1.0  0.02530  0.66310  0.29483  1.0000
  Fe  Fe32      1.0  0.15324  0.85515  0.39960  1.0000
  S   S64       1.0  0.13173  0.86481  0.38394  1.0000
  H   H214      1.0  0.13608  0.67061  0.46541  1.0000
  S   S65       1.0  0.16430  0.82688  0.40592  1.0000
  Fe  Fe33      1.0  0.08082  0.72021  0.19643  1.0000
  S   S66       1.0  0.08945  0.69277  0.20951  1.0000
  S   S67       1.0  0.07451  0.72599  0.17014  1.0000
  Fe  Fe34      1.0  0.08424  0.73524  0.22565  1.0000
  S   S68       1.0  0.09303  0.70912  0.24117  1.0000
  S   S69       1.0  0.08016  0.76057  0.23381  1.0000
  Fe  Fe35      1.0  0.10960  0.70347  0.21581  1.0000
  S   S70       1.0  0.13771  0.69032  0.21475  1.0000
  Fe  Fe36      1.0  0.07196  0.70120  0.23329  1.0000
  S   S71       1.0  0.05209  0.68817  0.25361  1.0000
  S   S72       1.0  0.10238  0.73025  0.20083  1.0000
  S   S73       1.0  0.06180  0.72801  0.21967  1.0000
  Fe  Fe37      1.0  0.07902  0.83205  0.29302  1.0000
  S   S74       1.0  0.10675  0.81733  0.29214  1.0000
  S   S75       1.0  0.07075  0.85012  0.26922  1.0000
  Fe  Fe38      1.0  0.06707  0.81438  0.32972  1.0000
  S   S76       1.0  0.09349  0.79811  0.33209  1.0000
  S   S77       1.0  0.04420  0.81044  0.35153  1.0000
  Fe  Fe39      1.0  0.10320  0.82256  0.31880  1.0000
  S   S78       1.0  0.12661  0.82756  0.32608  1.0000
  Fe  Fe40      1.0  0.09493  0.79414  0.30553  1.0000
  S   S79       1.0  0.10349  0.76721  0.29991  1.0000
  S   S80       1.0  0.07641  0.83932  0.31853  1.0000
  S   S81       1.0  0.06771  0.80838  0.30422  1.0000
  S   S82       1.0  0.12498  0.76785  0.41429  1.0000
  H   H215      1.0  0.10594  0.78444  0.44276  1.0000
  H   H216      1.0  0.17289  0.90836  0.99636  1.0000
  S   S83       1.0  0.04417  0.76117  0.41739  1.0000
  C   C130      1.0  0.15430  0.69675  0.19734  1.0000
  H   H217      1.0  0.04949  0.72461  0.41531  1.0000
  H   H218      1.0  0.14513  0.71148  0.12566  1.0000
  C   C131      1.0  0.00340  0.64960  0.21000  1.0000
  C   C132      1.0  0.15077  0.70817  0.18203  1.0000
  C   C133      1.0  0.11520  0.80749  0.37908  1.0000
  C   C134      1.0  0.04010  0.73227  0.40757  1.0000
  H   H219      1.0  0.13742  0.71322  0.18054  1.0000
  C   C135      1.0  0.08650  0.76186  0.25246  1.0000
  C   C136      1.0  0.08403  0.77814  0.25639  1.0000
  C   C137      1.0  0.08917  0.77983  0.27094  1.0000
  C   C138      1.0  0.09687  0.76522  0.28167  1.0000
  C   C139      1.0  0.09933  0.74887  0.27779  1.0000
  C   C140      1.0  0.09410  0.74717  0.26323  1.0000
  H   H220      1.0  0.07817  0.78957  0.24810  1.0000
  H   H221      1.0  0.08734  0.79251  0.27370  1.0000
  H   H222      1.0  0.10527  0.73752  0.28608  1.0000
  H   H223      1.0  0.09599  0.73456  0.26036  1.0000
  C   C141      1.0  0.13025  0.85397  0.36826  1.0000
  C   C142      1.0  0.11464  0.85774  0.36212  1.0000
  C   C143      1.0  0.11314  0.84955  0.34943  1.0000
  C   C144      1.0  0.12739  0.83775  0.34254  1.0000
  C   C145      1.0  0.14300  0.83409  0.34860  1.0000
  C   C146      1.0  0.14437  0.84197  0.36153  1.0000
  H   H224      1.0  0.10368  0.86706  0.36722  1.0000
  H   H225      1.0  0.10107  0.85258  0.34487  1.0000
  H   H226      1.0  0.15413  0.82503  0.34332  1.0000
  H   H227      1.0  0.15647  0.83901  0.36607  1.0000
  H   H228      1.0  0.02848  0.66461  0.21280  1.0000
  S   S84       1.0  0.00893  0.72270  0.38021  1.0000
  C   C147      1.0  0.17809  0.91540  0.00333  1.0000
  H   H229      1.0  0.10911  0.86082  0.47043  1.0000
  C   C148      1.0  0.14696  0.75120  0.46974  1.0000
  C   C149      1.0  0.16322  0.90036  0.45891  1.0000
  H   H230      1.0  0.13966  0.65084  0.00512  1.0000
  C   C150      1.0  0.15650  0.68463  0.00610  1.0000
  H   H231      1.0  0.99704  0.69309  0.20548  1.0000
  H   H232      1.0  0.15524  0.90799  0.44973  1.0000
  H   H233      1.0  0.04591  0.72210  0.26271  1.0000
  C   C151      1.0  0.01748  0.74188  0.27835  1.0000
  C   C152      1.0  0.13008  0.85702  0.28416  1.0000
  H   H234      1.0  0.02032  0.76607  0.24903  1.0000
  N   N15       1.0  0.18366  0.69099  0.43841  1.0000
  H   H235      1.0  0.07274  0.77393  0.32627  1.0000
  H   H236      1.0  0.18192  0.90605  0.01497  1.0000
  C   C153      1.0  0.14319  0.79092  0.01352  1.0000
  H   H237      1.0  0.00851  0.85668  0.29663  1.0000
  C   C154      1.0  0.02544  0.64617  0.25142  1.0000
  C   C155      1.0  0.04375  0.64326  0.24814  1.0000
  C   C156      1.0  0.05233  0.65666  0.24701  1.0000
  C   C157      1.0  0.04262  0.67311  0.24894  1.0000
  C   C158      1.0  0.02443  0.67622  0.25121  1.0000
  C   C159      1.0  0.01586  0.66279  0.25272  1.0000
  H   H238      1.0  0.05131  0.63042  0.24723  1.0000
  H   H239      1.0  0.06638  0.65399  0.24566  1.0000
  H   H240      1.0  0.01688  0.68885  0.25288  1.0000
  C   C160      1.0  0.16148  0.90556  0.47448  1.0000
  Fe  Fe41      1.0  0.10163  0.75769  0.43029  1.0000
  C   C161      1.0  0.02037  0.79271  0.34970  1.0000
  C   C162      1.0  0.02897  0.80645  0.34188  1.0000
  C   C163      1.0  0.02829  0.81462  0.32478  1.0000
  C   C164      1.0  0.02119  0.80768  0.31477  1.0000
  H   H241      1.0  0.12646  0.84428  0.29040  1.0000
  H   H242      1.0  0.03432  0.82568  0.31893  1.0000
  C   C165      1.0  0.04927  0.74337  0.34893  1.0000
  S   S85       1.0  0.18518  0.86964  0.00386  1.0000
  H   H243      1.0  0.14066  0.85793  0.29018  1.0000
  H   H244      1.0  0.16156  0.75573  0.22279  1.0000
  C   C166      1.0  0.15605  0.74421  0.23028  1.0000
  H   H245      1.0  0.10295  0.69573  0.16525  1.0000
  C   C167      1.0  0.14161  0.79817  0.44485  1.0000
  C   C168      1.0  0.15368  0.79092  0.43175  1.0000
  C   C169      1.0  0.14854  0.78169  0.42228  1.0000
  C   C170      1.0  0.13132  0.77936  0.42619  1.0000
  C   C171      1.0  0.11928  0.78617  0.43966  1.0000
  C   C172      1.0  0.12440  0.79576  0.44884  1.0000
  H   H246      1.0  0.16693  0.79276  0.42863  1.0000
  H   H247      1.0  0.15791  0.77641  0.41190  1.0000
  H   H248      1.0  0.00136  0.89147  0.16641  1.0000
  H   H249      1.0  0.03493  0.71016  0.40118  1.0000
  H   H250      1.0  0.04968  0.77547  0.33039  1.0000
  C   C173      1.0  0.12421  0.72459  0.07097  1.0000
  C   C174      1.0  0.12540  0.73346  0.08309  1.0000
  H   H251      1.0  0.11439  0.72200  0.12095  1.0000
  H   H252      1.0  0.03101  0.72106  0.46536  1.0000
  H   H253      1.0  0.10779  0.80436  0.04171  1.0000
  H   H254      1.0  0.11213  0.72698  0.06651  1.0000
  H   H255      1.0  0.11421  0.74251  0.08816  1.0000
  Fe  Fe42      1.0  0.07700  0.75648  0.46530  1.0000
  H   H256      1.0  0.02756  0.63226  0.28755  1.0000
  H   H257      1.0  0.00620  0.64595  0.22323  1.0000
  H   H258      1.0  0.16207  0.72211  0.15696  1.0000
  H   H259      1.0  0.09152  0.82131  0.40403  1.0000
  H   H260      1.0  0.10894  0.89905  0.27923  1.0000
  H   H261      1.0  0.07273  0.76848  0.35721  1.0000
  H   H262      1.0  0.02592  0.62691  0.32642  1.0000
  C   C175      1.0  0.03583  0.75023  0.40594  1.0000
  Fe  Fe43      1.0  0.17161  0.73758  0.10356  1.0000
  C   C176      1.0  0.01203  0.86157  0.26888  1.0000
  C   C177      1.0  0.02435  0.86215  0.25332  1.0000
  C   C178      1.0  0.04236  0.85854  0.25346  1.0000
  C   C179      1.0  0.04816  0.85392  0.26916  1.0000
  C   C180      1.0  0.03584  0.85301  0.28468  1.0000
  C   C181      1.0  0.01789  0.85698  0.28453  1.0000
  H   H263      1.0  0.05181  0.85935  0.24139  1.0000
  H   H264      1.0  0.04015  0.84980  0.29679  1.0000
  H   H265      1.0  0.17684  0.94526  0.97981  1.0000
  C   C182      1.0  0.01787  0.72230  0.17575  1.0000
  C   C183      1.0  0.02737  0.72911  0.15967  1.0000
  C   C184      1.0  0.04489  0.73000  0.15788  1.0000
  C   C185      1.0  0.05293  0.72400  0.17217  1.0000
  C   C186      1.0  0.04359  0.71664  0.18810  1.0000
  C   C187      1.0  0.02606  0.71591  0.18992  1.0000
  H   H266      1.0  0.02128  0.73367  0.14857  1.0000
  H   H267      1.0  0.05210  0.73555  0.14550  1.0000
  H   H268      1.0  0.04983  0.71158  0.19907  1.0000
  H   H269      1.0  0.01879  0.71068  0.20241  1.0000
  C   C188      1.0  0.01976  0.75482  0.08118  1.0000
  C   C189      1.0  0.02906  0.74560  0.06814  1.0000
  C   C190      1.0  0.04492  0.74952  0.05758  1.0000
  C   C191      1.0  0.05143  0.76305  0.05964  1.0000
  C   C192      1.0  0.04213  0.77225  0.07270  1.0000
  C   C193      1.0  0.02652  0.76802  0.08357  1.0000
  H   H270      1.0  0.02394  0.73543  0.06610  1.0000
  H   H271      1.0  0.05183  0.74240  0.04752  1.0000
  H   H272      1.0  0.04686  0.78289  0.07428  1.0000
  H   H273      1.0  0.03394  0.65800  0.19240  1.0000
  H   H274      1.0  0.00944  0.75716  0.43420  1.0000
  H   H275      1.0  0.02052  0.78660  0.36305  1.0000
  H   H276      1.0  0.04958  0.77042  0.36195  1.0000
  H   H277      1.0  0.13064  0.89001  0.28315  1.0000
  H   H278      1.0  0.14889  0.69924  0.14639  1.0000
  H   H279      1.0  0.13790  0.72156  0.14398  1.0000
  H   H280      1.0  0.02847  0.74491  0.24400  1.0000
  C   C194      1.0  0.01416  0.79288  0.32209  1.0000
  C   C195      1.0  0.14751  0.66111  0.00014  1.0000
  H   H281      1.0  0.04979  0.73716  0.33812  1.0000
  H   H282      1.0  0.99822  0.67701  0.22475  1.0000
  H   H283      1.0  0.04943  0.76534  0.26699  1.0000
  H   H284      1.0  0.12905  0.87968  0.46967  1.0000
  H   H285      1.0  0.06072  0.73612  0.26003  1.0000
  H   H286      1.0  0.03625  0.75213  0.35113  1.0000
  H   H287      1.0  0.16517  0.69999  0.06589  1.0000
  C   C196      1.0  0.19403  0.72714  0.03902  1.0000
  H   H288      1.0  0.16112  0.72753  0.20438  1.0000
  Fe  Fe44      1.0  0.18827  0.84086  0.00778  1.0000
  C   C197      1.0  0.01954  0.73375  0.38939  1.0000
  N   N16       1.0  0.14551  0.67149  0.01320  1.0000
  C   C198      1.0  0.15550  0.71871  0.08220  1.0000
  H   H289      1.0  0.10754  0.73022  0.14051  1.0000
  H   H290      1.0  0.04359  0.63336  0.30952  1.0000
  H   H291      1.0  0.17446  0.68168  0.21103  1.0000
  C   C199      1.0  0.16115  0.81167  0.01151  1.0000
  C   C200      1.0  0.01708  0.75504  0.46459  1.0000
  N   N17       1.0  0.12228  0.70410  0.14324  1.0000
  S   S86       1.0  0.16568  0.82714  0.02063  1.0000
  H   H292      1.0  0.14300  0.65014  0.03478  1.0000
  C   C201      1.0  0.17162  0.69049  0.19927  1.0000
  S   S87       1.0  0.09220  0.73759  0.42304  1.0000
  H   H293      1.0  0.13956  0.80661  0.03234  1.0000
  H   H294      1.0  0.09667  0.71495  0.13753  1.0000
  H   H295      1.0  0.08529  0.80812  0.07745  1.0000
  H   H296      1.0  0.12319  0.79716  0.38729  1.0000
  C   C202      1.0  0.13868  0.71270  0.06457  1.0000
  C   C203      1.0  0.16467  0.71315  0.16870  1.0000
  H   H297      1.0  0.02784  0.68055  0.19313  1.0000
  S   S88       1.0  0.07510  0.77317  0.43903  1.0000
  C   C204      1.0  0.18642  0.68026  0.45539  1.0000
  S   S89       1.0  0.14337  0.74352  0.10176  1.0000
  H   H298      1.0  0.17773  0.71503  0.44703  1.0000
  C   C205      1.0  0.14123  0.73096  0.08825  1.0000
  N   N18       1.0  0.11485  0.87135  0.28646  1.0000
  C   C206      1.0  0.10093  0.86917  0.27889  1.0000
  C   C207      1.0  0.10824  0.87122  0.30509  1.0000
  H   H299      1.0  0.08908  0.87958  0.28051  1.0000
  H   H300      1.0  0.10536  0.86917  0.26482  1.0000
  H   H301      1.0  0.09671  0.85671  0.28509  1.0000
  H   H302      1.0  0.12519  0.88852  0.26362  1.0000
  H   H303      1.0  0.09676  0.88185  0.30740  1.0000
  H   H304      1.0  0.11849  0.87252  0.31134  1.0000
  H   H305      1.0  0.10411  0.85887  0.31203  1.0000
  C   C208      1.0  0.13241  0.67919  0.47443  1.0000
  N   N19       1.0  0.01818  0.64834  0.30653  1.0000
  H   H306      1.0  0.08214  0.73438  0.33151  1.0000
  H   H307      1.0  0.12063  0.80601  0.36546  1.0000
  H   H308      1.0  0.12540  0.72391  0.22731  1.0000
  H   H309      1.0  0.15061  0.74617  0.24378  1.0000
  H   H310      1.0  0.00445  0.68475  0.17714  1.0000
  C   C209      1.0  0.18536  0.69560  0.18616  1.0000
  C   C210      1.0  0.10969  0.71842  0.13516  1.0000
  C   C211      1.0  0.13930  0.70930  0.13971  1.0000
  C   C212      1.0  0.12452  0.68870  0.13592  1.0000
  C   C213      1.0  0.06241  0.76626  0.32920  1.0000
  H   H311      1.0  0.09731  0.79843  0.41126  1.0000
  H   H312      1.0  0.15192  0.91696  0.47731  1.0000
  H   H313      1.0  0.06402  0.76055  0.31775  1.0000
  H   H314      1.0  0.15288  0.69324  0.99405  1.0000
  H   H315      1.0  0.14606  0.71431  0.23317  1.0000
  C   C214      1.0  0.02501  0.66758  0.19985  1.0000
  H   H316      1.0  0.03784  0.65878  0.28610  1.0000
  N   N20       1.0  0.10298  0.78733  0.06656  1.0000
  C   C215      1.0  0.11773  0.69265  0.47353  1.0000
  C   C216      1.0  0.17591  0.88605  0.45467  1.0000
  C   C217      1.0  0.01570  0.75175  0.38731  1.0000
  H   H317      1.0  0.00185  0.66519  0.25590  1.0000
  H   H318      1.0  0.16499  0.65343  0.02606  1.0000
  H   H319      1.0  0.14765  0.86450  0.46143  1.0000
  H   H320      1.0  0.12487  0.76793  0.05818  1.0000
  H   H321      1.0  0.01608  0.67110  0.28652  1.0000
  H   H322      1.0  0.03412  0.73326  0.44371  1.0000
  H   H323      1.0  0.18250  0.70775  0.01258  1.0000
  H   H324      1.0  0.09335  0.76934  0.08912  1.0000
  C   C218      1.0  0.09951  0.79479  0.04898  1.0000
  H   H325      1.0  0.11736  0.82003  0.38028  1.0000
  H   H326      1.0  0.15247  0.83408  0.47626  1.0000
  S   S90       1.0  0.10587  0.69606  0.45721  1.0000
  C   C219      1.0  0.09921  0.80130  0.07626  1.0000
  C   C220      1.0  0.15408  0.70932  0.07067  1.0000
  C   C221      1.0  0.12151  0.77851  0.06547  1.0000
  H   H327      1.0  0.16042  0.75360  0.46727  1.0000
  C   C222      1.0  0.14726  0.80330  0.02031  1.0000
  S   S91       1.0  0.10437  0.74287  0.45662  1.0000
  H   H328      1.0  0.00771  0.77438  0.34552  1.0000
  H   H329      1.0  0.18437  0.66691  0.45694  1.0000
  H   H330      1.0  0.02768  0.67184  0.30208  1.0000
  H   H331      1.0  0.02201  0.81331  0.30116  1.0000
  C   C223      1.0  0.12814  0.75698  0.22218  1.0000
  C   C224      1.0  0.17097  0.80757  0.99580  1.0000
  H   H332      1.0  0.18131  0.66743  0.06900  1.0000
  H   H333      1.0  0.06290  0.75140  0.37195  1.0000
  H   H334      1.0  0.01431  0.73170  0.27347  1.0000
  H   H335      1.0  0.11826  0.67066  0.02272  1.0000
  H   H336      1.0  0.14037  0.73703  0.19843  1.0000
  H   H337      1.0  0.18551  0.72191  0.05127  1.0000
  C   C225      1.0  0.13563  0.72623  0.23284  1.0000
  H   H338      1.0  0.13049  0.78759  0.05888  1.0000
  H   H339      1.0  0.14315  0.66933  0.98825  1.0000
  H   H340      1.0  0.01184  0.63966  0.20272  1.0000
  H   H341      1.0  0.12490  0.68801  0.02746  1.0000
  H   H342      1.0  0.04325  0.75897  0.24133  1.0000
  H   H343      1.0  0.11749  0.75531  0.21671  1.0000
  N   N21       1.0  0.18762  0.72669  0.02376  1.0000
  C   C226      1.0  0.99734  0.73509  0.47508  1.0000
  H   H344      1.0  0.12253  0.68901  0.00599  1.0000
  H   H345      1.0  0.16051  0.73308  0.03591  1.0000
  H   H346      1.0  0.10207  0.78463  0.04132  1.0000
  H   H347      1.0  0.14989  0.66772  0.03891  1.0000
  H   H348      1.0  0.16288  0.70039  0.42422  1.0000
  Fe  Fe45      1.0  0.18977  0.83454  0.40318  1.0000
  S   S92       1.0  0.00750  0.78298  0.30888  1.0000
  C   C227      1.0  0.11564  0.70002  0.16211  1.0000
  H   H349      1.0  0.09451  0.76376  0.06887  1.0000
  C   C228      1.0  0.03076  0.63827  0.31751  1.0000
  H   H350      1.0  0.13404  0.67770  0.14165  1.0000
  H   H351      1.0  0.02000  0.86578  0.24118  1.0000
  H   H352      1.0  0.11191  0.68441  0.13839  1.0000
  H   H353      1.0  0.11495  0.80175  0.45861  1.0000
  C   C229      1.0  0.09428  0.78963  0.38275  1.0000
  Fe  Fe46      1.0  0.06547  0.75177  0.43348  1.0000
  H   H354      1.0  0.12943  0.69144  0.12166  1.0000
  H   H355      1.0  0.17727  0.68586  0.46622  1.0000
  C   C230      1.0  0.12015  0.88798  0.27772  1.0000
  N   N22       1.0  0.03361  0.74745  0.26771  1.0000
  C   C231      1.0  0.04833  0.73241  0.26796  1.0000
  C   C232      1.0  0.03128  0.75466  0.24973  1.0000
  H   H356      1.0  0.01929  0.71871  0.45033  1.0000
  H   H357      1.0  0.16263  0.67941  0.43802  1.0000
  H   H358      1.0  0.05043  0.72658  0.28132  1.0000
  N   N23       1.0  0.00980  0.74232  0.45996  1.0000
  H   H359      1.0  0.03912  0.75587  0.28834  1.0000
  S   S93       1.0  0.18200  0.75043  0.11893  1.0000
  H   H360      1.0  0.12499  0.68961  0.16877  1.0000
  C   C233      1.0  0.03184  0.72410  0.39951  1.0000
  C   C234      1.0  0.16687  0.79524  0.98896  1.0000
  C   C235      1.0  0.08063  0.74079  0.34246  1.0000
  H   H361      1.0  0.13560  0.85681  0.27026  1.0000
  H   H362      1.0  0.00995  0.62589  0.30458  1.0000
  H   H363      1.0  0.04982  0.73305  0.36079  1.0000
  H   H364      1.0  0.11326  0.71156  0.16789  1.0000
  H   H365      1.0  0.18517  0.71685  0.42410  1.0000
  C   C236      1.0  0.06219  0.76111  0.35969  1.0000
  H   H366      1.0  0.13274  0.76883  0.21422  1.0000
  N   N24       1.0  0.06360  0.75287  0.34509  1.0000
  S   S94       1.0  0.99916  0.75024  0.09317  1.0000
  N   N25       1.0  0.14252  0.74163  0.22248  1.0000
  N   N26       1.0  0.09648  0.80656  0.38430  1.0000
  C   C237      1.0  0.12700  0.68015  0.01755  1.0000
  C   C238      1.0  0.18684  0.70843  0.43688  1.0000
  Fe  Fe47      1.0  0.99640  0.76015  0.32449  1.0000
  H   H367      1.0  0.16139  0.65476  0.99615  1.0000
  H   H368      1.0  0.08028  0.78851  0.38652  1.0000
  H   H369      1.0  0.09172  0.81980  0.35909  1.0000
  H   H370      1.0  0.09928  0.78757  0.36928  1.0000
  C   C239      1.0  0.08649  0.82048  0.37295  1.0000
  S   S95       1.0  0.13838  0.70372  0.04744  1.0000
  S   S96       1.0  0.01347  0.73443  0.33152  1.0000
  H   H371      1.0  0.12968  0.72764  0.24640  1.0000
  C   C240      1.0  0.16549  0.69235  0.43687  1.0000
  Fe  Fe48      1.0  0.09247  0.72387  0.45057  1.0000
  H   H372      1.0  0.07589  0.80799  0.40683  1.0000
  H   H373      1.0  0.07244  0.81965  0.37591  1.0000
  H   H374      1.0  0.02020  0.77379  0.39438  1.0000
  N   N27       1.0  0.19309  0.92270  0.99210  1.0000
  C   C241      1.0  0.18200  0.70680  0.17079  1.0000
  C   C242      1.0  0.08996  0.80869  0.40240  1.0000
  H   H375      1.0  0.10156  0.77883  0.39121  1.0000
  H   H376      1.0  0.18165  0.81396  0.98887  1.0000
  H   H377      1.0  0.00666  0.76592  0.46864  1.0000
  H   H378      1.0  0.01943  0.77536  0.09340  1.0000
  H   H379      1.0  0.01050  0.66231  0.17583  1.0000
  H   H380      1.0  0.00607  0.75286  0.27851  1.0000
  C   C243      1.0  0.15296  0.78689  0.99776  1.0000
  H   H381      1.0  0.13239  0.78468  0.02032  1.0000
  H   H382      1.0  0.12451  0.77263  0.07853  1.0000
  H   H383      1.0  0.18886  0.94312  0.00583  1.0000
  C   C244      1.0  0.09164  0.77476  0.07559  1.0000
  H   H384      1.0  0.02419  0.74901  0.47536  1.0000
  H   H385      1.0  0.15564  0.75039  0.19638  1.0000
  H   H386      1.0  0.01881  0.73630  0.29197  1.0000
  H   H387      1.0  0.12216  0.75946  0.23541  1.0000
  C   C245      1.0  0.01525  0.63723  0.29623  1.0000
  H   H388      1.0  0.16777  0.71663  0.08609  1.0000
  S   S97       1.0  0.10196  0.71478  0.98369  1.0000
  H   H389      1.0  0.10179  0.79614  0.08956  1.0000
  H   H390      1.0  0.14009  0.76096  0.46020  1.0000
  H   H391      1.0  0.10749  0.81108  0.06972  1.0000
  C   C246      1.0  0.15026  0.73907  0.20464  1.0000
  C   C247      1.0  0.15105  0.66017  0.02892  1.0000
  H   H392      1.0  0.16708  0.73282  0.23071  1.0000
  H   H393      1.0  0.17057  0.67850  0.00291  1.0000
  S   S98       1.0  0.06481  0.73631  0.46082  1.0000
  H   H394      1.0  0.07759  0.78077  0.07601  1.0000
  H   H395      1.0  0.18138  0.81276  0.46558  1.0000
  H   H396      1.0  0.03311  0.64632  0.32551  1.0000
  H   H397      1.0  0.08557  0.80132  0.04936  1.0000
  S   S99       1.0  0.18142  0.88333  0.43301  1.0000
  N   N28       1.0  0.00649  0.66712  0.20137  1.0000
  C   C248      1.0  0.02414  0.72819  0.45465  1.0000
  H   H398      1.0  0.00620  0.75937  0.37968  1.0000
  H   H399      1.0  0.16471  0.73761  0.01273  1.0000
  H   H400      1.0  0.16719  0.92567  0.00788  1.0000
  H   H401      1.0  0.19365  0.77029  0.43243  1.0000
  H   H402      1.0  0.19441  0.74054  0.03945  1.0000
  H   H403      1.0  0.15585  0.69838  0.44717  1.0000
  C   C249      1.0  0.00139  0.65481  0.31754  1.0000
  H   H404      1.0  0.16996  0.75137  0.02374  1.0000
  H   H405      1.0  0.08447  0.79414  0.47322  1.0000
  H   H406      1.0  0.02653  0.76075  0.45343  1.0000
  H   H407      1.0  0.00298  0.85994  0.17047  1.0000
  H   H408      1.0  0.00208  0.87928  0.14136  1.0000
  C   C250      1.0  0.18662  0.87672  0.46646  1.0000
  C   C251      1.0  0.16994  0.73765  0.02408  1.0000
  C   C252      1.0  0.11937  0.84946  0.47412  1.0000
  C   C253      1.0  0.18583  0.80100  0.47500  1.0000
  H   H409      1.0  0.14786  0.73835  0.46688  1.0000
  C   C254      1.0  0.13883  0.86790  0.47350  1.0000
  H   H410      1.0  0.19136  0.68695  0.08178  1.0000
  H   H411      1.0  0.17767  0.70343  0.03572  1.0000
  C   C255      1.0  0.18690  0.70870  0.02409  1.0000
  S   S100      1.0  0.19257  0.74186  0.07990  1.0000
  H   H412      1.0  0.00275  0.66434  0.32451  1.0000
  H   H413      1.0  0.17997  0.79059  0.47364  1.0000
  C   C256      1.0  0.00063  0.75092  0.44556  1.0000
  C   C257      1.0  0.19396  0.67086  0.06355  1.0000
  H   H414      1.0  0.99612  0.64413  0.32725  1.0000
  H   H415      1.0  0.19409  0.80133  0.42067  1.0000
  C   C258      1.0  0.99519  0.67974  0.21169  1.0000
  H   H416      1.0  0.99580  0.69704  0.27558  1.0000
  S   S101      1.0  0.99581  0.72160  0.17833  1.0000
  H   H417      1.0  0.99569  0.74159  0.44110  1.0000
  Fe  Fe49      1.0  0.99502  0.73341  0.35734  1.0000
  H   H418      1.0  0.99480  0.83111  0.29406  1.0000
  H   H419      1.0  0.19398  0.69037  0.41152  1.0000
  H   H420      1.0  0.19447  0.66946  0.42565  1.0000
  N   N29       1.0  0.11062  0.53661  0.71131  1.0000
  C   C259      1.0  0.15847  0.67384  0.95169  1.0000
  H   H421      1.0  0.17064  0.59785  0.52550  1.0000
  C   C260      1.0  0.18015  0.63878  0.73704  1.0000
  H   H422      1.0  0.16080  0.53625  0.84290  1.0000
  C   C261      1.0  0.17893  0.64075  0.95075  1.0000
  H   H423      1.0  0.16271  0.62716  0.83266  1.0000
  C   C262      1.0  0.18290  0.59013  0.57217  1.0000
  H   H424      1.0  0.11094  0.66471  0.81103  1.0000
  Fe  Fe50      1.0  0.12897  0.58135  0.81709  1.0000
  S   S102      1.0  0.15162  0.59168  0.79949  1.0000
  S   S103      1.0  0.11937  0.59057  0.84267  1.0000
  Fe  Fe51      1.0  0.12867  0.55759  0.79254  1.0000
  S   S104      1.0  0.15154  0.56703  0.77358  1.0000
  S   S105      1.0  0.12598  0.53416  0.78354  1.0000
  Fe  Fe52      1.0  0.16278  0.56445  0.79661  1.0000
  H   H425      1.0  0.12968  0.77990  0.48224  1.0000
  Fe  Fe53      1.0  0.13794  0.59328  0.77842  1.0000
  S   S106      1.0  0.13734  0.61784  0.75846  1.0000
  S   S107      1.0  0.14099  0.55362  0.81553  1.0000
  S   S108      1.0  0.11408  0.58459  0.79596  1.0000
  Fe  Fe54      1.0  0.13568  0.78478  0.56736  1.0000
  S   S109      1.0  0.11160  0.80559  0.56551  1.0000
  S   S110      1.0  0.13552  0.75966  0.58657  1.0000
  Fe  Fe55      1.0  0.15857  0.80511  0.53852  1.0000
  S   S111      1.0  0.13662  0.82766  0.53477  1.0000
  C   C263      1.0  0.13685  0.76933  0.49102  1.0000
  Fe  Fe56      1.0  0.12972  0.82324  0.56379  1.0000
  S   S112      1.0  0.12183  0.84520  0.57840  1.0000
  Fe  Fe57      1.0  0.12092  0.80772  0.53669  1.0000
  S   S113      1.0  0.10676  0.81300  0.51449  1.0000
  S   S114      1.0  0.15316  0.80221  0.56723  1.0000
  S   S115      1.0  0.14358  0.78541  0.53883  1.0000
  Fe  Fe58      1.0  0.13834  0.89659  0.67565  1.0000
  S   S116      1.0  0.13504  0.86902  0.68676  1.0000
  S   S117      1.0  0.11916  0.92049  0.68316  1.0000
  C   C264      1.0  0.11932  0.85845  0.50007  1.0000
  Fe  Fe59      1.0  0.14880  0.86372  0.66019  1.0000
  S   S118      1.0  0.14618  0.84320  0.64698  1.0000
  C   C265      1.0  0.17797  0.56070  0.70696  1.0000
  S   S119      1.0  0.14953  0.89172  0.64858  1.0000
  C   C266      1.0  0.19019  0.91455  0.92782  1.0000
  H   H426      1.0  0.16144  0.60124  0.87118  1.0000
  S   S120      1.0  0.17190  0.60559  0.55692  1.0000
  H   H427      1.0  0.11263  0.54240  0.73494  1.0000
  H   H428      1.0  0.15131  0.63098  0.80385  1.0000
  H   H429      1.0  0.16584  0.57777  0.53839  1.0000
  H   H430      1.0  0.13964  0.59389  0.91782  1.0000
  H   H431      1.0  0.17447  0.79221  0.97674  1.0000
  S   S121      1.0  0.07073  0.76322  0.49196  1.0000
  H   H432      1.0  0.18807  0.76777  0.55860  1.0000
  Fe  Fe60      1.0  0.17954  0.98153  0.85849  1.0000
  Fe  Fe61      1.0  0.19401  0.90118  0.51760  1.0000
  H   H433      1.0  0.19293  0.67727  0.69229  1.0000
  S   S122      1.0  0.16000  0.54946  0.68923  1.0000
  H   H434      1.0  0.16076  0.92798  0.75340  1.0000
  H   H435      1.0  0.11269  0.84787  0.50828  1.0000
  C   C267      1.0  0.11016  0.71594  0.96125  1.0000
  H   H436      1.0  0.15934  0.50762  0.77143  1.0000
  C   C268      1.0  0.14940  0.98207  0.82471  1.0000
  C   C269      1.0  0.19122  0.57301  0.64966  1.0000
  Fe  Fe62      1.0  0.17157  0.66202  0.51476  1.0000
  S   S123      1.0  0.16957  0.63577  0.51281  1.0000
  S   S124      1.0  0.15043  0.68600  0.51382  1.0000
  H   H437      1.0  0.17425  0.71173  0.93060  1.0000
  H   H438      1.0  0.10148  0.81818  0.64698  1.0000
  C   C270      1.0  0.17054  0.51874  0.79367  1.0000
  H   H439      1.0  0.19160  0.94775  0.79816  1.0000
  H   H440      1.0  0.17359  0.75021  0.91208  1.0000
  C   C271      1.0  0.17525  0.86527  0.59253  1.0000
  H   H441      1.0  0.15556  0.64922  0.78698  1.0000
  C   C272      1.0  0.18391  0.65222  0.95784  1.0000
  C   C273      1.0  0.19426  0.83856  0.54605  1.0000
  H   H442      1.0  0.15163  0.90688  0.86728  1.0000
  S   S125      1.0  0.06876  0.50100  0.76951  1.0000
  S   S126      1.0  0.18978  0.55079  0.80011  1.0000
  S   S127      1.0  0.17490  0.65241  0.87967  1.0000
  H   H443      1.0  0.10114  0.71346  0.48529  1.0000
  H   H444      1.0  0.12227  0.55440  0.87413  1.0000
  H   H445      1.0  0.11216  0.74984  0.50333  1.0000
  S   S128      1.0  0.16375  0.50806  0.67210  1.0000
  H   H446      1.0  0.12988  0.77048  0.50445  1.0000
  S   S129      1.0  0.16506  0.54349  0.64244  1.0000
  H   H447      1.0  0.14677  0.98023  0.79946  1.0000
  Fe  Fe63      1.0  0.16071  0.51692  0.64469  1.0000
  C   C274      1.0  0.19074  0.55772  0.51836  1.0000
  H   H448      1.0  0.18606  0.59355  0.89618  1.0000
  H   H449      1.0  0.14329  0.54749  0.89359  1.0000
  C   C275      1.0  0.11361  0.54832  0.72094  1.0000
  H   H450      1.0  0.12339  0.51381  0.72673  1.0000
  H   H451      1.0  0.11627  0.78944  0.60658  1.0000
  H   H452      1.0  0.18312  0.65157  0.73289  1.0000
  H   H453      1.0  0.12685  0.55153  0.71592  1.0000
  C   C276      1.0  0.14249  0.67696  0.48686  1.0000
  C   C277      1.0  0.08992  0.49970  0.67393  1.0000
  C   C278      1.0  0.14394  0.83805  0.48819  1.0000
  C   C279      1.0  0.10630  0.50518  0.64444  1.0000
  C   C280      1.0  0.12007  0.50790  0.65022  1.0000
  H   H454      1.0  0.14690  0.87144  0.48079  1.0000
  C   C281      1.0  0.15715  0.59473  0.88483  1.0000
  C   C282      1.0  0.17268  0.48530  0.88969  1.0000
  H   H455      1.0  0.17398  0.96063  0.61074  1.0000
  H   H456      1.0  0.15457  0.97573  0.61743  1.0000
  S   S130      1.0  0.18124  0.68377  0.96514  1.0000
  H   H457      1.0  0.16312  0.98258  0.82076  1.0000
  Fe  Fe64      1.0  0.15880  0.65583  0.90564  1.0000
  H   H458      1.0  0.18123  0.91005  0.83523  1.0000
  C   C283      1.0  0.15340  0.59553  0.91503  1.0000
  H   H459      1.0  0.14475  0.75471  0.93225  1.0000
  H   H460      1.0  0.12046  0.74398  0.92319  1.0000
  H   H461      1.0  0.15395  0.56612  0.84616  1.0000
  H   H462      1.0  0.15236  0.64808  0.74403  1.0000
  S   S131      1.0  0.16659  0.68061  0.90420  1.0000
  N   N30       1.0  0.16769  0.73631  0.93832  1.0000
  H   H463      1.0  0.15148  0.62939  0.88099  1.0000
  C   C284      1.0  0.12397  0.52047  0.71297  1.0000
  C   C285      1.0  0.13159  0.54530  0.86634  1.0000
  H   H464      1.0  0.12717  0.86150  0.50791  1.0000
  C   C286      1.0  0.19363  0.62422  0.73596  1.0000
  C   C287      1.0  0.13771  0.68802  0.49859  1.0000
  C   C288      1.0  0.12277  0.70113  0.49800  1.0000
  N   N31       1.0  0.17745  0.91282  0.73523  1.0000
  C   C289      1.0  0.12367  0.65832  0.77914  1.0000
  C   C290      1.0  0.11864  0.50677  0.66789  1.0000
  H   H465      1.0  0.11873  0.70934  0.50739  1.0000
  N   N32       1.0  0.18091  0.51479  0.77693  1.0000
  H   H466      1.0  0.18157  0.88987  0.75486  1.0000
  C   C291      1.0  0.11317  0.73139  0.94990  1.0000
  H   H467      1.0  0.08263  0.54456  0.71756  1.0000
  H   H468      1.0  0.10389  0.56071  0.71990  1.0000
  C   C292      1.0  0.11196  0.54505  0.69286  1.0000
  C   C293      1.0  0.13084  0.84585  0.59584  1.0000
  C   C294      1.0  0.12382  0.85955  0.60469  1.0000
  C   C295      1.0  0.12916  0.85951  0.61985  1.0000
  C   C296      1.0  0.14149  0.84564  0.62638  1.0000
  C   C297      1.0  0.14904  0.83229  0.61715  1.0000
  C   C298      1.0  0.14391  0.83248  0.60185  1.0000
  H   H469      1.0  0.11374  0.86999  0.60011  1.0000
  H   H470      1.0  0.12312  0.86978  0.62691  1.0000
  H   H471      1.0  0.15863  0.82154  0.62211  1.0000
  H   H472      1.0  0.14964  0.82198  0.59508  1.0000
  C   C299      1.0  0.15168  0.75526  0.59882  1.0000
  C   C300      1.0  0.16031  0.73820  0.60368  1.0000
  Fe  Fe65      1.0  0.14257  0.69302  0.89346  1.0000
  H   H473      1.0  0.09016  0.52398  0.71136  1.0000
  H   H474      1.0  0.15884  0.51896  0.86151  1.0000
  C   C301      1.0  0.15645  0.76862  0.60331  1.0000
  H   H475      1.0  0.15648  0.72781  0.60051  1.0000
  H   H476      1.0  0.12536  0.79252  0.64828  1.0000
  H   H477      1.0  0.12787  0.65016  0.82093  1.0000
  H   H478      1.0  0.14947  0.78173  0.60017  1.0000
  S   S132      1.0  0.19455  0.88490  0.95254  1.0000
  N   N33       1.0  0.19006  0.57560  0.51966  1.0000
  H   H479      1.0  0.10960  0.53665  0.68521  1.0000
  H   H480      1.0  0.16034  0.57862  0.58392  1.0000
  S   S133      1.0  0.13905  0.51211  0.63511  1.0000
  H   H481      1.0  0.13349  0.62102  0.89569  1.0000
  H   H482      1.0  0.08361  0.79622  0.63449  1.0000
  S   S134      1.0  0.16423  0.89231  0.68254  1.0000
  H   H483      1.0  0.19247  0.86218  0.92652  1.0000
  H   H484      1.0  0.17178  0.83154  0.54215  1.0000
  C   C302      1.0  0.09712  0.79862  0.50859  1.0000
  C   C303      1.0  0.09191  0.78415  0.52026  1.0000
  C   C304      1.0  0.08355  0.77362  0.51509  1.0000
  C   C305      1.0  0.08102  0.77698  0.49803  1.0000
  C   C306      1.0  0.08656  0.79124  0.48631  1.0000
  C   C307      1.0  0.09421  0.80217  0.49168  1.0000
  H   H485      1.0  0.09379  0.78140  0.53340  1.0000
  H   H486      1.0  0.07914  0.76273  0.52433  1.0000
  H   H487      1.0  0.18574  0.93821  0.90883  1.0000
  C   C308      1.0  0.16900  0.51612  0.76536  1.0000
  C   C309      1.0  0.12798  0.60693  0.84664  1.0000
  C   C310      1.0  0.14457  0.61011  0.83806  1.0000
  H   H488      1.0  0.14561  0.70161  0.55115  1.0000
  H   H489      1.0  0.16345  0.58398  0.51616  1.0000
  C   C311      1.0  0.12342  0.63155  0.86039  1.0000
  C   C312      1.0  0.11774  0.61734  0.85833  1.0000
  H   H490      1.0  0.18860  0.90799  0.75775  1.0000
  H   H491      1.0  0.10374  0.63928  0.80467  1.0000
  H   H492      1.0  0.11483  0.64018  0.86848  1.0000
  H   H493      1.0  0.10492  0.61500  0.86514  1.0000
  C   C313      1.0  0.09299  0.53262  0.71844  1.0000
  C   C314      1.0  0.17381  0.57811  0.58411  1.0000
  C   C315      1.0  0.16002  0.96178  0.61746  1.0000
  C   C316      1.0  0.15024  0.62433  0.84008  1.0000
  C   C317      1.0  0.18770  0.93442  0.97647  1.0000
  C   C318      1.0  0.14723  0.63933  0.79194  1.0000
  H   H494      1.0  0.18473  0.93421  0.84646  1.0000
  C   C319      1.0  0.16763  0.91703  0.83433  1.0000
  C   C320      1.0  0.18503  0.88210  0.48203  1.0000
  C   C321      1.0  0.14735  0.62186  0.89417  1.0000
  C   C322      1.0  0.10935  0.52721  0.77798  1.0000
  C   C323      1.0  0.11438  0.51554  0.76672  1.0000
  C   C324      1.0  0.10200  0.50793  0.76345  1.0000
  C   C325      1.0  0.08445  0.51173  0.77164  1.0000
  C   C326      1.0  0.07935  0.52375  0.78254  1.0000
  C   C327      1.0  0.09170  0.53155  0.78563  1.0000
  H   H495      1.0  0.12804  0.51199  0.76091  1.0000
  S   S135      1.0  0.19174  0.89212  0.54631  1.0000
  H   H496      1.0  0.06579  0.52681  0.78892  1.0000
  H   H497      1.0  0.08764  0.54039  0.79442  1.0000
  Fe  Fe66      1.0  0.15015  0.66616  0.87036  1.0000
  C   C328      1.0  0.17107  0.94059  0.84519  1.0000
  H   H498      1.0  0.16141  0.50972  0.80001  1.0000
  H   H499      1.0  0.10224  0.55740  0.69111  1.0000
  H   H500      1.0  0.12021  0.62546  0.79219  1.0000
  H   H501      1.0  0.06610  0.98202  0.74512  1.0000
  C   C329      1.0  0.13732  0.95451  0.70958  1.0000
  C   C330      1.0  0.14927  0.94519  0.69780  1.0000
  C   C331      1.0  0.14385  0.93445  0.69010  1.0000
  C   C332      1.0  0.12629  0.93320  0.69368  1.0000
  C   C333      1.0  0.11417  0.94296  0.70507  1.0000
  C   C334      1.0  0.11969  0.95342  0.71319  1.0000
  H   H502      1.0  0.16286  0.94626  0.69452  1.0000
  H   H503      1.0  0.15325  0.92754  0.68098  1.0000
  H   H504      1.0  0.10052  0.94222  0.70780  1.0000
  H   H505      1.0  0.13169  0.94963  0.63660  1.0000
  H   H506      1.0  0.11953  0.73709  0.48704  1.0000
  C   C335      1.0  0.11797  0.63372  0.80180  1.0000
  H   H507      1.0  0.12942  0.55003  0.85288  1.0000
  H   H508      1.0  0.17556  0.53119  0.85728  1.0000
  N   N34       1.0  0.16016  0.92779  0.84755  1.0000
  H   H509      1.0  0.15180  0.92866  0.73523  1.0000
  H   H510      1.0  0.17993  0.90958  0.92558  1.0000
  H   H511      1.0  0.12796  0.53240  0.87121  1.0000
  H   H512      1.0  0.12136  0.62506  0.81389  1.0000
  H   H513      1.0  0.14718  0.72539  0.49780  1.0000
  H   H514      1.0  0.16963  0.59295  0.75280  1.0000
  N   N35       1.0  0.18624  0.87143  0.60072  1.0000
  H   H515      1.0  0.18071  0.71320  0.87701  1.0000
  H   H516      1.0  0.00384  0.72850  0.48619  1.0000
  C   C336      1.0  0.12153  0.71691  0.92532  1.0000
  C   C337      1.0  0.11864  0.70149  0.93670  1.0000
  C   C338      1.0  0.11285  0.70104  0.95454  1.0000
  H   H517      1.0  0.13111  0.77963  0.63204  1.0000
  H   H518      1.0  0.13303  0.66817  0.80430  1.0000
  H   H519      1.0  0.12030  0.69004  0.93166  1.0000
  C   C339      1.0  0.16806  0.95696  0.64506  1.0000
  C   C340      1.0  0.14666  0.73850  0.49990  1.0000
  H   H520      1.0  0.13679  0.80046  0.62704  1.0000
  C   C341      1.0  0.17169  0.58410  0.52515  1.0000
  H   H521      1.0  0.13983  0.73886  0.51351  1.0000
  C   C342      1.0  0.18761  0.90120  0.74789  1.0000
  C   C343      1.0  0.09118  0.50130  0.65623  1.0000
  H   H522      1.0  0.17626  0.51247  0.75287  1.0000
  H   H523      1.0  0.15062  0.66559  0.58903  1.0000
  C   C344      1.0  0.14222  0.93688  0.84573  1.0000
  C   C345      1.0  0.17247  0.60574  0.74839  1.0000
  H   H524      1.0  0.16188  0.58257  0.91788  1.0000
  H   H525      1.0  0.13585  0.68457  0.56591  1.0000
  S   S136      1.0  0.18581  0.55230  0.90652  1.0000
  C   C346      1.0  0.10368  0.50243  0.67976  1.0000
  H   H526      1.0  0.16138  0.52954  0.76237  1.0000
  C   C347      1.0  0.18886  0.85786  0.71866  1.0000
  C   C348      1.0  0.18799  0.53101  0.70341  1.0000
  H   H527      1.0  0.13380  0.96729  0.64486  1.0000
  C   C349      1.0  0.17638  0.72924  0.95324  1.0000
  H   H528      1.0  0.17645  0.87135  0.57859  1.0000
  H   H529      1.0  0.16770  0.72265  0.96451  1.0000
  H   H530      1.0  0.18599  0.58816  0.97056  1.0000
  H   H531      1.0  0.11034  0.96057  0.72222  1.0000
  H   H532      1.0  0.16815  0.92503  0.82101  1.0000
  Fe  Fe67      1.0  0.18354  0.62545  0.53507  1.0000
  H   H533      1.0  0.18296  0.48759  0.78661  1.0000
  H   H534      1.0  0.17094  0.66901  0.59137  1.0000
  H   H535      1.0  0.16815  0.91139  0.71324  1.0000
  H   H536      1.0  0.14260  0.74354  0.95441  1.0000
  C   C350      1.0  0.17562  0.90301  0.72308  1.0000
  H   H537      1.0  0.15522  0.67955  0.55011  1.0000
  C   C351      1.0  0.14853  0.68842  0.55917  1.0000
  C   C352      1.0  0.16276  0.63681  0.74338  1.0000
  C   C353      1.0  0.16420  0.64616  0.94335  1.0000
  H   H538      1.0  0.15795  0.92806  0.62756  1.0000
  H   H539      1.0  0.16032  0.73991  0.49850  1.0000
  N   N36       1.0  0.10959  0.80114  0.62887  1.0000
  C   C354      1.0  0.10351  0.81861  0.63289  1.0000
  C   C355      1.0  0.11190  0.80241  0.61008  1.0000
  C   C356      1.0  0.09650  0.79044  0.63824  1.0000
  C   C357      1.0  0.12643  0.79306  0.63430  1.0000
  C   C358      1.0  0.15893  0.62027  0.74924  1.0000
  H   H540      1.0  0.09103  0.82529  0.62864  1.0000
  H   H541      1.0  0.11318  0.82695  0.62626  1.0000
  H   H542      1.0  0.18127  0.72144  0.61538  1.0000
  H   H543      1.0  0.09953  0.80875  0.60546  1.0000
  H   H544      1.0  0.12179  0.81026  0.60257  1.0000
  H   H545      1.0  0.09450  0.78910  0.65247  1.0000
  H   H546      1.0  0.10064  0.77721  0.63537  1.0000
  C   C359      1.0  0.16274  0.72218  0.93352  1.0000
  H   H547      1.0  0.12604  0.65056  0.76907  1.0000
  H   H548      1.0  0.10959  0.66463  0.78122  1.0000
  C   C360      1.0  0.17621  0.54679  0.70091  1.0000
  N   N37       1.0  0.15939  0.68773  0.57153  1.0000
  C   C361      1.0  0.13952  0.95363  0.64377  1.0000
  S   S137      1.0  0.18555  0.80462  0.52232  1.0000
  C   C362      1.0  0.15006  0.69976  0.58324  1.0000
  S   S138      1.0  0.07089  0.49464  0.68838  1.0000
  H   H549      1.0  0.17430  0.77543  0.61495  1.0000
  H   H550      1.0  0.16246  0.53196  0.79192  1.0000
  H   H551      1.0  0.08052  0.49934  0.65164  1.0000
  Fe  Fe68      1.0  0.16197  0.86470  0.69201  1.0000
  H   H552      1.0  0.15425  0.92452  0.87521  1.0000
  H   H553      1.0  0.09147  0.52610  0.73231  1.0000
  H   H554      1.0  0.15011  0.77201  0.48906  1.0000
  H   H555      1.0  0.18446  0.85212  0.74646  1.0000
  H   H556      1.0  0.10615  0.49859  0.75518  1.0000
  H   H557      1.0  0.14765  0.62948  0.90352  1.0000
  C   C363      1.0  0.12490  0.65810  0.80841  1.0000
  N   N38       1.0  0.12844  0.64737  0.79533  1.0000
  S   S139      1.0  0.14461  0.65579  0.84913  1.0000
  H   H558      1.0  0.12215  0.51131  0.70588  1.0000
  H   H559      1.0  0.12515  0.54809  0.68697  1.0000
  C   C364      1.0  0.18447  0.48403  0.85940  1.0000
  H   H560      1.0  0.19216  0.84855  0.94743  1.0000
  H   H561      1.0  0.15054  0.68662  0.95190  1.0000
  C   C365      1.0  0.11862  0.73191  0.93197  1.0000
  S   S140      1.0  0.14545  0.96668  0.71976  1.0000
  S   S141      1.0  0.15667  0.69262  0.86580  1.0000
  S   S142      1.0  0.09425  0.48344  0.72760  1.0000
  H   H562      1.0  0.18171  0.61302  0.88048  1.0000
  H   H563      1.0  0.15297  0.60187  0.82956  1.0000
  C   C366      1.0  0.18046  0.89029  0.59957  1.0000
  S   S143      1.0  0.13357  0.66808  0.89689  1.0000
  N   N39       1.0  0.15819  0.95133  0.63524  1.0000
  S   S144      1.0  0.12840  0.71782  0.90278  1.0000
  H   H564      1.0  0.17904  0.51786  0.80279  1.0000
  H   H565      1.0  0.13740  0.52311  0.70765  1.0000
  C   C367      1.0  0.13956  0.63537  0.85096  1.0000
  H   H566      1.0  0.15034  0.63107  0.78219  1.0000
  H   H567      1.0  0.11064  0.74305  0.95486  1.0000
  C   C368      1.0  0.15203  0.53860  0.88527  1.0000
  Fe  Fe69      1.0  0.17531  0.88526  0.65668  1.0000
  H   H568      1.0  0.10894  0.87005  0.49731  1.0000
  H   H569      1.0  0.10701  0.49003  0.79892  1.0000
  C   C369      1.0  0.19319  0.71569  0.87726  1.0000
  H   H570      1.0  0.13146  0.66864  0.77380  1.0000
  H   H571      1.0  0.18841  0.98072  0.72170  1.0000
  Fe  Fe70      1.0  0.17077  0.53344  0.66894  1.0000
  S   S145      1.0  0.18316  0.65196  0.53835  1.0000
  H   H572      1.0  0.17920  0.93628  0.71619  1.0000
  H   H573      1.0  0.18657  0.52019  0.69888  1.0000
  H   H574      1.0  0.19373  0.58721  0.67503  1.0000
  C   C370      1.0  0.17611  0.69278  0.56196  1.0000
  H   H575      1.0  0.19363  0.60319  0.65527  1.0000
  H   H576      1.0  0.17314  0.90974  0.86675  1.0000
  H   H577      1.0  0.13627  0.94532  0.85536  1.0000
  H   H578      1.0  0.18707  0.84117  0.93073  1.0000
  H   H579      1.0  0.15443  0.60286  0.92444  1.0000
  C   C371      1.0  0.17033  0.76502  0.61192  1.0000
  H   H580      1.0  0.12898  0.50931  0.67236  1.0000
  C   C372      1.0  0.18455  0.86260  0.61907  1.0000
  S   S146      1.0  0.17552  0.85721  0.66665  1.0000
  H   H581      1.0  0.09788  0.81351  0.48267  1.0000
  C   C373      1.0  0.11960  0.74965  0.48989  1.0000
  C   C374      1.0  0.15185  0.74930  0.94308  1.0000
  H   H582      1.0  0.16579  0.94894  0.85494  1.0000
  H   H583      1.0  0.15391  0.66669  0.48735  1.0000
  H   H584      1.0  0.19360  0.87512  0.49085  1.0000
  C   C375      1.0  0.17437  0.73462  0.61202  1.0000
  C   C376      1.0  0.15416  0.56181  0.86021  1.0000
  H   H585      1.0  0.15315  0.95758  0.60951  1.0000
  C   C377      1.0  0.16174  0.53218  0.85674  1.0000
  C   C378      1.0  0.15994  0.92011  0.74443  1.0000
  S   S147      1.0  0.18853  0.50595  0.63360  1.0000
  C   C379      1.0  0.18198  0.56535  0.59631  1.0000
  H   H586      1.0  0.17027  0.66055  0.57344  1.0000
  C   C380      1.0  0.15366  0.66245  0.94434  1.0000
  S   S148      1.0  0.16944  0.85239  0.71780  1.0000
  N   N40       1.0  0.14986  0.54448  0.86713  1.0000
  H   H587      1.0  0.14206  0.94529  0.83267  1.0000
  H   H588      1.0  0.17879  0.61392  0.90287  1.0000
  H   H589      1.0  0.17897  0.85103  0.59352  1.0000
  H   H590      1.0  0.17482  0.55607  0.60523  1.0000
  H   H591      1.0  0.18018  0.80376  0.48818  1.0000
  C   C381      1.0  0.16292  0.66996  0.58180  1.0000
  S   S149      1.0  0.16172  0.63487  0.92894  1.0000
  C   C382      1.0  0.19349  0.93078  0.91826  1.0000
  H   H592      1.0  0.14911  0.52544  0.89086  1.0000
  H   H593      1.0  0.15785  0.69929  0.59288  1.0000
  H   H594      1.0  0.16571  0.53777  0.88632  1.0000
  H   H595      1.0  0.10047  0.97890  0.83931  1.0000
  H   H596      1.0  0.13352  0.92767  0.84755  1.0000
  H   H597      1.0  0.16736  0.56199  0.86179  1.0000
  H   H598      1.0  0.18418  0.69323  0.57098  1.0000
  H   H599      1.0  0.14461  0.57170  0.86684  1.0000
  S   S150      1.0  0.17146  0.90561  0.50402  1.0000
  C   C383      1.0  0.18590  0.82938  0.53937  1.0000
  N   N41       1.0  0.13036  0.85347  0.48396  1.0000
  H   H600      1.0  0.16877  0.57287  0.70517  1.0000
  C   C384      1.0  0.19196  0.55903  0.71489  1.0000
  H   H601      1.0  0.15976  0.90721  0.83569  1.0000
  H   H602      1.0  0.14252  0.48645  0.74911  1.0000
  C   C385      1.0  0.17390  0.66891  0.95797  1.0000
  C   C386      1.0  0.18358  0.49657  0.88899  1.0000
  H   H603      1.0  0.15278  0.90974  0.75212  1.0000
  H   H604      1.0  0.14229  0.66660  0.93854  1.0000
  H   H605      1.0  0.18207  0.95592  0.63858  1.0000
  C   C387      1.0  0.17979  0.74452  0.92351  1.0000
  H   H606      1.0  0.18403  0.68344  0.55370  1.0000
  C   C388      1.0  0.17713  0.60637  0.89400  1.0000
  H   H607      1.0  0.11223  0.75994  0.48107  1.0000
  C   C389      1.0  0.16519  0.93290  0.63463  1.0000
  C   C390      1.0  0.17966  0.74807  0.61576  1.0000
  H   H608      1.0  0.14341  0.59343  0.88647  1.0000
  H   H609      1.0  0.17397  0.70578  0.55344  1.0000
  H   H610      1.0  0.10259  0.50155  0.69333  1.0000
  C   C391      1.0  0.12242  0.97953  0.81793  1.0000
  H   H611      1.0  0.15240  0.84050  0.49580  1.0000
  N   N42       1.0  0.15877  0.60459  0.89702  1.0000
  Fe  Fe71      1.0  0.19325  0.53211  0.63342  1.0000
  Fe  Fe72      1.0  0.18012  0.67869  0.87720  1.0000
  N   N43       1.0  0.13756  0.75218  0.48764  1.0000
  H   H612      1.0  0.15308  0.71616  0.94417  1.0000
  C   C392      1.0  0.19145  0.49710  0.77992  1.0000
  H   H613      1.0  0.10729  0.50613  0.63078  1.0000
  H   H614      1.0  0.18851  0.71952  0.95008  1.0000
  H   H615      1.0  0.11028  0.68910  0.96316  1.0000
  H   H616      1.0  0.15510  0.76023  0.94667  1.0000
  H   H617      1.0  0.17164  0.94923  0.83222  1.0000
  H   H618      1.0  0.18657  0.84784  0.55383  1.0000
  H   H619      1.0  0.16869  0.89222  0.72988  1.0000
  H   H620      1.0  0.18513  0.54076  0.76679  1.0000
  H   H621      1.0  0.13764  0.94562  0.65704  1.0000
  H   H622      1.0  0.18216  0.74114  0.88247  1.0000
  H   H623      1.0  0.11270  0.83870  0.48180  1.0000
  H   H624      1.0  0.19021  0.58605  0.49260  1.0000
  C   C393      1.0  0.18668  0.92696  0.72554  1.0000
  C   C394      1.0  0.15976  0.91671  0.86497  1.0000
  H   H625      1.0  0.17080  0.86533  0.62624  1.0000
  H   H626      1.0  0.13728  0.69649  0.59055  1.0000
  C   C395      1.0  0.11408  0.97991  0.83509  1.0000
  H   H627      1.0  0.14744  0.71337  0.57601  1.0000
  H   H628      1.0  0.18722  0.62824  0.94973  1.0000
  C   C396      1.0  0.12307  0.98182  0.84683  1.0000
  H   H629      1.0  0.16765  0.94887  0.65831  1.0000
  H   H630      1.0  0.11626  0.98236  0.85999  1.0000
  C   C397      1.0  0.19347  0.58216  0.82960  1.0000
  H   H631      1.0  0.16443  0.92465  0.64784  1.0000
  Fe  Fe73      1.0  0.19205  0.49870  0.66117  1.0000
  H   H632      1.0  0.16678  0.89366  0.60669  1.0000
  H   H633      1.0  0.16120  0.86839  0.59873  1.0000
  C   C398      1.0  0.11283  0.70349  0.48547  1.0000
  H   H634      1.0  0.16276  0.97063  0.64637  1.0000
  H   H635      1.0  0.18109  0.89734  0.58591  1.0000
  H   H636      1.0  0.17915  0.93071  0.62800  1.0000
  H   H637      1.0  0.18327  0.55749  0.50872  1.0000
  H   H638      1.0  0.19378  0.79477  0.56104  1.0000
  C   C399      1.0  0.19403  0.73151  0.88042  1.0000
  H   H639      1.0  0.18679  0.58533  0.80491  1.0000
  S   S151      1.0  0.11042  0.97626  0.80407  1.0000
  S   S152      1.0  0.14335  0.98204  0.76081  1.0000
  H   H640      1.0  0.16551  0.58160  0.88659  1.0000
  H   H641      1.0  0.19270  0.86688  0.62568  1.0000
  H   H642      1.0  0.18857  0.89720  0.71602  1.0000
  H   H643      1.0  0.13799  0.82684  0.49588  1.0000
  H   H644      1.0  0.19337  0.56984  0.71945  1.0000
  S   S153      1.0  0.18187  0.50523  0.90737  1.0000
  H   H645      1.0  0.19073  0.75785  0.58026  1.0000
  H   H646      1.0  0.18508  0.55010  0.53100  1.0000
  H   H647      1.0  0.18888  0.89547  0.60510  1.0000
  H   H648      1.0  0.18317  0.92743  0.96887  1.0000
  C   C400      1.0  0.17274  0.89687  0.48585  1.0000
  H   H649      1.0  0.15672  0.72688  0.92189  1.0000
  H   H650      1.0  0.18283  0.56855  0.66230  1.0000
  C   C401      1.0  0.14014  0.98077  0.81266  1.0000
  H   H651      1.0  0.18001  0.73962  0.95739  1.0000
  H   H652      1.0  0.18316  0.58419  0.64234  1.0000
  C   C402      1.0  0.19292  0.85701  0.73460  1.0000
  C   C403      1.0  0.18977  0.60771  0.74152  1.0000
  H   H653      1.0  0.18861  0.84833  0.62052  1.0000
  H   H654      1.0  0.19086  0.59591  0.82922  1.0000
  H   H655      1.0  0.18864  0.93435  0.73438  1.0000
  C   C404      1.0  0.19436  0.55845  0.81630  1.0000
  C   C405      1.0  0.19261  0.52720  0.76883  1.0000
  C   C406      1.0  0.19102  0.57618  0.81590  1.0000
  H   H656      1.0  0.18406  0.75507  0.92671  1.0000
  H   H657      1.0  0.19177  0.73502  0.91940  1.0000
  H   H658      1.0  0.19422  0.65434  0.69981  1.0000
  C   C407      1.0  0.14077  0.98272  0.84185  1.0000
  S   S154      1.0  0.21719  0.02596  0.83734  1.0000
  C   C408      1.0  0.20570  0.04530  0.65651  1.0000
  Fe  Fe74      1.0  0.20970  0.00031  0.85228  1.0000
  H   H659      1.0  0.22245  0.03410  0.71068  1.0000
  S   S155      1.0  0.30621  0.48065  0.78001  1.0000
  H   H660      1.0  0.26088  0.02190  0.69427  1.0000
  S   S156      1.0  0.36055  0.26810  0.75662  1.0000
  H   H661      1.0  0.24375  0.42666  0.82116  1.0000
  C   C409      1.0  0.19947  0.06999  0.67041  1.0000
  S   S157      1.0  0.38290  0.31226  0.67981  1.0000
  H   H662      1.0  0.21974  0.42296  0.72474  1.0000
  C   C410      1.0  0.35587  0.16606  0.88718  1.0000
  C   C411      1.0  0.22844  0.43687  0.74752  1.0000
  S   S158      1.0  0.37327  0.23389  0.83199  1.0000
  C   C412      1.0  0.35298  0.11022  0.77862  1.0000
  C   C413      1.0  0.38033  0.11223  0.78404  1.0000
  H   H663      1.0  0.36299  0.22584  0.73771  1.0000
  H   H664      1.0  0.35315  0.15738  0.90004  1.0000
  S   S159      1.0  0.37800  0.14634  0.84551  1.0000
  H   H665      1.0  0.26569  0.01499  0.64507  1.0000
  H   H666      1.0  0.33048  0.19382  0.89269  1.0000
  S   S160      1.0  0.20059  0.98762  0.83555  1.0000
  H   H667      1.0  0.24594  0.47258  0.88270  1.0000
  C   C414      1.0  0.24880  0.43157  0.85078  1.0000
  Fe  Fe75      1.0  0.29178  0.36813  0.70954  1.0000
  S   S161      1.0  0.28337  0.37465  0.73586  1.0000
  S   S162      1.0  0.30276  0.34045  0.70722  1.0000
  Fe  Fe76      1.0  0.27776  0.40454  0.69144  1.0000
  S   S163      1.0  0.26820  0.41437  0.71604  1.0000
  S   S164      1.0  0.27427  0.42241  0.66605  1.0000
  Fe  Fe77      1.0  0.29357  0.39880  0.72275  1.0000
  S   S165      1.0  0.31001  0.40922  0.73440  1.0000
  Fe  Fe78      1.0  0.25879  0.38948  0.72693  1.0000
  S   S166      1.0  0.23177  0.38870  0.74250  1.0000
  S   S167      1.0  0.30424  0.39107  0.69707  1.0000
  S   S168      1.0  0.26612  0.38089  0.70172  1.0000
  Fe  Fe79      1.0  0.20790  0.10237  0.69033  1.0000
  H   H668      1.0  0.20437  0.01433  0.68484  1.0000
  S   S169      1.0  0.22405  0.08887  0.66874  1.0000
  Fe  Fe80      1.0  0.21113  0.09918  0.72729  1.0000
  S   S170      1.0  0.22821  0.08338  0.74603  1.0000
  S   S171      1.0  0.22175  0.11555  0.70233  1.0000
  Fe  Fe81      1.0  0.27836  0.08762  0.83573  1.0000
  S   S172      1.0  0.27044  0.11654  0.82789  1.0000
  S   S173      1.0  0.26202  0.07018  0.85628  1.0000
  Fe  Fe82      1.0  0.31031  0.08661  0.80678  1.0000
  S   S174      1.0  0.30455  0.11494  0.79603  1.0000
  S   S175      1.0  0.33299  0.06904  0.79388  1.0000
  Fe  Fe83      1.0  0.29903  0.11733  0.82378  1.0000
  S   S176      1.0  0.30772  0.14023  0.82795  1.0000
  Fe  Fe84      1.0  0.27683  0.11178  0.80089  1.0000
  S   S177      1.0  0.25887  0.12569  0.78230  1.0000
  S   S178      1.0  0.30645  0.08874  0.83436  1.0000
  S   S179      1.0  0.28319  0.08306  0.80907  1.0000
  Fe  Fe85      1.0  0.28318  0.46852  0.79367  1.0000
  H   H669      1.0  0.35813  0.22976  0.75931  1.0000
  S   S180      1.0  0.26483  0.46207  0.78088  1.0000
  Fe  Fe86      1.0  0.28915  0.46699  0.82919  1.0000
  S   S181      1.0  0.27406  0.46054  0.85632  1.0000
  Fe  Fe87      1.0  0.32002  0.46114  0.79971  1.0000
  S   S182      1.0  0.29740  0.44779  0.81179  1.0000
  C   C415      1.0  0.32624  0.18251  0.89098  1.0000
  H   H670      1.0  0.37762  0.42324  0.77710  1.0000
  C   C416      1.0  0.37811  0.39888  0.81759  1.0000
  H   H671      1.0  0.22377  0.46906  0.83372  1.0000
  H   H672      1.0  0.34235  0.43113  0.82484  1.0000
  S   S183      1.0  0.34636  0.44670  0.78799  1.0000
  S   S184      1.0  0.19798  0.02940  0.65101  1.0000
  C   C417      1.0  0.35372  0.42369  0.81782  1.0000
  H   H673      1.0  0.35349  0.08459  0.80673  1.0000
  C   C418      1.0  0.27460  0.99683  0.57778  1.0000
  H   H674      1.0  0.30408  0.03003  0.84289  1.0000
  Fe  Fe88      1.0  0.31149  0.02510  0.73574  1.0000
  S   S185      1.0  0.32029  0.04239  0.71077  1.0000
  S   S186      1.0  0.29365  0.03802  0.75651  1.0000
  Fe  Fe89      1.0  0.31411  0.02370  0.69843  1.0000
  S   S187      1.0  0.29744  0.03408  0.67822  1.0000
  S   S188      1.0  0.30269  0.00818  0.72362  1.0000
  S   S189      1.0  0.33796  0.00846  0.73720  1.0000
  H   H675      1.0  0.21471  0.46143  0.71123  1.0000
  C   C419      1.0  0.36868  0.19549  0.76003  1.0000
  H   H676      1.0  0.37383  0.12329  0.79058  1.0000
  S   S190      1.0  0.39379  0.29141  0.72308  1.0000
  C   C420      1.0  0.38801  0.04350  0.74326  1.0000
  H   H677      1.0  0.20170  0.39133  0.76974  1.0000
  Fe  Fe90      1.0  0.21687  0.00590  0.64291  1.0000
  C   C421      1.0  0.23359  0.10660  0.82077  1.0000
  H   H678      1.0  0.19719  0.12005  0.80349  1.0000
  S   S191      1.0  0.24076  0.00308  0.62166  1.0000
  N   N44       1.0  0.34010  0.17254  0.87954  1.0000
  C   C422      1.0  0.29276  0.01848  0.66954  1.0000
  C   C423      1.0  0.27988  0.02338  0.65950  1.0000
  C   C424      1.0  0.27562  0.01108  0.65281  1.0000
  S   S192      1.0  0.19878  0.08496  0.71508  1.0000
  H   H679      1.0  0.30899  0.00621  0.80793  1.0000
  C   C425      1.0  0.30144  0.00122  0.67275  1.0000
  H   H680      1.0  0.27322  0.03672  0.65682  1.0000
  C   C426      1.0  0.20906  0.43138  0.73228  1.0000
  H   H681      1.0  0.25051  0.41761  0.85083  1.0000
  H   H682      1.0  0.35692  0.11600  0.76469  1.0000
  H   H683      1.0  0.36100  0.17684  0.88885  1.0000
  H   H684      1.0  0.34437  0.14928  0.87002  1.0000
  Fe  Fe91      1.0  0.34657  0.02487  0.71123  1.0000
  H   H685      1.0  0.30969  0.99074  0.56840  1.0000
  C   C427      1.0  0.39452  0.06720  0.71974  1.0000
  N   N45       1.0  0.33139  0.39915  0.78431  1.0000
  S   S193      1.0  0.21922  0.40832  0.81499  1.0000
  H   H686      1.0  0.35553  0.10399  0.81186  1.0000
  C   C428      1.0  0.20994  0.09164  0.82606  1.0000
  N   N46       1.0  0.36834  0.10052  0.78611  1.0000
  H   H687      1.0  0.23689  0.09982  0.83356  1.0000
  H   H688      1.0  0.36660  0.15850  0.87879  1.0000
  H   H689      1.0  0.37383  0.08610  0.81074  1.0000
  Fe  Fe92      1.0  0.32994  0.99257  0.72266  1.0000
  C   C429      1.0  0.33878  0.41271  0.77076  1.0000
  H   H690      1.0  0.38924  0.07857  0.78221  1.0000
  H   H691      1.0  0.35276  0.41185  0.77072  1.0000
  N   N47       1.0  0.21563  0.44495  0.73626  1.0000
  H   H692      1.0  0.27148  0.98987  0.56920  1.0000
  H   H693      1.0  0.30523  0.41424  0.78607  1.0000
  H   H694      1.0  0.32686  0.39135  0.81205  1.0000
  C   C430      1.0  0.32483  0.06216  0.77948  1.0000
  C   C431      1.0  0.33162  0.04566  0.77590  1.0000
  C   C432      1.0  0.32245  0.03851  0.76796  1.0000
  C   C433      1.0  0.30655  0.04790  0.76365  1.0000
  C   C434      1.0  0.30043  0.06487  0.76611  1.0000
  C   C435      1.0  0.30976  0.07210  0.77375  1.0000
  H   H695      1.0  0.34341  0.03803  0.78011  1.0000
  H   H696      1.0  0.32720  0.02538  0.76611  1.0000
  H   H697      1.0  0.28823  0.07220  0.76265  1.0000
  H   H698      1.0  0.30490  0.08516  0.77583  1.0000
  C   C436      1.0  0.23663  0.09524  0.75604  1.0000
  C   C437      1.0  0.23275  0.11330  0.75239  1.0000
  C   C438      1.0  0.23988  0.12250  0.76034  1.0000
  C   C439      1.0  0.25094  0.11372  0.77190  1.0000
  C   C440      1.0  0.25491  0.09566  0.77539  1.0000
  C   C441      1.0  0.24773  0.08644  0.76753  1.0000
  H   H699      1.0  0.22425  0.12020  0.74346  1.0000
  H   H700      1.0  0.23674  0.13649  0.75757  1.0000
  H   H701      1.0  0.26351  0.08872  0.78410  1.0000
  H   H702      1.0  0.25091  0.07246  0.77026  1.0000
  C   C442      1.0  0.21681  0.07201  0.66442  1.0000
  C   C443      1.0  0.22869  0.06033  0.65488  1.0000
  C   C444      1.0  0.22322  0.04684  0.65116  1.0000
  H   H703      1.0  0.23760  0.11933  0.81731  1.0000
  H   H704      1.0  0.31100  0.39949  0.77163  1.0000
  S   S194      1.0  0.31307  0.47874  0.81880  1.0000
  H   H705      1.0  0.24214  0.06179  0.65023  1.0000
  H   H706      1.0  0.23243  0.03805  0.64363  1.0000
  H   H707      1.0  0.20881  0.44455  0.84021  1.0000
  H   H708      1.0  0.27030  0.02650  0.70974  1.0000
  C   C445      1.0  0.29696  0.42467  0.74621  1.0000
  C   C446      1.0  0.27921  0.42462  0.75290  1.0000
  C   C447      1.0  0.26922  0.43628  0.76340  1.0000
  C   C448      1.0  0.27704  0.44790  0.76728  1.0000
  C   C449      1.0  0.29476  0.44795  0.76055  1.0000
  C   C450      1.0  0.30466  0.43648  0.74990  1.0000
  H   H709      1.0  0.27332  0.41526  0.75039  1.0000
  H   H710      1.0  0.25563  0.43587  0.76900  1.0000
  H   H711      1.0  0.30091  0.45687  0.76340  1.0000
  H   H712      1.0  0.31830  0.43677  0.74451  1.0000
  C   C451      1.0  0.22331  0.40112  0.79560  1.0000
  C   C452      1.0  0.24008  0.39938  0.78514  1.0000
  C   C453      1.0  0.24294  0.39498  0.76897  1.0000
  C   C454      1.0  0.22902  0.39235  0.76330  1.0000
  C   C455      1.0  0.21242  0.39360  0.77398  1.0000
  H   H713      1.0  0.39172  0.24726  0.76886  1.0000
  H   H714      1.0  0.25075  0.40180  0.78935  1.0000
  H   H715      1.0  0.25581  0.39385  0.76080  1.0000
  H   H716      1.0  0.37291  0.02708  0.73892  1.0000
  H   H717      1.0  0.22226  0.42980  0.76025  1.0000
  H   H718      1.0  0.22914  0.46557  0.72251  1.0000
  H   H719      1.0  0.19688  0.39838  0.79849  1.0000
  S   S195      1.0  0.38831  0.19101  0.81523  1.0000
  H   H720      1.0  0.38796  0.27351  0.80745  1.0000
  C   C456      1.0  0.35999  0.14444  0.83784  1.0000
  C   C457      1.0  0.34932  0.15888  0.82969  1.0000
  C   C458      1.0  0.33360  0.15726  0.82633  1.0000
  C   C459      1.0  0.32861  0.14114  0.83056  1.0000
  C   C460      1.0  0.33968  0.12656  0.83796  1.0000
  C   C461      1.0  0.35520  0.12826  0.84174  1.0000
  H   H721      1.0  0.35286  0.17139  0.82649  1.0000
  H   H722      1.0  0.32509  0.16860  0.82062  1.0000
  H   H723      1.0  0.33588  0.11414  0.84154  1.0000
  H   H724      1.0  0.36327  0.11704  0.84819  1.0000
  H   H725      1.0  0.38510  0.06870  0.69678  1.0000
  H   H726      1.0  0.21387  0.43779  0.86130  1.0000
  H   H727      1.0  0.33792  0.41173  0.75766  1.0000
  H   H728      1.0  0.38191  0.09096  0.76298  1.0000
  S   S196      1.0  0.34116  0.00730  0.69647  1.0000
  H   H729      1.0  0.24182  0.09905  0.81100  1.0000
  H   H730      1.0  0.33587  0.37141  0.79092  1.0000
  C   C462      1.0  0.36058  0.32035  0.68688  1.0000
  C   C463      1.0  0.35399  0.33824  0.68432  1.0000
  C   C464      1.0  0.33622  0.34470  0.69057  1.0000
  C   C465      1.0  0.32498  0.33323  0.69890  1.0000
  C   C466      1.0  0.33151  0.31541  0.70098  1.0000
  C   C467      1.0  0.34930  0.30899  0.69528  1.0000
  H   H731      1.0  0.36274  0.34706  0.67788  1.0000
  H   H732      1.0  0.33130  0.35846  0.68906  1.0000
  H   H733      1.0  0.32282  0.30649  0.70728  1.0000
  H   H734      1.0  0.35420  0.29521  0.69707  1.0000
  C   C468      1.0  0.36508  0.25956  0.77737  1.0000
  C   C469      1.0  0.35182  0.26257  0.79170  1.0000
  C   C470      1.0  0.35461  0.25507  0.80846  1.0000
  C   C471      1.0  0.37048  0.24404  0.81094  1.0000
  C   C472      1.0  0.38390  0.24119  0.79663  1.0000
  C   C473      1.0  0.38130  0.24927  0.77985  1.0000
  H   H735      1.0  0.33925  0.27055  0.78987  1.0000
  H   H736      1.0  0.34424  0.25735  0.81948  1.0000
  H   H737      1.0  0.35961  0.40483  0.84051  1.0000
  H   H738      1.0  0.35528  0.17693  0.85372  1.0000
  C   C474      1.0  0.34444  0.18386  0.86245  1.0000
  C   C475      1.0  0.22047  0.45843  0.67295  1.0000
  C   C476      1.0  0.22335  0.44205  0.68368  1.0000
  C   C477      1.0  0.23985  0.43109  0.68162  1.0000
  C   C478      1.0  0.25350  0.43619  0.66841  1.0000
  C   C479      1.0  0.25051  0.45235  0.65724  1.0000
  C   C480      1.0  0.23405  0.46356  0.65962  1.0000
  H   H739      1.0  0.27848  0.99953  0.60879  1.0000
  H   H740      1.0  0.24194  0.41857  0.69014  1.0000
  H   H741      1.0  0.30654  0.39147  0.79451  1.0000
  H   H742      1.0  0.26181  0.43520  0.84549  1.0000
  C   C481      1.0  0.38719  0.20930  0.76883  1.0000
  C   C482      1.0  0.23025  0.03733  0.84299  1.0000
  C   C483      1.0  0.23738  0.05021  0.83023  1.0000
  C   C484      1.0  0.24719  0.06019  0.83415  1.0000
  C   C485      1.0  0.24994  0.05753  0.85093  1.0000
  C   C486      1.0  0.24290  0.04454  0.86371  1.0000
  C   C487      1.0  0.23320  0.03439  0.85975  1.0000
  H   H743      1.0  0.23531  0.05248  0.81720  1.0000
  H   H744      1.0  0.25251  0.06999  0.82415  1.0000
  H   H745      1.0  0.24491  0.04233  0.87676  1.0000
  H   H746      1.0  0.22773  0.02455  0.86975  1.0000
  H   H747      1.0  0.24489  0.43325  0.86444  1.0000
  N   N48       1.0  0.21482  0.10877  0.82105  1.0000
  H   H748      1.0  0.35789  0.19836  0.77112  1.0000
  Fe  Fe93      1.0  0.39277  0.28755  0.69737  1.0000
  C   C488      1.0  0.21135  0.11733  0.80364  1.0000
  H   H749      1.0  0.23437  0.44664  0.75006  1.0000
  H   H750      1.0  0.33992  0.38040  0.76807  1.0000
  C   C489      1.0  0.38309  0.40414  0.79970  1.0000
  H   H751      1.0  0.23528  0.44690  0.71289  1.0000
  C   C490      1.0  0.27154  0.47632  0.86840  1.0000
  H   H752      1.0  0.27958  0.00840  0.56959  1.0000
  H   H753      1.0  0.34874  0.19542  0.86350  1.0000
  C   C491      1.0  0.20452  0.11951  0.83369  1.0000
  H   H754      1.0  0.19932  0.01620  0.70704  1.0000
  H   H755      1.0  0.34549  0.12087  0.78542  1.0000
  H   H756      1.0  0.21738  0.08334  0.81663  1.0000
  C   C492      1.0  0.20961  0.39790  0.79013  1.0000
  H   H757      1.0  0.23192  0.47615  0.65122  1.0000
  C   C493      1.0  0.37746  0.08617  0.77707  1.0000
  H   H758      1.0  0.20708  0.11345  0.84689  1.0000
  N   N49       1.0  0.34627  0.32216  0.74685  1.0000
  C   C494      1.0  0.35883  0.31244  0.75802  1.0000
  C   C495      1.0  0.35558  0.33163  0.73064  1.0000
  C   C496      1.0  0.33279  0.33458  0.75596  1.0000
  C   C497      1.0  0.33782  0.31002  0.74276  1.0000
  H   H759      1.0  0.36563  0.32112  0.76128  1.0000
  H   H760      1.0  0.36906  0.30284  0.75162  1.0000
  H   H761      1.0  0.35229  0.30506  0.77034  1.0000
  H   H762      1.0  0.34637  0.33953  0.72221  1.0000
  H   H763      1.0  0.36269  0.34045  0.73319  1.0000
  H   H764      1.0  0.36536  0.32264  0.72302  1.0000
  H   H765      1.0  0.32542  0.32782  0.76817  1.0000
  H   H766      1.0  0.32312  0.34216  0.74784  1.0000
  H   H767      1.0  0.33872  0.34392  0.75925  1.0000
  H   H768      1.0  0.34743  0.30119  0.73485  1.0000
  H   H769      1.0  0.32741  0.31700  0.73536  1.0000
  H   H770      1.0  0.33171  0.30174  0.75467  1.0000
  C   C498      1.0  0.29761  0.98903  0.66555  1.0000
  S   S197      1.0  0.38988  0.37998  0.82881  1.0000
  H   H771      1.0  0.35517  0.38015  0.78081  1.0000
  C   C499      1.0  0.39397  0.20420  0.73983  1.0000
  H   H772      1.0  0.37685  0.21348  0.77973  1.0000
  Fe  Fe94      1.0  0.38316  0.26736  0.73397  1.0000
  H   H773      1.0  0.38913  0.03614  0.75609  1.0000
  C   C500      1.0  0.36349  0.40878  0.82665  1.0000
  C   C501      1.0  0.25612  0.47976  0.88063  1.0000
  H   H774      1.0  0.21089  0.99596  0.70098  1.0000
  H   H775      1.0  0.31415  0.18747  0.88558  1.0000
  H   H776      1.0  0.29611  0.00658  0.59233  1.0000
  H   H777      1.0  0.23922  0.42730  0.74162  1.0000
  C   C502      1.0  0.33312  0.40074  0.80138  1.0000
  C   C503      1.0  0.22405  0.45518  0.72003  1.0000
  S   S198      1.0  0.36906  0.03952  0.70282  1.0000
  H   H778      1.0  0.21827  0.10911  0.79399  1.0000
  N   N50       1.0  0.31025  0.37837  0.64827  1.0000
  C   C504      1.0  0.30171  0.38795  0.63365  1.0000
  C   C505      1.0  0.31963  0.38967  0.65246  1.0000
  C   C506      1.0  0.32276  0.36280  0.64361  1.0000
  C   C507      1.0  0.29679  0.37314  0.66344  1.0000
  H   H779      1.0  0.29431  0.37992  0.63025  1.0000
  H   H780      1.0  0.31143  0.39211  0.62192  1.0000
  H   H781      1.0  0.29225  0.39981  0.63690  1.0000
  H   H782      1.0  0.32643  0.38282  0.66328  1.0000
  H   H783      1.0  0.32965  0.39416  0.64119  1.0000
  H   H784      1.0  0.31047  0.40139  0.65639  1.0000
  H   H785      1.0  0.33324  0.36622  0.63231  1.0000
  H   H786      1.0  0.31613  0.35401  0.64033  1.0000
  H   H787      1.0  0.32922  0.35523  0.65453  1.0000
  H   H788      1.0  0.30265  0.36611  0.67485  1.0000
  H   H789      1.0  0.28957  0.36441  0.66089  1.0000
  H   H790      1.0  0.28701  0.38460  0.66708  1.0000
  C   C508      1.0  0.34099  0.38199  0.78089  1.0000
  H   H791      1.0  0.26102  0.45635  0.64698  1.0000
  C   C509      1.0  0.37356  0.41919  0.79094  1.0000
  H   H792      1.0  0.28638  0.04655  0.83629  1.0000
  H   H793      1.0  0.32704  0.41396  0.80387  1.0000
  H   H794      1.0  0.37686  0.23595  0.74417  1.0000
  S   S199      1.0  0.19983  0.47206  0.67729  1.0000
  S   S200      1.0  0.38002  0.26452  0.70838  1.0000
  C   C510      1.0  0.37796  0.04716  0.71660  1.0000
  H   H795      1.0  0.31136  0.99730  0.68051  1.0000
  H   H796      1.0  0.32270  0.17442  0.90404  1.0000
  H   H797      1.0  0.33175  0.42588  0.77278  1.0000
  N   N51       1.0  0.37967  0.20868  0.75433  1.0000
  C   C511      1.0  0.37879  0.03833  0.73354  1.0000
  H   H798      1.0  0.26194  0.00147  0.58618  1.0000
  C   C512      1.0  0.35875  0.42889  0.79990  1.0000
  H   H799      1.0  0.25153  0.01658  0.71690  1.0000
  N   N52       1.0  0.28252  0.09190  0.71588  1.0000
  C   C513      1.0  0.28144  0.07415  0.72552  1.0000
  C   C514      1.0  0.29785  0.09128  0.70142  1.0000
  C   C515      1.0  0.28441  0.10213  0.72762  1.0000
  C   C516      1.0  0.26642  0.09992  0.70905  1.0000
  H   H800      1.0  0.27009  0.07396  0.73661  1.0000
  H   H801      1.0  0.29341  0.06785  0.73082  1.0000
  H   H802      1.0  0.28022  0.06591  0.71713  1.0000
  H   H803      1.0  0.29910  0.10445  0.69378  1.0000
  H   H804      1.0  0.31021  0.08525  0.70618  1.0000
  H   H805      1.0  0.29692  0.08348  0.69242  1.0000
  H   H806      1.0  0.28532  0.11562  0.72083  1.0000
  H   H807      1.0  0.29633  0.09630  0.73319  1.0000
  H   H808      1.0  0.27305  0.10284  0.73866  1.0000
  H   H809      1.0  0.26670  0.11340  0.70178  1.0000
  H   H810      1.0  0.25464  0.10049  0.71967  1.0000
  H   H811      1.0  0.26454  0.09253  0.70017  1.0000
  N   N53       1.0  0.23578  0.44227  0.84053  1.0000
  C   C517      1.0  0.23343  0.46059  0.84142  1.0000
  C   C518      1.0  0.24197  0.44032  0.82234  1.0000
  C   C519      1.0  0.21893  0.43659  0.84756  1.0000
  H   H812      1.0  0.24596  0.46521  0.83644  1.0000
  H   H813      1.0  0.22861  0.46255  0.85496  1.0000
  C   C520      1.0  0.36256  0.09350  0.80469  1.0000
  H   H814      1.0  0.38503  0.11769  0.77017  1.0000
  H   H815      1.0  0.25471  0.44440  0.81664  1.0000
  H   H816      1.0  0.23251  0.44824  0.81418  1.0000
  H   H817      1.0  0.22011  0.42290  0.84678  1.0000
  C   C521      1.0  0.31272  0.40116  0.78416  1.0000
  H   H818      1.0  0.21281  0.43785  0.69372  1.0000
  N   N54       1.0  0.24614  0.04368  0.70543  1.0000
  C   C522      1.0  0.25510  0.05632  0.69206  1.0000
  C   C523      1.0  0.22986  0.04309  0.70067  1.0000
  C   C524      1.0  0.24194  0.04898  0.72225  1.0000
  C   C525      1.0  0.25766  0.02639  0.70669  1.0000
  H   H819      1.0  0.26778  0.05667  0.69482  1.0000
  H   H820      1.0  0.24698  0.06960  0.69112  1.0000
  H   H821      1.0  0.25796  0.05310  0.67906  1.0000
  H   H822      1.0  0.23264  0.03884  0.68816  1.0000
  H   H823      1.0  0.22113  0.05607  0.69907  1.0000
  C   C526      1.0  0.36892  0.22576  0.74863  1.0000
  H   H824      1.0  0.23496  0.03993  0.73267  1.0000
  H   H825      1.0  0.23340  0.06205  0.72165  1.0000
  H   H826      1.0  0.25394  0.04946  0.72631  1.0000
  H   H827      1.0  0.21600  0.12978  0.79894  1.0000
  H   H828      1.0  0.34387  0.10165  0.77959  1.0000
  H   H829      1.0  0.20790  0.13254  0.83018  1.0000
  N   N55       1.0  0.29473  0.02616  0.82198  1.0000
  C   C527      1.0  0.28234  0.01560  0.83361  1.0000
  C   C528      1.0  0.31121  0.01476  0.81550  1.0000
  C   C529      1.0  0.29845  0.03756  0.83148  1.0000
  C   C530      1.0  0.28699  0.03680  0.80721  1.0000
  H   H830      1.0  0.26989  0.02388  0.83892  1.0000
  H   H831      1.0  0.28780  0.00723  0.84483  1.0000
  H   H832      1.0  0.27894  0.00715  0.82673  1.0000
  H   H833      1.0  0.32084  0.02243  0.80682  1.0000
  H   H834      1.0  0.31739  0.00641  0.82628  1.0000
  C   C531      1.0  0.20087  0.45634  0.74533  1.0000
  H   H835      1.0  0.30790  0.04563  0.82309  1.0000
  H   H836      1.0  0.34709  0.39826  0.80226  1.0000
  H   H837      1.0  0.20524  0.46678  0.74859  1.0000
  H   H838      1.0  0.29542  0.04583  0.79902  1.0000
  H   H839      1.0  0.27403  0.04478  0.81151  1.0000
  H   H840      1.0  0.28524  0.02877  0.79883  1.0000
  H   H841      1.0  0.36881  0.07700  0.77842  1.0000
  H   H842      1.0  0.21276  0.08464  0.83899  1.0000
  H   H843      1.0  0.39011  0.28862  0.77583  1.0000
  H   H844      1.0  0.38964  0.27592  0.85190  1.0000
  H   H845      1.0  0.33307  0.18846  0.85595  1.0000
  C   C532      1.0  0.33386  0.15774  0.87757  1.0000
  Fe  Fe95      1.0  0.19599  0.13415  0.70692  1.0000
  C   C533      1.0  0.28467  0.99392  0.65560  1.0000
  H   H846      1.0  0.32275  0.16204  0.87069  1.0000
  H   H847      1.0  0.36276  0.19473  0.74941  1.0000
  S   S201      1.0  0.23002  0.98795  0.66365  1.0000
  C   C534      1.0  0.29064  0.99502  0.59971  1.0000
  H   H848      1.0  0.32951  0.14947  0.89029  1.0000
  H   H849      1.0  0.37579  0.27248  0.82919  1.0000
  H   H850      1.0  0.37647  0.18240  0.76423  1.0000
  H   H851      1.0  0.38890  0.20412  0.72840  1.0000
  C   C535      1.0  0.38576  0.06171  0.70983  1.0000
  C   C536      1.0  0.20029  0.00736  0.69832  1.0000
  H   H852      1.0  0.19580  0.09276  0.82665  1.0000
  S   S202      1.0  0.20604  0.98562  0.63699  1.0000
  H   H853      1.0  0.20344  0.42282  0.74427  1.0000
  H   H854      1.0  0.39206  0.10539  0.78960  1.0000
  C   C537      1.0  0.38613  0.27844  0.81943  1.0000
  H   H855      1.0  0.38111  0.29265  0.81632  1.0000
  H   H856      1.0  0.19870  0.43702  0.72454  1.0000
  S   S203      1.0  0.39039  0.31997  0.78549  1.0000
  Fe  Fe96      1.0  0.39105  0.16961  0.83838  1.0000
  S   S204      1.0  0.39116  0.18693  0.85599  1.0000
  Fe  Fe97      1.0  0.39075  0.20785  0.83198  1.0000
  H   H857      1.0  0.29999  0.98674  0.60788  1.0000
  H   H858      1.0  0.39449  0.39678  0.79263  1.0000
  H   H859      1.0  0.39253  0.15052  0.78187  1.0000
  N   N56       1.0  0.28728  0.98546  0.58813  1.0000
  Fe  Fe98      1.0  0.25303  0.98349  0.64221  1.0000
  H   H860      1.0  0.29674  0.48283  0.85664  1.0000
  C   C538      1.0  0.23573  0.65511  0.44087  1.0000
  Fe  Fe99      1.0  0.23997  0.72309  0.41259  1.0000
  S   S205      1.0  0.24747  0.71067  0.38963  1.0000
  Fe  Fe100     1.0  0.27340  0.70528  0.42485  1.0000
  S   S206      1.0  0.28412  0.69084  0.40318  1.0000
  S   S207      1.0  0.28766  0.70537  0.44492  1.0000
  Fe  Fe101     1.0  0.27422  0.71601  0.38647  1.0000
  S   S208      1.0  0.28819  0.72860  0.36040  1.0000
  Fe  Fe102     1.0  0.25662  0.68661  0.40818  1.0000
  S   S209      1.0  0.24946  0.66259  0.40575  1.0000
  S   S210      1.0  0.26566  0.73087  0.40782  1.0000
  S   S211      1.0  0.24694  0.69868  0.43145  1.0000
  Fe  Fe103     1.0  0.20460  0.75193  0.09624  1.0000
  S   S212      1.0  0.22014  0.72607  0.10605  1.0000
  S   S213      1.0  0.21770  0.77461  0.08322  1.0000
  C   C539      1.0  0.20255  0.77419  0.42051  1.0000
  H   H861      1.0  0.39428  0.76290  0.02841  1.0000
  C   C540      1.0  0.19963  0.73323  0.00783  1.0000
  H   H862      1.0  0.37971  0.79270  0.39227  1.0000
  Fe  Fe104     1.0  0.20661  0.71576  0.09120  1.0000
  S   S214      1.0  0.22399  0.69965  0.07237  1.0000
  S   S215      1.0  0.20187  0.62506  0.47159  1.0000
  H   H863      1.0  0.37892  0.77520  0.23710  1.0000
  Fe  Fe105     1.0  0.27939  0.84399  0.09514  1.0000
  S   S216      1.0  0.27784  0.82695  0.12176  1.0000
  S   S217      1.0  0.25680  0.86579  0.08904  1.0000
  Fe  Fe106     1.0  0.31441  0.82398  0.08114  1.0000
  S   S218      1.0  0.31577  0.80527  0.10615  1.0000
  S   S219      1.0  0.33632  0.81850  0.05883  1.0000
  Fe  Fe107     1.0  0.28785  0.80526  0.10737  1.0000
  S   S220      1.0  0.27878  0.77993  0.11578  1.0000
  Fe  Fe108     1.0  0.30608  0.82833  0.11872  1.0000
  S   S221      1.0  0.31932  0.82429  0.14149  1.0000
  S   S222      1.0  0.28718  0.82209  0.08129  1.0000
  S   S223      1.0  0.30689  0.84731  0.09321  1.0000
  C   C541      1.0  0.22886  0.89408  0.46010  1.0000
  H   H864      1.0  0.29412  0.67363  0.08887  1.0000
  S   S224      1.0  0.36409  0.86695  0.16237  1.0000
  C   C542      1.0  0.28363  0.67935  0.36420  1.0000
  H   H865      1.0  0.28193  0.69226  0.36724  1.0000
  H   H866      1.0  0.22928  0.89243  0.07900  1.0000
  H   H867      1.0  0.20979  0.68223  0.42503  1.0000
  H   H868      1.0  0.20296  0.90065  0.98019  1.0000
  C   C543      1.0  0.38603  0.82299  0.28368  1.0000
  H   H869      1.0  0.19855  0.84890  0.09863  1.0000
  Fe  Fe109     1.0  0.36965  0.70609  0.29149  1.0000
  S   S225      1.0  0.37018  0.73281  0.29305  1.0000
  S   S226      1.0  0.35582  0.68997  0.31546  1.0000
  H   H870      1.0  0.38367  0.81344  0.27735  1.0000
  C   C544      1.0  0.28416  0.70685  0.99799  1.0000
  S   S227      1.0  0.20043  0.64272  0.99471  1.0000
  H   H871      1.0  0.31324  0.77849  0.05990  1.0000
  C   C545      1.0  0.21568  0.63534  0.45374  1.0000
  Fe  Fe110     1.0  0.36695  0.74015  0.26561  1.0000
  S   S228      1.0  0.34746  0.76428  0.25840  1.0000
  H   H872      1.0  0.20048  0.74680  0.00713  1.0000
  S   S229      1.0  0.36420  0.71377  0.26457  1.0000
  C   C546      1.0  0.26220  0.69347  0.08744  1.0000
  H   H873      1.0  0.20425  0.92985  0.43965  1.0000
  S   S230      1.0  0.21261  0.67789  0.99688  1.0000
  H   H874      1.0  0.25061  0.68113  0.36296  1.0000
  H   H875      1.0  0.25584  0.70210  0.35390  1.0000
  H   H876      1.0  0.26791  0.75537  0.03993  1.0000
  H   H877      1.0  0.29361  0.65723  0.34258  1.0000
  H   H878      1.0  0.33404  0.78393  0.01912  1.0000
  Fe  Fe111     1.0  0.21213  0.65112  0.01252  1.0000
  C   C547      1.0  0.19960  0.68194  0.07074  1.0000
  S   S231      1.0  0.23977  0.63957  0.00082  1.0000
  C   C548      1.0  0.19928  0.93229  0.00168  1.0000
  Fe  Fe112     1.0  0.31976  0.78573  0.46245  1.0000
  S   S232      1.0  0.30015  0.80189  0.44678  1.0000
  S   S233      1.0  0.34425  0.77118  0.44798  1.0000
  H   H879      1.0  0.28076  0.66187  0.08366  1.0000
  Fe  Fe113     1.0  0.33521  0.73512  0.02271  1.0000
  Fe  Fe114     1.0  0.28055  0.78927  0.46740  1.0000
  S   S234      1.0  0.25913  0.77960  0.46216  1.0000
  H   H880      1.0  0.32508  0.74753  0.06139  1.0000
  H   H881      1.0  0.34747  0.73946  0.32782  1.0000
  C   C549      1.0  0.25978  0.76853  0.04024  1.0000
  H   H882      1.0  0.30087  0.68662  0.33152  1.0000
  H   H883      1.0  0.19876  0.81729  0.10591  1.0000
  H   H884      1.0  0.27254  0.65491  0.35588  1.0000
  H   H885      1.0  0.24324  0.66364  0.44238  1.0000
  H   H886      1.0  0.33576  0.84337  0.39017  1.0000
  C   C550      1.0  0.36058  0.83880  0.10620  1.0000
  C   C551      1.0  0.29120  0.73499  0.45212  1.0000
  H   H887      1.0  0.21748  0.81421  0.08884  1.0000
  H   H888      1.0  0.28211  0.69307  0.32160  1.0000
  S   S235      1.0  0.25023  0.81667  0.98444  1.0000
  H   H889      1.0  0.24468  0.81267  0.10992  1.0000
  H   H890      1.0  0.26078  0.67660  0.06364  1.0000
  H   H891      1.0  0.20847  0.80376  0.44428  1.0000
  C   C552      1.0  0.35905  0.78375  0.43445  1.0000
  C   C553      1.0  0.36427  0.78306  0.41688  1.0000
  C   C554      1.0  0.21274  0.91954  0.47115  1.0000
  H   H892      1.0  0.27453  0.66412  0.33316  1.0000
  H   H893      1.0  0.35884  0.77508  0.41173  1.0000
  H   H894      1.0  0.22448  0.64909  0.46811  1.0000
  C   C555      1.0  0.22540  0.78433  0.38958  1.0000
  C   C556      1.0  0.27951  0.66351  0.34486  1.0000
  H   H895      1.0  0.36222  0.86128  0.41008  1.0000
  H   H896      1.0  0.31809  0.78463  0.97948  1.0000
  H   H897      1.0  0.21764  0.80514  0.99478  1.0000
  H   H898      1.0  0.26854  0.77801  0.03442  1.0000
  H   H899      1.0  0.23627  0.88860  0.44857  1.0000
  S   S236      1.0  0.35225  0.72390  0.04305  1.0000
  H   H900      1.0  0.27661  0.67127  0.37568  1.0000
  N   N57       1.0  0.36573  0.73167  0.34481  1.0000
  H   H901      1.0  0.19513  0.73316  0.99605  1.0000
  C   C557      1.0  0.37754  0.71875  0.33508  1.0000
  S   S237      1.0  0.27490  0.72242  0.02610  1.0000
  C   C558      1.0  0.36665  0.81441  0.24879  1.0000
  S   S238      1.0  0.21416  0.73981  0.42115  1.0000
  H   H902      1.0  0.19870  0.69070  0.18787  1.0000
  H   H903      1.0  0.35174  0.85665  0.38573  1.0000
  C   C559      1.0  0.36616  0.79398  0.44111  1.0000
  C   C560      1.0  0.37634  0.72499  0.06122  1.0000
  C   C561      1.0  0.35563  0.78299  0.25547  1.0000
  C   C562      1.0  0.34578  0.79616  0.26409  1.0000
  H   H904      1.0  0.36233  0.79437  0.45472  1.0000
  H   H905      1.0  0.26115  0.78023  0.00601  1.0000
  S   S239      1.0  0.22728  0.86485  0.98681  1.0000
  H   H906      1.0  0.28453  0.70521  0.33603  1.0000
  Fe  Fe115     1.0  0.21031  0.86368  0.01350  1.0000
  C   C563      1.0  0.35279  0.85479  0.15541  1.0000
  C   C564      1.0  0.35583  0.83674  0.15992  1.0000
  C   C565      1.0  0.34564  0.82761  0.15530  1.0000
  C   C566      1.0  0.33264  0.83635  0.14573  1.0000
  C   C567      1.0  0.33006  0.85434  0.14063  1.0000
  C   C568      1.0  0.34003  0.86349  0.14555  1.0000
  H   H907      1.0  0.36589  0.82984  0.16712  1.0000
  H   H908      1.0  0.34780  0.81367  0.15923  1.0000
  H   H909      1.0  0.32003  0.86125  0.13338  1.0000
  H   H910      1.0  0.33763  0.87745  0.14195  1.0000
  C   C569      1.0  0.32737  0.81413  0.04336  1.0000
  C   C570      1.0  0.33610  0.80058  0.03482  1.0000
  C   C571      1.0  0.32749  0.79484  0.02508  1.0000
  C   C572      1.0  0.31042  0.80313  0.02333  1.0000
  C   C573      1.0  0.30222  0.81747  0.03082  1.0000
  C   C574      1.0  0.31066  0.82291  0.04089  1.0000
  H   H911      1.0  0.34923  0.79408  0.03631  1.0000
  H   H912      1.0  0.28912  0.82410  0.02927  1.0000
  H   H913      1.0  0.30417  0.83388  0.04683  1.0000
  C   C575      1.0  0.23550  0.77495  0.09169  1.0000
  C   C576      1.0  0.24664  0.78641  0.08273  1.0000
  C   C577      1.0  0.26028  0.78766  0.08980  1.0000
  C   C578      1.0  0.26269  0.77765  0.10598  1.0000
  C   C579      1.0  0.25185  0.76585  0.11470  1.0000
  C   C580      1.0  0.23823  0.76454  0.10760  1.0000
  H   H914      1.0  0.24459  0.79452  0.07040  1.0000
  H   H915      1.0  0.26879  0.79648  0.08276  1.0000
  H   H916      1.0  0.25370  0.75801  0.12719  1.0000
  H   H917      1.0  0.22959  0.75579  0.11470  1.0000
  C   C581      1.0  0.21606  0.68614  0.06381  1.0000
  C   C582      1.0  0.21225  0.81058  0.47343  1.0000
  C   C583      1.0  0.37621  0.73978  0.35170  1.0000
  C   C584      1.0  0.20464  0.66430  0.04924  1.0000
  C   C585      1.0  0.22096  0.66873  0.04223  1.0000
  C   C586      1.0  0.22672  0.67942  0.04964  1.0000
  H   H918      1.0  0.23539  0.53982  0.98427  1.0000
  H   H919      1.0  0.30512  0.72978  0.44976  1.0000
  H   H920      1.0  0.22934  0.66361  0.03130  1.0000
  H   H921      1.0  0.23955  0.68236  0.04436  1.0000
  H   H922      1.0  0.21146  0.89775  0.05711  1.0000
  C   C587      1.0  0.21328  0.81504  0.10274  1.0000
  C   C588      1.0  0.30752  0.71791  0.34854  1.0000
  C   C589      1.0  0.31630  0.70150  0.35541  1.0000
  C   C590      1.0  0.33102  0.69293  0.34511  1.0000
  C   C591      1.0  0.33729  0.70091  0.32805  1.0000
  C   C592      1.0  0.32874  0.71747  0.32133  1.0000
  C   C593      1.0  0.31390  0.72591  0.33153  1.0000
  H   H923      1.0  0.31178  0.69539  0.36864  1.0000
  H   H924      1.0  0.33769  0.68017  0.35041  1.0000
  H   H925      1.0  0.33338  0.72368  0.30814  1.0000
  H   H926      1.0  0.30717  0.73860  0.32610  1.0000
  H   H927      1.0  0.23409  0.75704  0.38957  1.0000
  C   C594      1.0  0.27962  0.72547  0.45084  1.0000
  C   C595      1.0  0.23910  0.82518  0.10209  1.0000
  C   C596      1.0  0.28490  0.75161  0.45565  1.0000
  C   C597      1.0  0.26696  0.75848  0.45859  1.0000
  C   C598      1.0  0.25529  0.74877  0.45773  1.0000
  C   C599      1.0  0.26164  0.73238  0.45357  1.0000
  C   C600      1.0  0.37558  0.74630  0.03469  1.0000
  C   C601      1.0  0.28132  0.69712  0.98742  1.0000
  H   H928      1.0  0.24141  0.75410  0.45972  1.0000
  H   H929      1.0  0.25266  0.72510  0.45238  1.0000
  C   C602      1.0  0.23696  0.65191  0.42450  1.0000
  C   C603      1.0  0.22772  0.64025  0.42286  1.0000
  C   C604      1.0  0.21710  0.63203  0.43740  1.0000
  H   H930      1.0  0.22866  0.63763  0.41028  1.0000
  Fe  Fe116     1.0  0.22683  0.83660  0.99235  1.0000
  C   C605      1.0  0.22490  0.87496  0.04701  1.0000
  C   C606      1.0  0.23846  0.86032  0.04846  1.0000
  C   C607      1.0  0.24882  0.85732  0.06100  1.0000
  C   C608      1.0  0.24551  0.86891  0.07213  1.0000
  C   C609      1.0  0.23198  0.88341  0.07052  1.0000
  C   C610      1.0  0.22182  0.88641  0.05810  1.0000
  H   H931      1.0  0.24104  0.85143  0.03987  1.0000
  H   H932      1.0  0.25931  0.84612  0.06201  1.0000
  S   S240      1.0  0.21190  0.83503  0.01967  1.0000
  H   H933      1.0  0.19933  0.83234  0.12861  1.0000
  H   H934      1.0  0.26114  0.75747  0.01173  1.0000
  N   N58       1.0  0.27694  0.68089  0.34854  1.0000
  C   C611      1.0  0.21415  0.79684  0.39842  1.0000
  C   C612      1.0  0.25288  0.77046  0.01270  1.0000
  H   H935      1.0  0.38572  0.74602  0.34110  1.0000
  H   H936      1.0  0.35775  0.83375  0.39297  1.0000
  H   H937      1.0  0.37011  0.71236  0.32965  1.0000
  C   C613      1.0  0.35149  0.81170  0.26105  1.0000
  Fe  Fe117     1.0  0.32709  0.74356  0.98620  1.0000
  C   C614      1.0  0.20951  0.91583  0.44381  1.0000
  S   S241      1.0  0.38563  0.86715  0.20122  1.0000
  C   C615      1.0  0.37849  0.80345  0.43020  1.0000
  H   H938      1.0  0.25930  0.69912  0.05451  1.0000
  H   H939      1.0  0.33299  0.83254  0.43788  1.0000
  H   H940      1.0  0.29871  0.66899  0.06762  1.0000
  C   C616      1.0  0.38709  0.81856  0.09787  1.0000
  S   S242      1.0  0.21121  0.88003  0.03178  1.0000
  S   S243      1.0  0.29606  0.84815  0.45059  1.0000
  S   S244      1.0  0.38422  0.82853  0.19624  1.0000
  H   H941      1.0  0.26751  0.69477  0.09823  1.0000
  H   H942      1.0  0.27766  0.71563  0.06186  1.0000
  H   H943      1.0  0.33370  0.79433  0.27313  1.0000
  H   H944      1.0  0.34680  0.81011  0.11721  1.0000
  H   H945      1.0  0.24246  0.77240  0.00538  1.0000
  H   H946      1.0  0.38221  0.79468  0.15747  1.0000
  C   C617      1.0  0.28481  0.86417  0.46250  1.0000
  H   H947      1.0  0.38382  0.73011  0.36073  1.0000
  H   H948      1.0  0.32329  0.83073  0.42118  1.0000
  H   H949      1.0  0.34547  0.71693  0.35435  1.0000
  C   C618      1.0  0.26845  0.68706  0.05898  1.0000
  H   H950      1.0  0.21575  0.91038  0.43202  1.0000
  H   H951      1.0  0.36669  0.79521  0.11139  1.0000
  C   C619      1.0  0.33566  0.83199  0.42395  1.0000
  H   H952      1.0  0.34535  0.81996  0.42207  1.0000
  H   H953      1.0  0.23065  0.51268  0.97846  1.0000
  H   H954      1.0  0.36714  0.80977  0.08069  1.0000
  C   C620      1.0  0.28631  0.70301  0.06590  1.0000
  H   H955      1.0  0.38538  0.70840  0.34342  1.0000
  H   H956      1.0  0.29649  0.71094  0.99531  1.0000
  N   N59       1.0  0.27625  0.68905  0.07271  1.0000
  H   H957      1.0  0.29609  0.88412  0.44353  1.0000
  N   N60       1.0  0.24545  0.77190  0.03088  1.0000
  C   C621      1.0  0.31351  0.77652  0.07382  1.0000
  N   N61       1.0  0.22189  0.91281  0.45535  1.0000
  C   C622      1.0  0.23416  0.75910  0.03906  1.0000
  C   C623      1.0  0.23502  0.78951  0.03152  1.0000
  H   H958      1.0  0.34603  0.84167  0.10870  1.0000
  S   S245      1.0  0.32678  0.71987  0.00765  1.0000
  H   H959      1.0  0.31419  0.75762  0.10546  1.0000
  H   H960      1.0  0.37158  0.71419  0.07030  1.0000
  Fe  Fe118     1.0  0.38811  0.84002  0.21677  1.0000
  Fe  Fe119     1.0  0.29585  0.82054  0.46411  1.0000
  H   H961      1.0  0.22310  0.76140  0.03243  1.0000
  H   H962      1.0  0.33203  0.87475  0.40586  1.0000
  H   H963      1.0  0.24164  0.74568  0.03866  1.0000
  H   H964      1.0  0.22926  0.79108  0.04508  1.0000
  H   H965      1.0  0.22404  0.79249  0.02462  1.0000
  H   H966      1.0  0.24315  0.79948  0.02529  1.0000
  N   N62       1.0  0.32986  0.83067  0.21186  1.0000
  C   C624      1.0  0.34289  0.81472  0.20927  1.0000
  C   C625      1.0  0.33890  0.84517  0.20870  1.0000
  C   C626      1.0  0.31975  0.82810  0.22981  1.0000
  C   C627      1.0  0.31790  0.83469  0.19971  1.0000
  H   H967      1.0  0.33657  0.80342  0.21185  1.0000
  H   H968      1.0  0.35223  0.81145  0.21810  1.0000
  H   H969      1.0  0.35064  0.81607  0.19581  1.0000
  H   H970      1.0  0.32950  0.85744  0.21051  1.0000
  H   H971      1.0  0.34806  0.84260  0.21764  1.0000
  H   H972      1.0  0.34665  0.84751  0.19525  1.0000
  H   H973      1.0  0.30966  0.83979  0.23223  1.0000
  H   H974      1.0  0.32841  0.82533  0.23922  1.0000
  H   H975      1.0  0.31307  0.81700  0.23279  1.0000
  H   H976      1.0  0.30771  0.84648  0.20151  1.0000
  H   H977      1.0  0.31119  0.82385  0.20138  1.0000
  H   H978      1.0  0.32505  0.83714  0.18605  1.0000
  H   H979      1.0  0.28831  0.80168  0.97869  1.0000
  Fe  Fe120     1.0  0.22791  0.63398  0.98092  1.0000
  C   C628      1.0  0.21307  0.84564  0.09578  1.0000
  H   H980      1.0  0.30045  0.77428  0.08141  1.0000
  C   C629      1.0  0.21198  0.79233  0.45444  1.0000
  H   H981      1.0  0.19811  0.90965  0.45041  1.0000
  H   H982      1.0  0.38409  0.81122  0.43544  1.0000
  H   H983      1.0  0.20526  0.78798  0.98171  1.0000
  H   H984      1.0  0.28050  0.90732  0.45958  1.0000
  C   C630      1.0  0.38346  0.80302  0.41255  1.0000
  C   C631      1.0  0.35559  0.74509  0.33322  1.0000
  C   C632      1.0  0.37130  0.78535  0.24383  1.0000
  H   H985      1.0  0.21739  0.84556  0.08171  1.0000
  H   H986      1.0  0.36486  0.80768  0.12717  1.0000
  C   C633      1.0  0.38644  0.77495  0.30602  1.0000
  S   S246      1.0  0.38287  0.79394  0.33021  1.0000
  N   N63       1.0  0.36781  0.82197  0.10093  1.0000
  N   N64       1.0  0.27088  0.78373  0.40487  1.0000
  C   C634      1.0  0.25832  0.77423  0.41771  1.0000
  C   C635      1.0  0.27805  0.77500  0.39003  1.0000
  C   C636      1.0  0.28519  0.78398  0.41300  1.0000
  C   C637      1.0  0.26189  0.80162  0.39886  1.0000
  H   H987      1.0  0.25245  0.78058  0.42893  1.0000
  H   H988      1.0  0.26473  0.76075  0.42260  1.0000
  H   H989      1.0  0.24742  0.77352  0.41216  1.0000
  H   H990      1.0  0.28740  0.78195  0.37990  1.0000
  H   H991      1.0  0.28508  0.76151  0.39409  1.0000
  H   H992      1.0  0.26748  0.77425  0.38389  1.0000
  H   H993      1.0  0.29498  0.79109  0.40379  1.0000
  H   H994      1.0  0.29217  0.77064  0.41776  1.0000
  H   H995      1.0  0.28009  0.79028  0.42440  1.0000
  H   H996      1.0  0.27100  0.80930  0.38931  1.0000
  H   H997      1.0  0.25592  0.80846  0.40978  1.0000
  H   H998      1.0  0.25114  0.80188  0.39249  1.0000
  S   S247      1.0  0.29936  0.75599  0.99482  1.0000
  S   S248      1.0  0.29889  0.79534  0.01244  1.0000
  H   H999      1.0  0.23406  0.78827  0.37749  1.0000
  C   C638      1.0  0.22537  0.76670  0.39637  1.0000
  H   H1000     1.0  0.38174  0.81872  0.29787  1.0000
  H   H1001     1.0  0.27855  0.68411  0.04743  1.0000
  Fe  Fe121     1.0  0.31023  0.76783  0.01054  1.0000
  H   H1002     1.0  0.29778  0.67334  0.36257  1.0000
  H   H1003     1.0  0.36836  0.83839  0.41659  1.0000
  H   H1004     1.0  0.20346  0.92365  0.01352  1.0000
  H   H1005     1.0  0.25394  0.68350  0.09256  1.0000
  Fe  Fe122     1.0  0.29939  0.73343  0.01696  1.0000
  S   S249      1.0  0.19988  0.71293  0.15493  1.0000
  H   H1006     1.0  0.21787  0.85632  0.09812  1.0000
  S   S250      1.0  0.30745  0.74661  0.03379  1.0000
  C   C639      1.0  0.21396  0.76166  0.41190  1.0000
  S   S251      1.0  0.37226  0.83473  0.24365  1.0000
  H   H1007     1.0  0.36432  0.75175  0.32210  1.0000
  C   C640      1.0  0.25243  0.69583  0.00486  1.0000
  H   H1008     1.0  0.25326  0.70592  0.08349  1.0000
  C   C641      1.0  0.34698  0.84523  0.39460  1.0000
  H   H1009     1.0  0.21070  0.93783  0.99363  1.0000
  H   H1010     1.0  0.31242  0.74265  0.08291  1.0000
  C   C642      1.0  0.25527  0.70563  0.01544  1.0000
  N   N65       1.0  0.34197  0.84742  0.41274  1.0000
  S   S252      1.0  0.19756  0.65079  0.03993  1.0000
  C   C643      1.0  0.36918  0.73240  0.04634  1.0000
  H   H1011     1.0  0.21866  0.83983  0.12798  1.0000
  H   H1012     1.0  0.20689  0.93354  0.46811  1.0000
  H   H1013     1.0  0.23173  0.93596  0.44278  1.0000
  H   H1014     1.0  0.29657  0.70047  0.05430  1.0000
  C   C644      1.0  0.28799  0.67265  0.07849  1.0000
  H   H1015     1.0  0.31524  0.78885  0.07597  1.0000
  H   H1016     1.0  0.37026  0.75216  0.02320  1.0000
  H   H1017     1.0  0.34377  0.82187  0.26772  1.0000
  N   N66       1.0  0.21980  0.82885  0.10636  1.0000
  C   C645      1.0  0.36225  0.82236  0.08492  1.0000
  H   H1018     1.0  0.34775  0.82515  0.08681  1.0000
  C   C646      1.0  0.23649  0.92177  0.44645  1.0000
  C   C647      1.0  0.28652  0.69189  0.33376  1.0000
  H   H1019     1.0  0.25245  0.68981  0.34011  1.0000
  H   H1020     1.0  0.20994  0.62310  0.43597  1.0000
  C   C648      1.0  0.37624  0.79288  0.40589  1.0000
  H   H1021     1.0  0.36705  0.83250  0.07407  1.0000
  Fe  Fe123     1.0  0.38374  0.85508  0.17991  1.0000
  H   H1022     1.0  0.36516  0.84957  0.09606  1.0000
  C   C649      1.0  0.35359  0.72306  0.35922  1.0000
  C   C650      1.0  0.36125  0.80815  0.11476  1.0000
  H   H1023     1.0  0.24017  0.69162  0.00759  1.0000
  C   C651      1.0  0.28730  0.88111  0.45578  1.0000
  H   H1024     1.0  0.24600  0.91970  0.45493  1.0000
  H   H1025     1.0  0.22849  0.75971  0.05286  1.0000
  H   H1026     1.0  0.34667  0.75515  0.34006  1.0000
  H   H1027     1.0  0.25461  0.76939  0.05404  1.0000
  C   C652      1.0  0.21384  0.82956  0.12487  1.0000
  C   C653      1.0  0.35733  0.84958  0.41808  1.0000
  C   C654      1.0  0.32792  0.86287  0.41437  1.0000
  H   H1028     1.0  0.38857  0.80313  0.23098  1.0000
  H   H1029     1.0  0.39294  0.80589  0.09394  1.0000
  N   N67       1.0  0.20512  0.79615  0.47194  1.0000
  N   N68       1.0  0.32762  0.76199  0.07885  1.0000
  C   C655      1.0  0.32723  0.75958  0.09749  1.0000
  C   C656      1.0  0.34470  0.76577  0.06877  1.0000
  H   H1030     1.0  0.33002  0.77102  0.10046  1.0000
  C   C657      1.0  0.32506  0.74605  0.07531  1.0000
  H   H1031     1.0  0.24443  0.83533  0.10471  1.0000
  C   C658      1.0  0.38922  0.75238  0.03770  1.0000
  H   H1032     1.0  0.33718  0.74820  0.10186  1.0000
  H   H1033     1.0  0.34590  0.76637  0.05478  1.0000
  H   H1034     1.0  0.34660  0.77837  0.07013  1.0000
  H   H1035     1.0  0.35574  0.75562  0.07297  1.0000
  C   C659      1.0  0.37670  0.80117  0.24031  1.0000
  H   H1036     1.0  0.20217  0.60578  0.97910  1.0000
  H   H1037     1.0  0.29407  0.75923  0.45557  1.0000
  C   C660      1.0  0.26549  0.69150  0.99080  1.0000
  H   H1038     1.0  0.24377  0.91699  0.43450  1.0000
  H   H1039     1.0  0.33577  0.73489  0.07845  1.0000
  C   C661      1.0  0.22511  0.64682  0.45549  1.0000
  H   H1040     1.0  0.20745  0.71918  0.03907  1.0000
  H   H1041     1.0  0.31590  0.86152  0.41094  1.0000
  C   C662      1.0  0.25812  0.68881  0.35148  1.0000
  C   C663      1.0  0.20275  0.79173  0.41385  1.0000
  H   H1042     1.0  0.29282  0.70456  0.07573  1.0000
  H   H1043     1.0  0.35421  0.85077  0.43186  1.0000
  S   S253      1.0  0.21472  0.81882  0.39066  1.0000
  S   S254      1.0  0.33834  0.75736  0.00020  1.0000
  H   H1044     1.0  0.37449  0.78336  0.30285  1.0000
  H   H1045     1.0  0.24513  0.70902  0.02625  1.0000
  H   H1046     1.0  0.32411  0.86493  0.42790  1.0000
  C   C664      1.0  0.27121  0.71100  0.01213  1.0000
  C   C665      1.0  0.38979  0.73127  0.06437  1.0000
  H   H1047     1.0  0.36450  0.83895  0.11828  1.0000
  H   H1048     1.0  0.23777  0.89135  0.46923  1.0000
  H   H1049     1.0  0.19680  0.86592  0.46312  1.0000
  H   H1050     1.0  0.38930  0.75961  0.28723  1.0000
  H   H1051     1.0  0.37736  0.83555  0.27955  1.0000
  H   H1052     1.0  0.24415  0.82463  0.08819  1.0000
  Fe  Fe124     1.0  0.23945  0.66617  0.98418  1.0000
  C   C666      1.0  0.19597  0.68291  0.42454  1.0000
  H   H1053     1.0  0.36784  0.75000  0.35867  1.0000
  H   H1054     1.0  0.36074  0.71273  0.36819  1.0000
  H   H1055     1.0  0.20677  0.78161  0.45279  1.0000
  H   H1056     1.0  0.21211  0.89967  0.99832  1.0000
  S   S255      1.0  0.20341  0.84039  0.98089  1.0000
  H   H1057     1.0  0.19992  0.69998  0.02438  1.0000
  H   H1058     1.0  0.34448  0.73241  0.36685  1.0000
  C   C667      1.0  0.39355  0.77751  0.31887  1.0000
  H   H1059     1.0  0.22646  0.78850  0.45178  1.0000
  H   H1060     1.0  0.19998  0.67906  0.45702  1.0000
  H   H1061     1.0  0.21880  0.81708  0.13318  1.0000
  H   H1062     1.0  0.39253  0.82874  0.08754  1.0000
  Fe  Fe125     1.0  0.39352  0.70904  0.25560  1.0000
  C   C668      1.0  0.20737  0.90852  0.98693  1.0000
  C   C669      1.0  0.27850  0.89424  0.46488  1.0000
  H   H1063     1.0  0.21309  0.72521  0.00708  1.0000
  H   H1064     1.0  0.39165  0.81801  0.10981  1.0000
  C   C670      1.0  0.22559  0.79943  0.98405  1.0000
  H   H1065     1.0  0.21823  0.88686  0.46657  1.0000
  H   H1066     1.0  0.20041  0.70786  0.43814  1.0000
  H   H1067     1.0  0.21827  0.80215  0.11038  1.0000
  Fe  Fe126     1.0  0.19658  0.72356  0.12750  1.0000
  H   H1068     1.0  0.39367  0.73051  0.19253  1.0000
  H   H1069     1.0  0.20858  0.82249  0.46378  1.0000
  H   H1070     1.0  0.38694  0.72479  0.32409  1.0000
  H   H1071     1.0  0.22680  0.80730  0.47129  1.0000
  H   H1072     1.0  0.31288  0.69044  0.94385  1.0000
  H   H1073     1.0  0.31855  0.57819  0.64136  1.0000
  C   C671      1.0  0.28245  0.49817  0.87564  1.0000
  C   C672      1.0  0.20708  0.66085  0.66562  1.0000
  H   H1074     1.0  0.30173  0.97236  0.56757  1.0000
  H   H1075     1.0  0.27958  0.92027  0.77153  1.0000
  H   H1076     1.0  0.21057  0.83333  0.90598  1.0000
  C   C673      1.0  0.22442  0.66154  0.54537  1.0000
  H   H1077     1.0  0.33620  0.58420  0.67686  1.0000
  C   C674      1.0  0.27469  0.93688  0.80686  1.0000
  H   H1078     1.0  0.22963  0.58703  0.63607  1.0000
  H   H1079     1.0  0.31531  0.58799  0.69118  1.0000
  H   H1080     1.0  0.22050  0.67360  0.92218  1.0000
  Fe  Fe127     1.0  0.21666  0.96325  0.84774  1.0000
  S   S256      1.0  0.23380  0.94314  0.83353  1.0000
  H   H1081     1.0  0.25633  0.56152  0.84350  1.0000
  Fe  Fe128     1.0  0.26591  0.57728  0.71451  1.0000
  S   S257      1.0  0.24138  0.57693  0.73495  1.0000
  S   S258      1.0  0.29348  0.56593  0.71789  1.0000
  Fe  Fe129     1.0  0.24658  0.59092  0.68503  1.0000
  S   S259      1.0  0.22026  0.59123  0.70248  1.0000
  S   S260      1.0  0.24891  0.59928  0.65635  1.0000
  Fe  Fe130     1.0  0.23117  0.60248  0.71880  1.0000
  C   C675      1.0  0.25362  0.49276  0.88993  1.0000
  Fe  Fe131     1.0  0.23254  0.56575  0.71702  1.0000
  S   S261      1.0  0.22197  0.54133  0.72612  1.0000
  S   S262      1.0  0.25669  0.60406  0.70023  1.0000
  S   S263      1.0  0.25777  0.56426  0.69772  1.0000
  Fe  Fe132     1.0  0.24781  0.69161  0.61581  1.0000
  S   S264      1.0  0.21915  0.69407  0.62714  1.0000
  S   S265      1.0  0.26584  0.67424  0.63280  1.0000
  Fe  Fe133     1.0  0.24228  0.71271  0.58030  1.0000
  S   S266      1.0  0.21320  0.71644  0.58884  1.0000
  S   S267      1.0  0.25070  0.72295  0.55168  1.0000
  Fe  Fe134     1.0  0.21727  0.72156  0.61298  1.0000
  H   H1082     1.0  0.26169  0.67455  0.52395  1.0000
  Fe  Fe135     1.0  0.21791  0.68873  0.60208  1.0000
  S   S268      1.0  0.22532  0.56000  0.90034  1.0000
  S   S269      1.0  0.24622  0.71994  0.60367  1.0000
  S   S270      1.0  0.24674  0.68429  0.59156  1.0000
  Fe  Fe136     1.0  0.22303  0.89972  0.77592  1.0000
  S   S271      1.0  0.24898  0.89920  0.78150  1.0000
  H   H1083     1.0  0.33593  0.78842  0.96179  1.0000
  Fe  Fe137     1.0  0.23940  0.88291  0.74483  1.0000
  S   S272      1.0  0.26666  0.88066  0.74815  1.0000
  S   S273      1.0  0.23566  0.87903  0.71982  1.0000
  Fe  Fe138     1.0  0.25538  0.87220  0.77657  1.0000
  S   S274      1.0  0.26939  0.84936  0.79367  1.0000
  Fe  Fe139     1.0  0.25773  0.90770  0.75286  1.0000
  S   S275      1.0  0.26684  0.93236  0.73767  1.0000
  S   S276      1.0  0.22874  0.87228  0.77268  1.0000
  S   S277      1.0  0.23105  0.91031  0.74790  1.0000
  H   H1084     1.0  0.23687  0.50891  0.95674  1.0000
  H   H1085     1.0  0.24797  0.49130  0.75725  1.0000
  S   S278      1.0  0.20985  0.54861  0.61218  1.0000
  Fe  Fe140     1.0  0.26580  0.76504  0.89975  1.0000
  S   S279      1.0  0.24451  0.75066  0.91479  1.0000
  C   C676      1.0  0.27052  0.83469  0.52361  1.0000
  Fe  Fe141     1.0  0.24113  0.79787  0.88716  1.0000
  S   S280      1.0  0.21799  0.78661  0.90239  1.0000
  S   S281      1.0  0.23332  0.82505  0.87212  1.0000
  Fe  Fe142     1.0  0.23263  0.77552  0.92365  1.0000
  S   S282      1.0  0.21830  0.77426  0.95108  1.0000
  Fe  Fe143     1.0  0.23150  0.76270  0.89212  1.0000
  S   S283      1.0  0.21029  0.75555  0.88357  1.0000
  S   S284      1.0  0.25449  0.78947  0.90984  1.0000
  S   S285      1.0  0.25415  0.77451  0.87570  1.0000
  H   H1086     1.0  0.26732  0.97441  0.60701  1.0000
  H   H1087     1.0  0.26708  0.69085  0.53177  1.0000
  C   C677      1.0  0.26090  0.52314  0.96283  1.0000
  C   C678      1.0  0.28189  0.92073  0.78422  1.0000
  C   C679      1.0  0.30382  0.97961  0.57647  1.0000
  C   C680      1.0  0.29438  0.81171  0.96866  1.0000
  H   H1088     1.0  0.23345  0.66290  0.88645  1.0000
  H   H1089     1.0  0.20729  0.81381  0.48650  1.0000
  H   H1090     1.0  0.24529  0.51961  0.77754  1.0000
  H   H1091     1.0  0.23414  0.64465  0.69421  1.0000
  S   S286      1.0  0.26302  0.51955  0.89761  1.0000
  H   H1092     1.0  0.27121  0.84737  0.48343  1.0000
  S   S287      1.0  0.20108  0.57810  0.86130  1.0000
  C   C681      1.0  0.27720  0.69432  0.92719  1.0000
  H   H1093     1.0  0.27541  0.71692  0.51113  1.0000
  S   S288      1.0  0.29278  0.52595  0.79500  1.0000
  H   H1094     1.0  0.24557  0.53864  0.74908  1.0000
  C   C682      1.0  0.22372  0.76073  0.57634  1.0000
  C   C683      1.0  0.19937  0.56448  0.59676  1.0000
  Fe  Fe144     1.0  0.29535  0.79242  0.49638  1.0000
  S   S289      1.0  0.28988  0.78583  0.52549  1.0000
  H   H1095     1.0  0.23343  0.76925  0.84926  1.0000
  S   S290      1.0  0.23367  0.89240  0.54009  1.0000
  H   H1096     1.0  0.22980  0.94247  0.55015  1.0000
  S   S291      1.0  0.27406  0.80958  0.48327  1.0000
  H   H1097     1.0  0.24818  0.95427  0.79171  1.0000
  H   H1098     1.0  0.19623  0.78601  0.58293  1.0000
  C   C684      1.0  0.29617  0.82717  0.53606  1.0000
  H   H1099     1.0  0.19711  0.86417  0.69107  1.0000
  H   H1100     1.0  0.20543  0.76947  0.48407  1.0000
  C   C685      1.0  0.21403  0.81491  0.52549  1.0000
  H   H1101     1.0  0.30465  0.97578  0.66778  1.0000
  Fe  Fe145     1.0  0.22099  0.96768  0.65634  1.0000
  H   H1102     1.0  0.27447  0.71014  0.95256  1.0000
  H   H1103     1.0  0.28182  0.51998  0.83084  1.0000
  C   C686      1.0  0.20651  0.58117  0.94932  1.0000
  H   H1104     1.0  0.27659  0.72602  0.93282  1.0000
  C   C687      1.0  0.24732  0.70645  0.50825  1.0000
  H   H1105     1.0  0.21097  0.51708  0.71342  1.0000
  C   C688      1.0  0.27628  0.53135  0.83707  1.0000
  H   H1106     1.0  0.20420  0.49917  0.84677  1.0000
  H   H1107     1.0  0.21412  0.56883  0.52891  1.0000
  C   C689      1.0  0.20231  0.55269  0.84416  1.0000
  H   H1108     1.0  0.24311  0.79591  0.81597  1.0000
  H   H1109     1.0  0.25887  0.49838  0.77972  1.0000
  H   H1110     1.0  0.21407  0.63820  0.55389  1.0000
  C   C690      1.0  0.21008  0.73500  0.88066  1.0000
  C   C691      1.0  0.22537  0.72255  0.87777  1.0000
  C   C692      1.0  0.22458  0.70682  0.87415  1.0000
  C   C693      1.0  0.20847  0.70344  0.87380  1.0000
  H   H1111     1.0  0.23526  0.94030  0.69671  1.0000
  S   S292      1.0  0.29415  0.75263  0.89927  1.0000
  H   H1112     1.0  0.23781  0.72524  0.87779  1.0000
  H   H1113     1.0  0.23644  0.69737  0.87144  1.0000
  C   C694      1.0  0.28381  0.71442  0.94054  1.0000
  S   S293      1.0  0.19942  0.52380  0.66017  1.0000
  C   C695      1.0  0.32377  0.74663  0.94234  1.0000
  C   C696      1.0  0.29595  0.75354  0.93282  1.0000
  H   H1114     1.0  0.30371  0.61135  0.66872  1.0000
  H   H1115     1.0  0.28183  0.75685  0.93566  1.0000
  C   C697      1.0  0.22514  0.60095  0.95939  1.0000
  H   H1116     1.0  0.24152  0.49556  0.89910  1.0000
  H   H1117     1.0  0.29451  0.71749  0.90571  1.0000
  C   C698      1.0  0.21262  0.93470  0.64781  1.0000
  C   C699      1.0  0.20583  0.92167  0.80463  1.0000
  N   N69       1.0  0.21553  0.66141  0.67949  1.0000
  H   H1118     1.0  0.29793  0.79787  0.94087  1.0000
  H   H1119     1.0  0.23839  0.69724  0.51103  1.0000
  H   H1120     1.0  0.21609  0.94671  0.64038  1.0000
  C   C700      1.0  0.21758  0.58354  0.63484  1.0000
  C   C701      1.0  0.25919  0.84274  0.81544  1.0000
  C   C702      1.0  0.24309  0.85199  0.82274  1.0000
  C   C703      1.0  0.23537  0.84649  0.84016  1.0000
  C   C704      1.0  0.24357  0.83159  0.85036  1.0000
  C   C705      1.0  0.25961  0.82227  0.84306  1.0000
  C   C706      1.0  0.26740  0.82786  0.82567  1.0000
  H   H1121     1.0  0.23668  0.86349  0.81499  1.0000
  H   H1122     1.0  0.22300  0.85382  0.84573  1.0000
  N   N70       1.0  0.27694  0.83284  0.53951  1.0000
  H   H1123     1.0  0.27990  0.82069  0.82013  1.0000
  C   C707      1.0  0.21835  0.86960  0.71982  1.0000
  C   C708      1.0  0.21465  0.86977  0.70395  1.0000
  H   H1124     1.0  0.20007  0.58852  0.53377  1.0000
  H   H1125     1.0  0.23535  0.81451  0.82573  1.0000
  H   H1126     1.0  0.27634  0.91013  0.79384  1.0000
  H   H1127     1.0  0.21318  0.59528  0.66384  1.0000
  H   H1128     1.0  0.22298  0.87473  0.69202  1.0000
  H   H1129     1.0  0.28194  0.95251  0.76353  1.0000
  H   H1130     1.0  0.30921  0.69697  0.90662  1.0000
  H   H1131     1.0  0.21064  0.86242  0.74750  1.0000
  C   C709      1.0  0.28655  0.93955  0.73422  1.0000
  C   C710      1.0  0.28698  0.95665  0.72555  1.0000
  C   C711      1.0  0.30154  0.96379  0.72393  1.0000
  C   C712      1.0  0.31575  0.95401  0.73120  1.0000
  C   C713      1.0  0.31569  0.93661  0.73920  1.0000
  C   C714      1.0  0.30120  0.92931  0.74055  1.0000
  C   C715      1.0  0.20338  0.78737  0.56922  1.0000
  H   H1132     1.0  0.32685  0.92882  0.74448  1.0000
  H   H1133     1.0  0.30132  0.91591  0.74668  1.0000
  H   H1134     1.0  0.24350  0.55574  0.96639  1.0000
  C   C716      1.0  0.22692  0.67574  0.55027  1.0000
  C   C717      1.0  0.22046  0.67805  0.56721  1.0000
  H   H1135     1.0  0.23326  0.68534  0.54094  1.0000
  H   H1136     1.0  0.22193  0.68943  0.57058  1.0000
  C   C718      1.0  0.26137  0.74055  0.54503  1.0000
  C   C719      1.0  0.26812  0.74599  0.55647  1.0000
  C   C720      1.0  0.27664  0.76010  0.55055  1.0000
  C   C721      1.0  0.27830  0.76884  0.53324  1.0000
  C   C722      1.0  0.27083  0.76382  0.52208  1.0000
  C   C723      1.0  0.26266  0.74958  0.52787  1.0000
  H   H1137     1.0  0.26719  0.73907  0.56974  1.0000
  H   H1138     1.0  0.28232  0.76394  0.55928  1.0000
  H   H1139     1.0  0.27133  0.77091  0.50895  1.0000
  H   H1140     1.0  0.25715  0.74571  0.51903  1.0000
  C   C724      1.0  0.25474  0.61961  0.64877  1.0000
  C   C725      1.0  0.24657  0.63187  0.63638  1.0000
  C   C726      1.0  0.25011  0.64860  0.63129  1.0000
  C   C727      1.0  0.26215  0.65302  0.63824  1.0000
  C   C728      1.0  0.27070  0.64058  0.65028  1.0000
  C   C729      1.0  0.26690  0.62395  0.65561  1.0000
  H   H1141     1.0  0.23717  0.62862  0.63099  1.0000
  H   H1142     1.0  0.24334  0.65807  0.62208  1.0000
  H   H1143     1.0  0.27993  0.64398  0.65577  1.0000
  H   H1144     1.0  0.27322  0.61456  0.66515  1.0000
  H   H1145     1.0  0.27434  0.72037  0.48876  1.0000
  Fe  Fe146     1.0  0.29739  0.49697  0.79999  1.0000
  H   H1146     1.0  0.21104  0.81451  0.85151  1.0000
  C   C730      1.0  0.25815  0.51189  0.77232  1.0000
  C   C731      1.0  0.21379  0.80015  0.85351  1.0000
  S   S294      1.0  0.22767  0.97608  0.86249  1.0000
  C   C732      1.0  0.20162  0.59144  0.66197  1.0000
  H   H1147     1.0  0.27302  0.82205  0.51967  1.0000
  H   H1148     1.0  0.30148  0.82540  0.54783  1.0000
  C   C733      1.0  0.20206  0.66467  0.69499  1.0000
  H   H1149     1.0  0.29626  0.91770  0.78348  1.0000
  C   C734      1.0  0.25015  0.55004  0.84893  1.0000
  H   H1150     1.0  0.34660  0.74141  0.92259  1.0000
  H   H1151     1.0  0.20194  0.52649  0.77705  1.0000
  C   C735      1.0  0.29404  0.55523  0.73931  1.0000
  C   C736      1.0  0.28249  0.56209  0.75295  1.0000
  C   C737      1.0  0.28242  0.55310  0.77003  1.0000
  C   C738      1.0  0.29356  0.53701  0.77349  1.0000
  C   C739      1.0  0.30499  0.53003  0.75985  1.0000
  C   C740      1.0  0.30541  0.53926  0.74276  1.0000
  H   H1152     1.0  0.27374  0.57444  0.75037  1.0000
  H   H1153     1.0  0.27362  0.55859  0.78054  1.0000
  H   H1154     1.0  0.31378  0.51771  0.76249  1.0000
  H   H1155     1.0  0.31436  0.53390  0.73222  1.0000
  C   C741      1.0  0.22171  0.93478  0.82386  1.0000
  C   C742      1.0  0.22602  0.91718  0.82352  1.0000
  C   C743      1.0  0.21798  0.91062  0.81402  1.0000
  H   H1156     1.0  0.20597  0.54353  0.85521  1.0000
  S   S295      1.0  0.27301  0.48656  0.81196  1.0000
  C   C744      1.0  0.20886  0.94574  0.81522  1.0000
  H   H1157     1.0  0.24437  0.71274  0.51957  1.0000
  H   H1158     1.0  0.28887  0.96166  0.60708  1.0000
  H   H1159     1.0  0.29272  0.50521  0.87375  1.0000
  C   C745      1.0  0.23180  0.51912  0.96459  1.0000
  Fe  Fe147     1.0  0.20886  0.64968  0.51958  1.0000
  H   H1160     1.0  0.20565  0.95939  0.81532  1.0000
  H   H1161     1.0  0.19896  0.49330  0.76757  1.0000
  C   C746      1.0  0.22852  0.78284  0.96245  1.0000
  C   C747      1.0  0.24596  0.78451  0.95637  1.0000
  C   C748      1.0  0.25306  0.79414  0.96381  1.0000
  C   C749      1.0  0.20475  0.91580  0.67530  1.0000
  H   H1162     1.0  0.32647  0.80373  0.97587  1.0000
  H   H1163     1.0  0.25386  0.77867  0.94574  1.0000
  H   H1164     1.0  0.26632  0.79598  0.95868  1.0000
  H   H1165     1.0  0.27967  0.48909  0.75376  1.0000
  H   H1166     1.0  0.26777  0.92693  0.81603  1.0000
  C   C750      1.0  0.20813  0.59954  0.96822  1.0000
  C   C751      1.0  0.27208  0.84968  0.54489  1.0000
  H   H1167     1.0  0.21615  0.63671  0.93804  1.0000
  C   C752      1.0  0.26676  0.50205  0.88739  1.0000
  H   H1168     1.0  0.24410  0.71662  0.49692  1.0000
  H   H1169     1.0  0.27709  0.84359  0.51266  1.0000
  H   H1170     1.0  0.20809  0.66478  0.70581  1.0000
  H   H1171     1.0  0.20944  0.85351  0.59199  1.0000
  C   C753      1.0  0.26443  0.87362  0.48745  1.0000
  H   H1172     1.0  0.31260  0.71314  0.91615  1.0000
  H   H1173     1.0  0.25762  0.85413  0.54787  1.0000
  C   C754      1.0  0.24689  0.50514  0.75065  1.0000
  N   N71       1.0  0.31421  0.58498  0.66608  1.0000
  C   C755      1.0  0.32496  0.57541  0.65262  1.0000
  C   C756      1.0  0.32305  0.58083  0.68084  1.0000
  C   C757      1.0  0.29700  0.57990  0.67205  1.0000
  H   H1174     1.0  0.21686  0.75886  0.59012  1.0000
  C   C758      1.0  0.21317  0.91143  0.94305  1.0000
  H   H1175     1.0  0.28010  0.50338  0.73301  1.0000
  S   S296      1.0  0.19722  0.66206  0.49625  1.0000
  S   S297      1.0  0.23793  0.61204  0.96590  1.0000
  H   H1176     1.0  0.29124  0.70405  0.49717  1.0000
  H   H1177     1.0  0.23942  0.84570  0.92767  1.0000
  H   H1178     1.0  0.19873  0.94012  0.96766  1.0000
  H   H1179     1.0  0.20847  0.67766  0.90534  1.0000
  H   H1180     1.0  0.29711  0.94797  0.77746  1.0000
  C   C759      1.0  0.28003  0.97030  0.59857  1.0000
  H   H1181     1.0  0.21718  0.68819  0.66991  1.0000
  H   H1182     1.0  0.20652  0.87436  0.57797  1.0000
  S   S298      1.0  0.21459  0.52364  0.92573  1.0000
  H   H1183     1.0  0.27695  0.84892  0.55669  1.0000
  H   H1184     1.0  0.30848  0.67548  0.93346  1.0000
  C   C760      1.0  0.27792  0.50293  0.74711  1.0000
  S   S299      1.0  0.21001  0.94708  0.67665  1.0000
  H   H1185     1.0  0.29833  0.56579  0.67752  1.0000
  H   H1186     1.0  0.26614  0.81087  0.85083  1.0000
  H   H1187     1.0  0.27746  0.85990  0.53452  1.0000
  H   H1188     1.0  0.20561  0.65273  0.89433  1.0000
  H   H1189     1.0  0.23190  0.77987  0.54459  1.0000
  C   C761      1.0  0.25863  0.53091  0.74442  1.0000
  S   S300      1.0  0.20794  0.92219  0.51685  1.0000
  H   H1190     1.0  0.23593  0.90868  0.83022  1.0000
  H   H1191     1.0  0.20244  0.64243  0.58407  1.0000
  H   H1192     1.0  0.26020  0.53213  0.73026  1.0000
  H   H1193     1.0  0.24737  0.92926  0.66944  1.0000
  H   H1194     1.0  0.19976  0.92190  0.71806  1.0000
  H   H1195     1.0  0.25557  0.87072  0.49964  1.0000
  S   S301      1.0  0.23636  0.97516  0.59060  1.0000
  H   H1196     1.0  0.27338  0.81831  0.56565  1.0000
  C   C762      1.0  0.22413  0.77512  0.84037  1.0000
  C   C763      1.0  0.21313  0.95326  0.59601  1.0000
  C   C764      1.0  0.30487  0.75130  0.91611  1.0000
  S   S302      1.0  0.21833  0.88186  0.51091  1.0000
  S   S303      1.0  0.33682  0.74407  0.95765  1.0000
  H   H1197     1.0  0.19721  0.59889  0.50324  1.0000
  C   C765      1.0  0.25576  0.91827  0.67664  1.0000
  H   H1198     1.0  0.22322  0.79520  0.86229  1.0000
  C   C766      1.0  0.31176  0.60376  0.65885  1.0000
  H   H1199     1.0  0.21255  0.77963  0.53757  1.0000
  H   H1200     1.0  0.22020  0.63386  0.68864  1.0000
  H   H1201     1.0  0.20840  0.95623  0.60875  1.0000
  H   H1202     1.0  0.24459  0.64153  0.89438  1.0000
  S   S304      1.0  0.19811  0.89503  0.63832  1.0000
  N   N72       1.0  0.22083  0.79420  0.83699  1.0000
  H   H1203     1.0  0.21188  0.77018  0.84663  1.0000
  C   C767      1.0  0.23736  0.80015  0.82849  1.0000
  C   C768      1.0  0.20804  0.80141  0.82560  1.0000
  C   C769      1.0  0.22566  0.67534  0.67347  1.0000
  H   H1204     1.0  0.20024  0.52481  0.75599  1.0000
  C   C770      1.0  0.30245  0.70727  0.91406  1.0000
  S   S305      1.0  0.33337  0.96336  0.73087  1.0000
  C   C771      1.0  0.20634  0.93764  0.92139  1.0000
  H   H1205     1.0  0.20013  0.66673  0.92648  1.0000
  H   H1206     1.0  0.28966  0.58315  0.66141  1.0000
  C   C772      1.0  0.21071  0.92270  0.63920  1.0000
  H   H1207     1.0  0.20970  0.55714  0.67429  1.0000
  C   C773      1.0  0.24443  0.53994  0.94124  1.0000
  H   H1208     1.0  0.24629  0.65951  0.90242  1.0000
  H   H1209     1.0  0.32448  0.60806  0.65417  1.0000
  H   H1210     1.0  0.21695  0.65839  0.65375  1.0000
  C   C774      1.0  0.30229  0.68608  0.94067  1.0000
  N   N73       1.0  0.26041  0.51270  0.75362  1.0000
  H   H1211     1.0  0.25794  0.53451  0.81228  1.0000
  H   H1212     1.0  0.22753  0.75990  0.54298  1.0000
  H   H1213     1.0  0.21015  0.59513  0.62733  1.0000
  H   H1214     1.0  0.24846  0.90749  0.68145  1.0000
  C   C775      1.0  0.20919  0.93143  0.66589  1.0000
  H   H1215     1.0  0.25102  0.51609  0.85905  1.0000
  H   H1216     1.0  0.30500  0.60740  0.64774  1.0000
  C   C776      1.0  0.22525  0.85101  0.93168  1.0000
  C   C777      1.0  0.22134  0.77259  0.54666  1.0000
  H   H1217     1.0  0.28879  0.58657  0.68250  1.0000
  C   C778      1.0  0.20471  0.86758  0.59175  1.0000
  C   C779      1.0  0.24887  0.52176  0.84573  1.0000
  H   H1218     1.0  0.28244  0.68395  0.91958  1.0000
  H   H1219     1.0  0.23929  0.54938  0.82099  1.0000
  C   C780      1.0  0.23580  0.54531  0.97028  1.0000
  S   S306      1.0  0.22994  0.65981  0.96340  1.0000
  H   H1220     1.0  0.21833  0.52542  0.96250  1.0000
  H   H1221     1.0  0.22204  0.57584  0.58494  1.0000
  C   C781      1.0  0.23262  0.59272  0.94528  1.0000
  H   H1222     1.0  0.28846  0.93359  0.80855  1.0000
  C   C782      1.0  0.21618  0.92787  0.93381  1.0000
  C   C783      1.0  0.22516  0.94533  0.56296  1.0000
  C   C784      1.0  0.32311  0.74679  0.91269  1.0000
  H   H1223     1.0  0.29409  0.71860  0.94442  1.0000
  H   H1224     1.0  0.22261  0.85108  0.94570  1.0000
  H   H1225     1.0  0.29434  0.68037  0.95307  1.0000
  H   H1226     1.0  0.31361  0.97092  0.58391  1.0000
  C   C785      1.0  0.25521  0.94213  0.78718  1.0000
  H   H1227     1.0  0.24577  0.59372  0.93835  1.0000
  N   N74       1.0  0.31079  0.80393  0.95804  1.0000
  H   H1228     1.0  0.30176  0.97686  0.71695  1.0000
  H   H1229     1.0  0.25437  0.51135  0.83816  1.0000
  H   H1230     1.0  0.31937  0.78487  0.94203  1.0000
  H   H1231     1.0  0.26038  0.55520  0.81394  1.0000
  S   S307      1.0  0.20279  0.67007  0.60024  1.0000
  C   C786      1.0  0.24261  0.80218  0.97718  1.0000
  S   S308      1.0  0.22299  0.84638  0.55189  1.0000
  H   H1232     1.0  0.22633  0.93297  0.93609  1.0000
  C   C787      1.0  0.19902  0.57041  0.84382  1.0000
  C   C788      1.0  0.21251  0.83544  0.54298  1.0000
  C   C789      1.0  0.20172  0.52922  0.71172  1.0000
  N   N75       1.0  0.21157  0.77032  0.56473  1.0000
  C   C790      1.0  0.27335  0.86040  0.47835  1.0000
  N   N76       1.0  0.21436  0.84083  0.92799  1.0000
  H   H1233     1.0  0.23454  0.62641  0.92426  1.0000
  N   N77       1.0  0.25720  0.53688  0.83806  1.0000
  H   H1234     1.0  0.20355  0.74785  0.56274  1.0000
  H   H1235     1.0  0.28285  0.68230  0.48677  1.0000
  S   S309      1.0  0.31689  0.80522  0.47858  1.0000
  H   H1236     1.0  0.23650  0.82105  0.53035  1.0000
  S   S310      1.0  0.25511  0.90772  0.49088  1.0000
  H   H1237     1.0  0.28453  0.81901  0.96072  1.0000
  S   S311      1.0  0.28046  0.97858  0.64624  1.0000
  H   H1238     1.0  0.26856  0.53700  0.74641  1.0000
  H   H1239     1.0  0.23628  0.64414  0.93244  1.0000
  N   N78       1.0  0.26002  0.92324  0.69104  1.0000
  N   N79       1.0  0.26581  0.69749  0.50481  1.0000
  H   H1240     1.0  0.25253  0.54479  0.86231  1.0000
  S   S312      1.0  0.21922  0.53002  0.88353  1.0000
  Fe  Fe148     1.0  0.20765  0.55775  0.88421  1.0000
  S   S313      1.0  0.21034  0.62229  0.51803  1.0000
  S   S314      1.0  0.23016  0.66021  0.52360  1.0000
  H   H1241     1.0  0.25452  0.82350  0.55609  1.0000
  H   H1242     1.0  0.22970  0.77010  0.82825  1.0000
  N   N80       1.0  0.20696  0.57756  0.65197  1.0000
  H   H1243     1.0  0.23600  0.67320  0.66183  1.0000
  H   H1244     1.0  0.25273  0.54985  0.93711  1.0000
  C   C791      1.0  0.21043  0.78066  0.48491  1.0000
  C   C792      1.0  0.23723  0.65390  0.89824  1.0000
  H   H1245     1.0  0.32099  0.82719  0.95062  1.0000
  H   H1246     1.0  0.30888  0.82476  0.93601  1.0000
  H   H1247     1.0  0.24307  0.96229  0.55921  1.0000
  H   H1248     1.0  0.19550  0.97896  0.69080  1.0000
  H   H1249     1.0  0.22925  0.56531  0.66359  1.0000
  H   H1250     1.0  0.32708  0.56120  0.65771  1.0000
  H   H1251     1.0  0.20542  0.78308  0.49827  1.0000
  H   H1252     1.0  0.30260  0.83670  0.52571  1.0000
  H   H1253     1.0  0.19938  0.89180  0.67386  1.0000
  C   C793      1.0  0.28294  0.95113  0.77715  1.0000
  H   H1254     1.0  0.23245  0.83529  0.90478  1.0000
  H   H1255     1.0  0.23230  0.67609  0.68358  1.0000
  H   H1256     1.0  0.20533  0.81580  0.82275  1.0000
  C   C794      1.0  0.22240  0.82355  0.53277  1.0000
  C   C795      1.0  0.26949  0.93767  0.68425  1.0000
  C   C796      1.0  0.20499  0.90766  0.64867  1.0000
  H   H1257     1.0  0.27734  0.96400  0.78063  1.0000
  C   C797      1.0  0.27719  0.71027  0.50028  1.0000
  H   H1258     1.0  0.24818  0.93175  0.79497  1.0000
  H   H1259     1.0  0.26862  0.70502  0.91988  1.0000
  C   C798      1.0  0.19896  0.58955  0.96332  1.0000
  H   H1260     1.0  0.29848  0.75215  0.95897  1.0000
  C   C799      1.0  0.26696  0.89059  0.48065  1.0000
  S   S315      1.0  0.20967  0.95873  0.91085  1.0000
  C   C800      1.0  0.20997  0.64399  0.90596  1.0000
  C   C801      1.0  0.22742  0.63915  0.92734  1.0000
  H   H1261     1.0  0.21292  0.79714  0.81302  1.0000
  H   H1262     1.0  0.23757  0.64177  0.67250  1.0000
  H   H1263     1.0  0.28351  0.90371  0.69161  1.0000
  C   C802      1.0  0.22739  0.64469  0.68389  1.0000
  Fe  Fe149     1.0  0.23227  0.90183  0.51209  1.0000
  H   H1264     1.0  0.23455  0.52526  0.84630  1.0000
  C   C803      1.0  0.20037  0.58924  0.57246  1.0000
  C   C804      1.0  0.26902  0.81985  0.55339  1.0000
  C   C805      1.0  0.20922  0.65174  0.57465  1.0000
  C   C806      1.0  0.27106  0.90826  0.70029  1.0000
  C   C807      1.0  0.21148  0.93805  0.57426  1.0000
  C   C808      1.0  0.23265  0.95661  0.56814  1.0000
  C   C809      1.0  0.22325  0.58322  0.94003  1.0000
  C   C810      1.0  0.25352  0.54433  0.82056  1.0000
  C   C811      1.0  0.21810  0.82281  0.93760  1.0000
  H   H1265     1.0  0.26775  0.91397  0.66727  1.0000
  N   N81       1.0  0.22173  0.65128  0.91208  1.0000
  C   C812      1.0  0.30540  0.75089  0.94603  1.0000
  Fe  Fe150     1.0  0.23128  0.98075  0.61770  1.0000
  H   H1266     1.0  0.23582  0.55467  0.84992  1.0000
  H   H1267     1.0  0.20268  0.91294  0.68923  1.0000
  H   H1268     1.0  0.27750  0.96261  0.59032  1.0000
  H   H1269     1.0  0.27278  0.94173  0.69490  1.0000
  H   H1270     1.0  0.27258  0.80695  0.54982  1.0000
  H   H1271     1.0  0.28336  0.54181  0.82947  1.0000
  H   H1272     1.0  0.27950  0.52755  0.85013  1.0000
  S   S316      1.0  0.24533  0.96116  0.63697  1.0000
  N   N82       1.0  0.27370  0.93773  0.78884  1.0000
  N   N83       1.0  0.24325  0.53188  0.95975  1.0000
  H   H1273     1.0  0.20079  0.49583  0.78832  1.0000
  H   H1274     1.0  0.20267  0.53297  0.83075  1.0000
  H   H1275     1.0  0.26876  0.68896  0.93946  1.0000
  H   H1276     1.0  0.21648  0.63125  0.90252  1.0000
  H   H1277     1.0  0.27590  0.96456  0.72024  1.0000
  H   H1278     1.0  0.23439  0.76763  0.57497  1.0000
  H   H1279     1.0  0.25401  0.94373  0.77354  1.0000
  C   C813      1.0  0.32346  0.79482  0.96921  1.0000
  H   H1280     1.0  0.20153  0.79554  0.86053  1.0000
  H   H1281     1.0  0.22136  0.90373  0.95195  1.0000
  C   C814      1.0  0.21740  0.56221  0.66141  1.0000
  H   H1282     1.0  0.26848  0.51702  0.77505  1.0000
  H   H1283     1.0  0.24729  0.79502  0.83678  1.0000
  S   S317      1.0  0.20748  0.68389  0.86910  1.0000
  Fe  Fe151     1.0  0.21724  0.87434  0.53940  1.0000
  Fe  Fe152     1.0  0.20457  0.97032  0.88369  1.0000
  Fe  Fe153     1.0  0.20438  0.55246  0.92289  1.0000
  H   H1284     1.0  0.33804  0.57896  0.64774  1.0000
  S   S318      1.0  0.21523  0.62674  0.72729  1.0000
  H   H1285     1.0  0.22187  0.55157  0.65407  1.0000
  Fe  Fe154     1.0  0.19830  0.52440  0.90667  1.0000
  H   H1286     1.0  0.23598  0.91828  0.70809  1.0000
  C   C815      1.0  0.20031  0.54671  0.83030  1.0000
  H   H1287     1.0  0.26092  0.67842  0.49361  1.0000
  C   C816      1.0  0.21236  0.66804  0.91675  1.0000
  H   H1288     1.0  0.30130  0.78122  0.95949  1.0000
  H   H1289     1.0  0.24803  0.50590  0.73661  1.0000
  C   C817      1.0  0.19787  0.76052  0.56666  1.0000
  H   H1290     1.0  0.23354  0.51219  0.75552  1.0000
  C   C818      1.0  0.22670  0.96065  0.58470  1.0000
  H   H1291     1.0  0.22215  0.55156  0.96888  1.0000
  H   H1292     1.0  0.32466  0.56684  0.68696  1.0000
  C   C819      1.0  0.19579  0.81751  0.52914  1.0000
  H   H1293     1.0  0.19805  0.67330  0.66192  1.0000
  C   C820      1.0  0.20856  0.57645  0.58474  1.0000
  H   H1294     1.0  0.33014  0.74500  0.89988  1.0000
  H   H1295     1.0  0.30023  0.81459  0.53175  1.0000
  C   C821      1.0  0.19981  0.90492  0.94044  1.0000
  Fe  Fe155     1.0  0.23452  0.53141  0.90211  1.0000
  H   H1296     1.0  0.26157  0.94921  0.67715  1.0000
  H   H1297     1.0  0.21327  0.79537  0.56736  1.0000
  H   H1298     1.0  0.24635  0.93216  0.71435  1.0000
  H   H1299     1.0  0.26425  0.89718  0.70569  1.0000
  C   C822      1.0  0.26887  0.68860  0.49032  1.0000
  H   H1300     1.0  0.33055  0.81212  0.93647  1.0000
  H   H1301     1.0  0.22161  0.89703  0.81354  1.0000
  C   C823      1.0  0.20767  0.86288  0.73519  1.0000
  H   H1302     1.0  0.21288  0.92540  0.62526  1.0000
  C   C824      1.0  0.21576  0.64940  0.55759  1.0000
  C   C825      1.0  0.20560  0.94207  0.59079  1.0000
  H   H1303     1.0  0.22175  0.80585  0.51749  1.0000
  Fe  Fe156     1.0  0.20822  0.91124  0.54512  1.0000
  C   C826      1.0  0.21156  0.66614  0.57941  1.0000
  C   C827      1.0  0.33246  0.74468  0.92560  1.0000
  H   H1304     1.0  0.22914  0.57723  0.92901  1.0000
  H   H1305     1.0  0.28195  0.93402  0.67514  1.0000
  H   H1306     1.0  0.23130  0.54643  0.93847  1.0000
  H   H1307     1.0  0.25621  0.84000  0.52538  1.0000
  H   H1308     1.0  0.23209  0.81664  0.93395  1.0000
  H   H1309     1.0  0.22996  0.74772  0.57347  1.0000
  N   N84       1.0  0.29144  0.70051  0.93062  1.0000
  C   C828      1.0  0.24366  0.92873  0.70310  1.0000
  H   H1310     1.0  0.27444  0.91154  0.71131  1.0000
  H   H1311     1.0  0.28843  0.50826  0.74921  1.0000
  H   H1312     1.0  0.21018  0.81467  0.93512  1.0000
  H   H1313     1.0  0.26839  0.94939  0.81096  1.0000
  S   S319      1.0  0.20079  0.92436  0.56841  1.0000
  C   C829      1.0  0.30719  0.79148  0.94969  1.0000
  H   H1314     1.0  0.28370  0.67793  0.51839  1.0000
  H   H1315     1.0  0.25015  0.53021  0.93287  1.0000
  H   H1316     1.0  0.19801  0.64210  0.91600  1.0000
  C   C830      1.0  0.28469  0.48559  0.86587  1.0000
  H   H1317     1.0  0.21581  0.85435  0.90151  1.0000
  S   S320      1.0  0.19909  0.74404  0.62322  1.0000
  H   H1318     1.0  0.20753  0.59842  0.56331  1.0000
  C   C831      1.0  0.19993  0.86394  0.70337  1.0000
  H   H1319     1.0  0.22252  0.86477  0.92484  1.0000
  H   H1320     1.0  0.22170  0.57336  0.62694  1.0000
  C   C832      1.0  0.21844  0.84099  0.90928  1.0000
  C   C833      1.0  0.20091  0.93916  0.80554  1.0000
  C   C834      1.0  0.26975  0.68465  0.52041  1.0000
  C   C835      1.0  0.31814  0.81762  0.94467  1.0000
  H   H1321     1.0  0.20015  0.59641  0.74080  1.0000
  H   H1322     1.0  0.21333  0.87188  0.59783  1.0000
  H   H1323     1.0  0.21513  0.82212  0.95178  1.0000
  H   H1324     1.0  0.20359  0.50978  0.87262  1.0000
  C   C836      1.0  0.20393  0.54334  0.71710  1.0000
  H   H1325     1.0  0.26053  0.51675  0.97664  1.0000
  S   S321      1.0  0.30048  0.77136  0.48172  1.0000
  C   C837      1.0  0.20274  0.90390  0.66665  1.0000
  H   H1326     1.0  0.26693  0.51305  0.95492  1.0000
  H   H1327     1.0  0.26978  0.53249  0.95937  1.0000
  H   H1328     1.0  0.22492  0.77679  0.48308  1.0000
  H   H1329     1.0  0.20117  0.89615  0.74143  1.0000
  S   S322      1.0  0.19838  0.91382  0.79040  1.0000
  Fe  Fe157     1.0  0.19639  0.63494  0.49608  1.0000
  H   H1330     1.0  0.29159  0.69377  0.97673  1.0000
  H   H1331     1.0  0.29662  0.82071  0.97572  1.0000
  H   H1332     1.0  0.21148  0.57944  0.49805  1.0000
  H   H1333     1.0  0.22180  0.91782  0.47996  1.0000
  S   S323      1.0  0.26247  0.67955  0.97686  1.0000
  H   H1334     1.0  0.19944  0.65041  0.66968  1.0000
  S   S324      1.0  0.19531  0.56701  0.94499  1.0000
  C   C838      1.0  0.20021  0.57525  0.53252  1.0000
  C   C839      1.0  0.19546  0.49512  0.85877  1.0000
  H   H1335     1.0  0.19620  0.64850  0.96194  1.0000
  C   C840      1.0  0.19569  0.84849  0.93335  1.0000
  H   H1336     1.0  0.20443  0.55090  0.51431  1.0000
  H   H1337     1.0  0.20199  0.91273  0.47851  1.0000
  H   H1338     1.0  0.19522  0.93633  0.59961  1.0000
  C   C841      1.0  0.19758  0.58533  0.50266  1.0000
  H   H1339     1.0  0.26534  0.69778  0.47854  1.0000
  C   C842      1.0  0.21862  0.78959  0.97679  1.0000
  H   H1340     1.0  0.19538  0.79721  0.83167  1.0000
  Fe  Fe158     1.0  0.20236  0.86872  0.97758  1.0000
  C   C843      1.0  0.19511  0.50123  0.87347  1.0000
  H   H1341     1.0  0.19470  0.56831  0.54562  1.0000
  H   H1342     1.0  0.19478  0.56246  0.64232  1.0000
  S   S325      1.0  0.19491  0.95581  0.86938  1.0000
  Fe  Fe159     1.0  0.20319  0.66865  0.97810  1.0000
  H   H1343     1.0  0.21880  0.91352  0.97816  1.0000
  C   C844      1.0  0.56156  0.00393  0.28663  1.0000
  H   H1344     1.0  0.58752  0.01549  0.26183  1.0000
  H   H1345     1.0  0.56100  0.00957  0.24406  1.0000
  H   H1346     1.0  0.57395  0.03206  0.24941  1.0000
  H   H1347     1.0  0.54139  0.03519  0.27841  1.0000
  N   N85       1.0  0.56030  0.01416  0.26909  1.0000
  C   C845      1.0  0.54315  0.02612  0.26969  1.0000
  H   H1348     1.0  0.54178  0.03402  0.25664  1.0000
  H   H1349     1.0  0.57498  0.99338  0.25652  1.0000
  C   C846      1.0  0.57441  0.02414  0.26263  1.0000
  H   H1350     1.0  0.53225  0.01894  0.27450  1.0000
  H   H1351     1.0  0.56008  0.01233  0.29591  1.0000
  C   C847      1.0  0.56209  0.00239  0.25740  1.0000
  H   H1352     1.0  0.55199  0.99422  0.26211  1.0000
  H   H1353     1.0  0.57376  0.03301  0.27121  1.0000
  H   H1354     1.0  0.55145  0.99580  0.29172  1.0000
  H   H1355     1.0  0.57441  0.99491  0.28668  1.0000
  Fe  Fe160     1.0  0.52963  0.15447  0.81169  1.0000
  S   S326      1.0  0.54905  0.13398  0.79907  1.0000
  S   S327      1.0  0.51361  0.15115  0.83869  1.0000
  Fe  Fe161     1.0  0.53722  0.18370  0.78095  1.0000
  Fe  Fe162     1.0  0.53747  0.14813  0.77559  1.0000
  S   S328      1.0  0.52930  0.13977  0.75476  1.0000
  S   S329      1.0  0.51697  0.16733  0.78903  1.0000
  S   S330      1.0  0.54768  0.17294  0.80493  1.0000
  Fe  Fe163     1.0  0.54212  0.29320  0.68561  1.0000
  S   S331      1.0  0.52708  0.28904  0.66800  1.0000
  Fe  Fe164     1.0  0.54111  0.29890  0.72124  1.0000
  S   S332      1.0  0.52637  0.30093  0.74824  1.0000
  S   S333      1.0  0.54083  0.27577  0.71158  1.0000
  H   H1356     1.0  0.55003  0.16195  0.72932  1.0000
  S   S334      1.0  0.44078  0.28053  0.72911  1.0000
  H   H1357     1.0  0.41072  0.27249  0.75464  1.0000
  H   H1358     1.0  0.41196  0.27861  0.84644  1.0000
  H   H1359     1.0  0.40770  0.37191  0.86217  1.0000
  Fe  Fe165     1.0  0.40726  0.36097  0.81274  1.0000
  S   S335      1.0  0.40158  0.33433  0.82186  1.0000
  S   S336      1.0  0.40947  0.24988  0.73306  1.0000
  Fe  Fe166     1.0  0.43811  0.34958  0.78525  1.0000
  S   S337      1.0  0.43525  0.32192  0.79258  1.0000
  S   S338      1.0  0.45803  0.35792  0.76178  1.0000
  Fe  Fe167     1.0  0.40674  0.33329  0.79407  1.0000
  N   N86       1.0  0.57778  0.20883  0.80376  1.0000
  Fe  Fe168     1.0  0.43043  0.32529  0.81977  1.0000
  S   S339      1.0  0.43668  0.30323  0.84155  1.0000
  S   S340      1.0  0.40970  0.36081  0.78477  1.0000
  S   S341      1.0  0.43605  0.35205  0.81259  1.0000
  Fe  Fe169     1.0  0.51450  0.25513  0.87626  1.0000
  S   S342      1.0  0.50070  0.24779  0.90380  1.0000
  S   S343      1.0  0.51166  0.28222  0.86044  1.0000
  Fe  Fe170     1.0  0.53025  0.21789  0.87369  1.0000
  S   S344      1.0  0.51687  0.20767  0.90054  1.0000
  S   S345      1.0  0.54915  0.20049  0.85724  1.0000
  Fe  Fe171     1.0  0.49344  0.22763  0.89378  1.0000
  S   S346      1.0  0.46518  0.22587  0.89645  1.0000
  Fe  Fe172     1.0  0.52590  0.22860  0.90762  1.0000
  S   S347      1.0  0.54470  0.21886  0.92656  1.0000
  S   S348      1.0  0.50641  0.23592  0.86625  1.0000
  S   S349      1.0  0.54005  0.23790  0.88064  1.0000
  C   C848      1.0  0.39620  0.05777  0.73632  1.0000
  H   H1360     1.0  0.56176  0.14029  0.70136  1.0000
  H   H1361     1.0  0.57815  0.20437  0.62057  1.0000
  H   H1362     1.0  0.44551  0.16993  0.65782  1.0000
  N   N87       1.0  0.57865  0.18008  0.89449  1.0000
  Fe  Fe173     1.0  0.45319  0.09859  0.74878  1.0000
  S   S350      1.0  0.44802  0.12337  0.72970  1.0000
  S   S351      1.0  0.47209  0.09417  0.76667  1.0000
  Fe  Fe174     1.0  0.42485  0.08409  0.74026  1.0000
  S   S352      1.0  0.41784  0.10794  0.72063  1.0000
  S   S353      1.0  0.40978  0.06220  0.74811  1.0000
  Fe  Fe175     1.0  0.44682  0.10651  0.71240  1.0000
  S   S354      1.0  0.45843  0.11217  0.68404  1.0000
  Fe  Fe176     1.0  0.41984  0.12222  0.73982  1.0000
  H   H1363     1.0  0.44271  0.31071  0.74034  1.0000
  S   S355      1.0  0.45405  0.08147  0.73065  1.0000
  S   S356      1.0  0.42473  0.09864  0.76031  1.0000
  Fe  Fe177     1.0  0.52052  0.17655  0.65096  1.0000
  S   S357      1.0  0.50700  0.18708  0.62846  1.0000
  S   S358      1.0  0.51768  0.15400  0.67320  1.0000
  Fe  Fe178     1.0  0.54035  0.20550  0.64196  1.0000
  S   S359      1.0  0.52876  0.21884  0.61879  1.0000
  S   S360      1.0  0.55934  0.21470  0.65155  1.0000
  Fe  Fe179     1.0  0.50356  0.21269  0.63555  1.0000
  S   S361      1.0  0.47918  0.23319  0.63479  1.0000
  Fe  Fe180     1.0  0.53331  0.19234  0.61340  1.0000
  S   S362      1.0  0.54383  0.19086  0.58541  1.0000
  S   S363      1.0  0.51478  0.20185  0.65934  1.0000
  S   S364      1.0  0.54724  0.17939  0.63528  1.0000
  C   C849      1.0  0.47596  0.12265  0.68034  1.0000
  C   C850      1.0  0.48428  0.12137  0.69380  1.0000
  C   C851      1.0  0.49717  0.13095  0.69135  1.0000
  C   C852      1.0  0.50169  0.14203  0.67550  1.0000
  C   C853      1.0  0.49351  0.14324  0.66194  1.0000
  C   C854      1.0  0.48083  0.13335  0.66429  1.0000
  H   H1364     1.0  0.48090  0.11288  0.70611  1.0000
  H   H1365     1.0  0.50358  0.12983  0.70184  1.0000
  H   H1366     1.0  0.49714  0.15159  0.64960  1.0000
  H   H1367     1.0  0.47460  0.13422  0.65375  1.0000
  H   H1368     1.0  0.42536  0.16231  0.66306  1.0000
  H   H1369     1.0  0.44611  0.33902  0.84736  1.0000
  C   C855      1.0  0.57653  0.17411  0.59072  1.0000
  C   C856      1.0  0.56668  0.18675  0.57997  1.0000
  C   C857      1.0  0.57515  0.19647  0.56490  1.0000
  H   H1370     1.0  0.39876  0.34418  0.86668  1.0000
  H   H1371     1.0  0.55358  0.36333  0.74344  1.0000
  H   H1372     1.0  0.57003  0.16649  0.60230  1.0000
  H   H1373     1.0  0.56748  0.20640  0.55672  1.0000
  H   H1374     1.0  0.43874  0.02374  0.70776  1.0000
  H   H1375     1.0  0.39628  0.23283  0.79849  1.0000
  H   H1376     1.0  0.57185  0.26952  0.86896  1.0000
  C   C858      1.0  0.55405  0.16833  0.71558  1.0000
  H   H1377     1.0  0.56563  0.18241  0.52353  1.0000
  H   H1378     1.0  0.39532  0.29575  0.83865  1.0000
  H   H1379     1.0  0.56032  0.36597  0.69601  1.0000
  C   C859      1.0  0.52538  0.17095  0.71015  1.0000
  H   H1380     1.0  0.56065  0.24554  0.90292  1.0000
  C   C860      1.0  0.57146  0.23573  0.73006  1.0000
  H   H1381     1.0  0.53996  0.33136  0.72707  1.0000
  C   C861      1.0  0.45945  0.21241  0.88573  1.0000
  N   N88       1.0  0.47699  0.26542  0.67413  1.0000
  C   C862      1.0  0.55213  0.23021  0.93840  1.0000
  C   C863      1.0  0.54927  0.25474  0.95148  1.0000
  C   C864      1.0  0.54293  0.24630  0.94195  1.0000
  H   H1382     1.0  0.54188  0.26705  0.95441  1.0000
  H   H1383     1.0  0.53075  0.25210  0.93768  1.0000
  C   C865      1.0  0.45776  0.29771  0.84616  1.0000
  C   C866      1.0  0.47065  0.30727  0.83721  1.0000
  C   C867      1.0  0.48718  0.30268  0.84172  1.0000
  C   C868      1.0  0.49089  0.28840  0.85499  1.0000
  C   C869      1.0  0.47795  0.27891  0.86383  1.0000
  C   C870      1.0  0.46145  0.28359  0.85947  1.0000
  H   H1384     1.0  0.46792  0.31815  0.82685  1.0000
  H   H1385     1.0  0.49716  0.31002  0.83480  1.0000
  H   H1386     1.0  0.48055  0.26802  0.87421  1.0000
  H   H1387     1.0  0.45155  0.27617  0.86652  1.0000
  C   C871      1.0  0.43740  0.16144  0.66774  1.0000
  H   H1388     1.0  0.42928  0.35217  0.88988  1.0000
  C   C872      1.0  0.41196  0.16371  0.78330  1.0000
  H   H1389     1.0  0.41175  0.29639  0.80873  1.0000
  C   C873      1.0  0.46937  0.19587  0.88463  1.0000
  H   H1390     1.0  0.44541  0.32451  0.86786  1.0000
  H   H1391     1.0  0.41086  0.15423  0.69420  1.0000
  H   H1392     1.0  0.40990  0.18488  0.68000  1.0000
  C   C874      1.0  0.59233  0.14841  0.82662  1.0000
  C   C875      1.0  0.42644  0.17099  0.77423  1.0000
  C   C876      1.0  0.53943  0.34266  0.73256  1.0000
  H   H1393     1.0  0.42859  0.27960  0.81657  1.0000
  C   C877      1.0  0.41089  0.15455  0.75768  1.0000
  C   C878      1.0  0.42601  0.16089  0.74891  1.0000
  C   C879      1.0  0.43367  0.16931  0.75713  1.0000
  N   N89       1.0  0.57750  0.26388  0.89439  1.0000
  H   H1394     1.0  0.40669  0.16441  0.79668  1.0000
  H   H1395     1.0  0.43150  0.15982  0.73563  1.0000
  H   H1396     1.0  0.44498  0.17477  0.75014  1.0000
  C   C880      1.0  0.44409  0.21799  0.87900  1.0000
  H   H1397     1.0  0.43622  0.23068  0.88003  1.0000
  H   H1398     1.0  0.58640  0.22557  0.95805  1.0000
  C   C881      1.0  0.42814  0.29047  0.74611  1.0000
  C   C882      1.0  0.41337  0.28422  0.75627  1.0000
  C   C883      1.0  0.40398  0.15578  0.77493  1.0000
  H   H1399     1.0  0.57597  0.16534  0.51190  1.0000
  C   C884      1.0  0.57474  0.24598  0.89824  1.0000
  C   C885      1.0  0.43157  0.30557  0.74843  1.0000
  C   C886      1.0  0.43813  0.06682  0.70004  1.0000
  C   C887      1.0  0.59283  0.19834  0.51494  1.0000
  H   H1400     1.0  0.45763  0.15241  0.69179  1.0000
  C   C888      1.0  0.43442  0.22531  0.68091  1.0000
  C   C889      1.0  0.45015  0.21314  0.68020  1.0000
  C   C890      1.0  0.46381  0.21506  0.66573  1.0000
  C   C891      1.0  0.46170  0.22919  0.65201  1.0000
  C   C892      1.0  0.44581  0.24107  0.65258  1.0000
  C   C893      1.0  0.43225  0.23925  0.66709  1.0000
  H   H1401     1.0  0.45193  0.20249  0.69101  1.0000
  H   H1402     1.0  0.47605  0.20582  0.66532  1.0000
  H   H1403     1.0  0.44412  0.25195  0.64193  1.0000
  H   H1404     1.0  0.42006  0.24861  0.66754  1.0000
  H   H1405     1.0  0.43008  0.37239  0.86135  1.0000
  H   H1406     1.0  0.45780  0.17418  0.68027  1.0000
  Fe  Fe181     1.0  0.56991  0.27239  0.70519  1.0000
  H   H1407     1.0  0.46036  0.24830  0.69046  1.0000
  H   H1408     1.0  0.42943  0.19349  0.67369  1.0000
  H   H1409     1.0  0.56836  0.16359  0.71166  1.0000
  H   H1410     1.0  0.59070  0.14497  0.85399  1.0000
  H   H1411     1.0  0.57520  0.20580  0.59929  1.0000
  C   C894      1.0  0.55017  0.35873  0.70430  1.0000
  C   C895      1.0  0.53618  0.26848  0.66317  1.0000
  C   C896      1.0  0.53051  0.26312  0.65093  1.0000
  C   C897      1.0  0.53740  0.24648  0.64748  1.0000
  C   C898      1.0  0.55031  0.23537  0.65593  1.0000
  C   C899      1.0  0.55614  0.24080  0.66798  1.0000
  C   C900      1.0  0.54897  0.25725  0.67170  1.0000
  H   H1412     1.0  0.52088  0.27185  0.64405  1.0000
  H   H1413     1.0  0.53290  0.24240  0.63808  1.0000
  H   H1414     1.0  0.56590  0.23214  0.67477  1.0000
  H   H1415     1.0  0.55329  0.26107  0.68134  1.0000
  C   C901      1.0  0.50726  0.31675  0.75158  1.0000
  C   C902      1.0  0.49776  0.31696  0.76848  1.0000
  C   C903      1.0  0.48235  0.32928  0.77163  1.0000
  C   C904      1.0  0.47669  0.34178  0.75791  1.0000
  C   C905      1.0  0.48623  0.34164  0.74100  1.0000
  C   C906      1.0  0.50135  0.32894  0.73778  1.0000
  H   H1416     1.0  0.50233  0.30761  0.77922  1.0000
  H   H1417     1.0  0.47511  0.32942  0.78472  1.0000
  H   H1418     1.0  0.48177  0.35126  0.73037  1.0000
  H   H1419     1.0  0.50847  0.32873  0.72469  1.0000
  H   H1420     1.0  0.58078  0.14331  0.82823  1.0000
  H   H1421     1.0  0.48333  0.24109  0.66609  1.0000
  C   C907      1.0  0.56038  0.24574  0.74167  1.0000
  C   C908      1.0  0.54820  0.23854  0.75538  1.0000
  H   H1422     1.0  0.56106  0.25914  0.73998  1.0000
  H   H1423     1.0  0.53962  0.24640  0.76421  1.0000
  C   C909      1.0  0.52402  0.15990  0.84990  1.0000
  C   C910      1.0  0.54210  0.15848  0.84504  1.0000
  C   C911      1.0  0.55001  0.17034  0.84841  1.0000
  C   C912      1.0  0.53988  0.18338  0.85698  1.0000
  C   C913      1.0  0.52214  0.18342  0.86388  1.0000
  C   C914      1.0  0.51424  0.17150  0.86047  1.0000
  H   H1424     1.0  0.54980  0.14901  0.83750  1.0000
  H   H1425     1.0  0.56378  0.16999  0.84351  1.0000
  H   H1426     1.0  0.51427  0.19324  0.87090  1.0000
  H   H1427     1.0  0.50036  0.17225  0.86478  1.0000
  C   C915      1.0  0.51304  0.12739  0.75857  1.0000
  C   C916      1.0  0.50272  0.13030  0.74620  1.0000
  C   C917      1.0  0.49008  0.12032  0.74853  1.0000
  C   C918      1.0  0.48787  0.10706  0.76310  1.0000
  C   C919      1.0  0.49840  0.10396  0.77531  1.0000
  C   C920      1.0  0.51086  0.11413  0.77311  1.0000
  H   H1428     1.0  0.50450  0.14028  0.73472  1.0000
  H   H1429     1.0  0.48224  0.12273  0.73891  1.0000
  H   H1430     1.0  0.49699  0.09355  0.78647  1.0000
  H   H1431     1.0  0.51917  0.11133  0.78239  1.0000
  N   N90       1.0  0.55292  0.35257  0.72224  1.0000
  C   C921      1.0  0.56753  0.27453  0.88114  1.0000
  H   H1432     1.0  0.50047  0.24569  0.67340  1.0000
  H   H1433     1.0  0.45446  0.28482  0.66853  1.0000
  H   H1434     1.0  0.49315  0.28437  0.66306  1.0000
  C   C922      1.0  0.55165  0.36753  0.72987  1.0000
  H   H1435     1.0  0.45672  0.26507  0.66167  1.0000
  H   H1436     1.0  0.47062  0.27986  0.64980  1.0000
  H   H1437     1.0  0.42651  0.03867  0.72124  1.0000
  S   S365      1.0  0.42026  0.27202  0.69308  1.0000
  H   H1438     1.0  0.41947  0.18824  0.69614  1.0000
  H   H1439     1.0  0.46218  0.03207  0.68332  1.0000
  H   H1440     1.0  0.58741  0.17152  0.54188  1.0000
  H   H1441     1.0  0.44693  0.16990  0.70261  1.0000
  N   N91       1.0  0.59044  0.22317  0.60092  1.0000
  C   C923      1.0  0.44857  0.19051  0.87040  1.0000
  H   H1442     1.0  0.55711  0.27152  0.91533  1.0000
  C   C924      1.0  0.43302  0.03765  0.70768  1.0000
  C   C925      1.0  0.57434  0.23141  0.95356  1.0000
  C   C926      1.0  0.54764  0.14565  0.70556  1.0000
  C   C927      1.0  0.55005  0.17319  0.68629  1.0000
  C   C928      1.0  0.55875  0.21160  0.81080  1.0000
  H   H1443     1.0  0.41051  0.24955  0.81845  1.0000
  H   H1444     1.0  0.58924  0.25327  0.67117  1.0000
  H   H1445     1.0  0.42012  0.15722  0.71076  1.0000
  H   H1446     1.0  0.57908  0.21061  0.72350  1.0000
  C   C929      1.0  0.40863  0.25538  0.82989  1.0000
  S   S366      1.0  0.57248  0.25885  0.96902  1.0000
  N   N92       1.0  0.43322  0.16631  0.68478  1.0000
  C   C930      1.0  0.42335  0.15408  0.69768  1.0000
  C   C931      1.0  0.44959  0.16571  0.69009  1.0000
  H   H1447     1.0  0.42260  0.04164  0.69994  1.0000
  H   H1448     1.0  0.41458  0.32412  0.86926  1.0000
  C   C932      1.0  0.57498  0.23738  0.60248  1.0000
  H   H1449     1.0  0.39476  0.19648  0.77393  1.0000
  H   H1450     1.0  0.40687  0.35182  0.89085  1.0000
  H   H1451     1.0  0.57901  0.18480  0.79710  1.0000
  H   H1452     1.0  0.51760  0.16795  0.70222  1.0000
  Fe  Fe182     1.0  0.41761  0.18597  0.80956  1.0000
  S   S367      1.0  0.41980  0.20508  0.82386  1.0000
  H   H1453     1.0  0.48100  0.19126  0.89009  1.0000
  H   H1454     1.0  0.55343  0.17822  0.91093  1.0000
  H   H1455     1.0  0.40026  0.07850  0.71436  1.0000
  H   H1456     1.0  0.57579  0.23220  0.78441  1.0000
  C   C933      1.0  0.41984  0.31474  0.76046  1.0000
  C   C934      1.0  0.40483  0.30870  0.77026  1.0000
  H   H1457     1.0  0.55100  0.34775  0.69818  1.0000
  H   H1458     1.0  0.41547  0.33863  0.84876  1.0000
  Fe  Fe183     1.0  0.42037  0.18299  0.84657  1.0000
  N   N93       1.0  0.44648  0.04841  0.70081  1.0000
  C   C935      1.0  0.55836  0.21121  0.74614  1.0000
  H   H1459     1.0  0.42696  0.21160  0.86603  1.0000
  H   H1460     1.0  0.54334  0.13873  0.71902  1.0000
  H   H1461     1.0  0.43136  0.06924  0.71312  1.0000
  H   H1462     1.0  0.52070  0.16485  0.72384  1.0000
  C   C936      1.0  0.46414  0.27421  0.66305  1.0000
  H   H1463     1.0  0.56169  0.37527  0.72239  1.0000
  H   H1464     1.0  0.57879  0.25022  0.59823  1.0000
  N   N94       1.0  0.48905  0.20785  0.82591  1.0000
  C   C937      1.0  0.48156  0.19218  0.83008  1.0000
  C   C938      1.0  0.50815  0.20336  0.81969  1.0000
  C   C939      1.0  0.48531  0.21522  0.84154  1.0000
  C   C940      1.0  0.48118  0.22069  0.81225  1.0000
  H   H1465     1.0  0.46707  0.19519  0.83415  1.0000
  H   H1466     1.0  0.48653  0.18250  0.84091  1.0000
  H   H1467     1.0  0.48492  0.18575  0.81887  1.0000
  H   H1468     1.0  0.51457  0.19359  0.82955  1.0000
  H   H1469     1.0  0.51141  0.19778  0.80792  1.0000
  H   H1470     1.0  0.51429  0.21484  0.81646  1.0000
  H   H1471     1.0  0.47102  0.21851  0.84676  1.0000
  H   H1472     1.0  0.49062  0.22715  0.83892  1.0000
  H   H1473     1.0  0.49121  0.20590  0.85205  1.0000
  H   H1474     1.0  0.46674  0.22430  0.81649  1.0000
  H   H1475     1.0  0.48389  0.21549  0.80026  1.0000
  H   H1476     1.0  0.48654  0.23268  0.80882  1.0000
  N   N95       1.0  0.42445  0.34686  0.86724  1.0000
  C   C941      1.0  0.42066  0.34565  0.88613  1.0000
  C   C942      1.0  0.42152  0.36524  0.85839  1.0000
  C   C943      1.0  0.41275  0.33805  0.86288  1.0000
  C   C944      1.0  0.44282  0.33845  0.86154  1.0000
  H   H1477     1.0  0.54116  0.33752  0.74614  1.0000
  H   H1478     1.0  0.55115  0.21696  0.80033  1.0000
  H   H1479     1.0  0.44625  0.04939  0.67435  1.0000
  C   C945      1.0  0.57041  0.34132  0.72223  1.0000
  H   H1480     1.0  0.42419  0.36664  0.84410  1.0000
  H   H1481     1.0  0.53711  0.36728  0.70375  1.0000
  C   C946      1.0  0.41604  0.28213  0.81218  1.0000
  S   S368      1.0  0.40046  0.14539  0.74699  1.0000
  H   H1482     1.0  0.42273  0.33193  0.89316  1.0000
  H   H1483     1.0  0.57165  0.32977  0.71683  1.0000
  H   H1484     1.0  0.41861  0.27714  0.80010  1.0000
  H   H1485     1.0  0.58019  0.20114  0.87251  1.0000
  N   N96       1.0  0.47271  0.13816  0.80983  1.0000
  C   C947      1.0  0.46194  0.12906  0.82521  1.0000
  C   C948      1.0  0.46977  0.15655  0.81069  1.0000
  C   C949      1.0  0.46780  0.13681  0.79403  1.0000
  C   C950      1.0  0.49136  0.13021  0.80947  1.0000
  H   H1486     1.0  0.46439  0.11500  0.82529  1.0000
  H   H1487     1.0  0.44777  0.13418  0.82552  1.0000
  H   H1488     1.0  0.46475  0.13046  0.83740  1.0000
  H   H1489     1.0  0.47776  0.16372  0.79927  1.0000
  H   H1490     1.0  0.45588  0.16302  0.81081  1.0000
  H   H1491     1.0  0.47314  0.15802  0.82258  1.0000
  H   H1492     1.0  0.47628  0.14273  0.78211  1.0000
  H   H1493     1.0  0.45404  0.14350  0.79348  1.0000
  H   H1494     1.0  0.46894  0.12311  0.79339  1.0000
  H   H1495     1.0  0.49558  0.13139  0.82104  1.0000
  H   H1496     1.0  0.49989  0.13647  0.79784  1.0000
  H   H1497     1.0  0.49402  0.11623  0.80918  1.0000
  N   N97       1.0  0.48898  0.27171  0.75087  1.0000
  C   C951      1.0  0.48777  0.28729  0.73692  1.0000
  C   C952      1.0  0.48776  0.27675  0.76735  1.0000
  C   C953      1.0  0.50589  0.25984  0.74665  1.0000
  C   C954      1.0  0.47449  0.26298  0.75259  1.0000
  H   H1498     1.0  0.48813  0.28405  0.72439  1.0000
  H   H1499     1.0  0.49878  0.29394  0.73493  1.0000
  H   H1500     1.0  0.47539  0.29679  0.73992  1.0000
  H   H1501     1.0  0.48784  0.26542  0.77829  1.0000
  H   H1502     1.0  0.49902  0.28252  0.76678  1.0000
  H   H1503     1.0  0.47565  0.28653  0.77047  1.0000
  H   H1504     1.0  0.50725  0.24780  0.75677  1.0000
  H   H1505     1.0  0.51706  0.26601  0.74560  1.0000
  H   H1506     1.0  0.50750  0.25600  0.73412  1.0000
  H   H1507     1.0  0.47461  0.25954  0.74021  1.0000
  H   H1508     1.0  0.46158  0.27151  0.75620  1.0000
  H   H1509     1.0  0.47521  0.25089  0.76263  1.0000
  S   S369      1.0  0.42033  0.16354  0.83148  1.0000
  H   H1510     1.0  0.58094  0.34816  0.71408  1.0000
  H   H1511     1.0  0.45212  0.34469  0.86459  1.0000
  H   H1512     1.0  0.49566  0.25659  0.65258  1.0000
  H   H1513     1.0  0.55474  0.19929  0.81820  1.0000
  H   H1514     1.0  0.58397  0.18757  0.82445  1.0000
  H   H1515     1.0  0.55327  0.27457  0.88563  1.0000
  H   H1516     1.0  0.57794  0.20315  0.90299  1.0000
  Fe  Fe184     1.0  0.40756  0.24926  0.70636  1.0000
  H   H1517     1.0  0.44484  0.14792  0.66836  1.0000
  H   H1518     1.0  0.43104  0.14061  0.69868  1.0000
  S   S370      1.0  0.57031  0.29407  0.71699  1.0000
  H   H1519     1.0  0.42117  0.25178  0.83446  1.0000
  S   S371      1.0  0.58492  0.24546  0.71161  1.0000
  H   H1520     1.0  0.56425  0.16867  0.68149  1.0000
  H   H1521     1.0  0.56758  0.23639  0.61609  1.0000
  C   C955      1.0  0.58237  0.19761  0.79100  1.0000
  H   H1522     1.0  0.45263  0.04512  0.72570  1.0000
  H   H1523     1.0  0.58174  0.23759  0.90842  1.0000
  H   H1524     1.0  0.53858  0.37628  0.73005  1.0000
  C   C956      1.0  0.57067  0.21836  0.73252  1.0000
  H   H1525     1.0  0.57955  0.24001  0.88664  1.0000
  C   C957      1.0  0.40165  0.29338  0.76825  1.0000
  C   C958      1.0  0.55945  0.18293  0.89721  1.0000
  H   H1526     1.0  0.40286  0.21357  0.73557  1.0000
  H   H1527     1.0  0.46570  0.05387  0.67764  1.0000
  S   S372      1.0  0.41761  0.22329  0.69920  1.0000
  H   H1528     1.0  0.39636  0.21838  0.76472  1.0000
  C   C959      1.0  0.58587  0.16134  0.89856  1.0000
  S   S373      1.0  0.57133  0.28808  0.67829  1.0000
  C   C960      1.0  0.58471  0.20646  0.60672  1.0000
  Fe  Fe185     1.0  0.56893  0.31034  0.69057  1.0000
  H   H1529     1.0  0.52229  0.18517  0.70916  1.0000
  H   H1530     1.0  0.47713  0.28860  0.68202  1.0000
  H   H1531     1.0  0.42210  0.32685  0.76163  1.0000
  H   H1532     1.0  0.55727  0.19810  0.74736  1.0000
  H   H1533     1.0  0.55373  0.19692  0.89384  1.0000
  H   H1534     1.0  0.57505  0.21034  0.94171  1.0000
  C   C961      1.0  0.58324  0.18898  0.90590  1.0000
  H   H1535     1.0  0.52602  0.35073  0.73300  1.0000
  H   H1536     1.0  0.46586  0.02959  0.71315  1.0000
  H   H1537     1.0  0.54299  0.17052  0.67751  1.0000
  C   C962      1.0  0.48968  0.25162  0.66624  1.0000
  H   H1538     1.0  0.55472  0.22060  0.81995  1.0000
  H   H1539     1.0  0.57771  0.18420  0.91974  1.0000
  H   H1540     1.0  0.58309  0.18037  0.86734  1.0000
  C   C963      1.0  0.46379  0.18492  0.87724  1.0000
  S   S374      1.0  0.44250  0.17617  0.86098  1.0000
  H   H1541     1.0  0.49634  0.27197  0.68388  1.0000
  C   C964      1.0  0.48627  0.27813  0.67587  1.0000
  H   H1542     1.0  0.54043  0.14231  0.69731  1.0000
  C   C965      1.0  0.46780  0.25773  0.69137  1.0000
  H   H1543     1.0  0.57241  0.18742  0.50041  1.0000
  H   H1544     1.0  0.47115  0.17189  0.87709  1.0000
  H   H1545     1.0  0.56911  0.28820  0.87800  1.0000
  C   C966      1.0  0.43881  0.20720  0.87111  1.0000
  H   H1546     1.0  0.45826  0.26781  0.69777  1.0000
  S   S375      1.0  0.53949  0.31709  0.69571  1.0000
  H   H1547     1.0  0.54761  0.18747  0.68486  1.0000
  H   H1548     1.0  0.47710  0.25082  0.70002  1.0000
  S   S376      1.0  0.43470  0.18329  0.78378  1.0000
  H   H1549     1.0  0.56577  0.23712  0.59450  1.0000
  S   S377      1.0  0.53097  0.21280  0.77417  1.0000
  Fe  Fe186     1.0  0.56666  0.15353  0.79103  1.0000
  Fe  Fe187     1.0  0.41996  0.27377  0.72002  1.0000
  S   S378      1.0  0.55719  0.16545  0.76615  1.0000
  C   C967      1.0  0.54701  0.22131  0.75751  1.0000
  H   H1550     1.0  0.55176  0.18245  0.71509  1.0000
  N   N98       1.0  0.54429  0.16453  0.70439  1.0000
  C   C968      1.0  0.57136  0.27099  0.91031  1.0000
  C   C969      1.0  0.56504  0.24743  0.95729  1.0000
  N   N99       1.0  0.59335  0.18030  0.51427  1.0000
  C   C970      1.0  0.42253  0.18399  0.68360  1.0000
  C   C971      1.0  0.59347  0.19369  0.56072  1.0000
  H   H1551     1.0  0.57819  0.26291  0.92080  1.0000
  C   C972      1.0  0.56783  0.22280  0.94432  1.0000
  H   H1552     1.0  0.42821  0.07104  0.69173  1.0000
  H   H1553     1.0  0.57951  0.23445  0.80447  1.0000
  C   C973      1.0  0.58722  0.20045  0.81801  1.0000
  H   H1554     1.0  0.57309  0.33660  0.73551  1.0000
  H   H1555     1.0  0.55537  0.17624  0.88905  1.0000
  C   C974      1.0  0.45557  0.04580  0.68325  1.0000
  H   H1556     1.0  0.44787  0.07536  0.69476  1.0000
  C   C975      1.0  0.39972  0.28144  0.84139  1.0000
  C   C976      1.0  0.58276  0.22563  0.79521  1.0000
  C   C977      1.0  0.57608  0.17879  0.51243  1.0000
  H   H1557     1.0  0.57365  0.28432  0.90807  1.0000
  H   H1558     1.0  0.58260  0.20262  0.52585  1.0000
  H   H1559     1.0  0.58372  0.20829  0.82817  1.0000
  S   S379      1.0  0.58474  0.33114  0.68026  1.0000
  C   C978      1.0  0.45919  0.04339  0.71230  1.0000
  H   H1560     1.0  0.59127  0.22444  0.57412  1.0000
  H   H1561     1.0  0.46943  0.05139  0.70767  1.0000
  H   H1562     1.0  0.40210  0.19124  0.74356  1.0000
  H   H1563     1.0  0.58251  0.15441  0.89009  1.0000
  H   H1564     1.0  0.58077  0.15552  0.91221  1.0000
  H   H1565     1.0  0.59008  0.20743  0.50278  1.0000
  H   H1566     1.0  0.57529  0.20327  0.78016  1.0000
  C   C979      1.0  0.58588  0.18717  0.87627  1.0000
  H   H1567     1.0  0.39887  0.24917  0.84027  1.0000
  N   N100      1.0  0.40263  0.27434  0.82572  1.0000
  Fe  Fe188     1.0  0.54146  0.75772  0.25436  1.0000
  S   S380      1.0  0.56071  0.75762  0.26973  1.0000
  S   S381      1.0  0.53369  0.78154  0.23495  1.0000
  Fe  Fe189     1.0  0.53418  0.72280  0.27475  1.0000
  S   S382      1.0  0.55238  0.71991  0.29246  1.0000
  S   S383      1.0  0.51889  0.70241  0.27734  1.0000
  Fe  Fe190     1.0  0.54106  0.74797  0.29257  1.0000
  S   S384      1.0  0.53500  0.76147  0.31477  1.0000
  Fe  Fe191     1.0  0.57045  0.72970  0.26813  1.0000
  S   S385      1.0  0.52097  0.74996  0.27735  1.0000
  S   S386      1.0  0.55302  0.73083  0.25023  1.0000
  Fe  Fe192     1.0  0.52392  0.83364  0.14928  1.0000
  S   S387      1.0  0.52754  0.84777  0.12193  1.0000
  S   S388      1.0  0.50486  0.84437  0.17083  1.0000
  Fe  Fe193     1.0  0.52714  0.82253  0.11569  1.0000
  S   S389      1.0  0.50616  0.82300  0.10142  1.0000
  S   S390      1.0  0.52143  0.80931  0.14333  1.0000
  H   H1568     1.0  0.50997  0.78741  0.33130  1.0000
  S   S391      1.0  0.43135  0.80249  0.17738  1.0000
  C   C980      1.0  0.58089  0.56105  0.21117  1.0000
  H   H1569     1.0  0.49766  0.75325  0.04525  1.0000
  H   H1570     1.0  0.48578  0.90412  0.19955  1.0000
  H   H1571     1.0  0.45874  0.74850  0.03144  1.0000
  H   H1572     1.0  0.48741  0.81856  0.26187  1.0000
  C   C981      1.0  0.40952  0.72591  0.16036  1.0000
  Fe  Fe194     1.0  0.42489  0.74827  0.07974  1.0000
  S   S392      1.0  0.41050  0.74034  0.10691  1.0000
  S   S393      1.0  0.41433  0.75251  0.05514  1.0000
  Fe  Fe195     1.0  0.45506  0.75579  0.09221  1.0000
  S   S394      1.0  0.44245  0.74882  0.12003  1.0000
  S   S395      1.0  0.48260  0.76106  0.08552  1.0000
  Fe  Fe196     1.0  0.43686  0.72649  0.11280  1.0000
  S   S396      1.0  0.44127  0.70130  0.13184  1.0000
  Fe  Fe197     1.0  0.41760  0.76327  0.11161  1.0000
  H   H1573     1.0  0.57170  0.83561  0.17141  1.0000
  S   S397      1.0  0.45096  0.73229  0.08519  1.0000
  S   S398      1.0  0.43044  0.77238  0.08424  1.0000
  Fe  Fe198     1.0  0.50082  0.64601  0.21678  1.0000
  S   S399      1.0  0.51089  0.67060  0.20911  1.0000
  S   S400      1.0  0.47751  0.64178  0.23807  1.0000
  Fe  Fe199     1.0  0.53050  0.62771  0.19242  1.0000
  S   S401      1.0  0.54288  0.65095  0.18218  1.0000
  S   S402      1.0  0.54263  0.60300  0.18247  1.0000
  Fe  Fe200     1.0  0.53713  0.65312  0.20988  1.0000
  S   S403      1.0  0.55768  0.65753  0.22124  1.0000
  Fe  Fe201     1.0  0.51555  0.66641  0.18207  1.0000
  S   S404      1.0  0.51006  0.68969  0.16084  1.0000
  S   S405      1.0  0.52671  0.62888  0.22021  1.0000
  S   S406      1.0  0.50353  0.64289  0.18966  1.0000
  H   H1574     1.0  0.47905  0.74564  0.05907  1.0000
  H   H1575     1.0  0.41475  0.76875  0.33260  1.0000
  S   S407      1.0  0.41736  0.83355  0.21015  1.0000
  H   H1576     1.0  0.43981  0.77627  0.43251  1.0000
  H   H1577     1.0  0.56076  0.96007  0.22816  1.0000
  C   C982      1.0  0.57434  0.90114  0.22243  1.0000
  H   H1578     1.0  0.44217  0.72328  0.18080  1.0000
  H   H1579     1.0  0.54901  0.82273  0.19412  1.0000
  H   H1580     1.0  0.51620  0.76944  0.13254  1.0000
  H   H1581     1.0  0.48239  0.78314  0.04519  1.0000
  N   N101      1.0  0.47347  0.76466  0.03655  1.0000
  H   H1582     1.0  0.45004  0.75599  0.05124  1.0000
  Fe  Fe202     1.0  0.40901  0.81065  0.37200  1.0000
  C   C983      1.0  0.40725  0.83675  0.28816  1.0000
  H   H1583     1.0  0.42112  0.83822  0.28494  1.0000
  Fe  Fe203     1.0  0.43765  0.78709  0.35221  1.0000
  S   S408      1.0  0.42984  0.79954  0.32682  1.0000
  S   S409      1.0  0.45756  0.76260  0.35680  1.0000
  Fe  Fe204     1.0  0.42655  0.82442  0.33513  1.0000
  S   S410      1.0  0.43240  0.84677  0.31373  1.0000
  H   H1584     1.0  0.41641  0.73027  0.14690  1.0000
  C   C984      1.0  0.48319  0.88886  0.17474  1.0000
  S   S411      1.0  0.43700  0.81205  0.35933  1.0000
  C   C985      1.0  0.47388  0.69253  0.24779  1.0000
  Fe  Fe205     1.0  0.52843  0.88235  0.23152  1.0000
  S   S412      1.0  0.51515  0.90961  0.22297  1.0000
  S   S413      1.0  0.54749  0.86958  0.21097  1.0000
  Fe  Fe206     1.0  0.51099  0.88210  0.26884  1.0000
  S   S414      1.0  0.49665  0.90972  0.26325  1.0000
  S   S415      1.0  0.50794  0.86382  0.29463  1.0000
  Fe  Fe207     1.0  0.49108  0.90186  0.24091  1.0000
  S   S416      1.0  0.46440  0.90993  0.23364  1.0000
  Fe  Fe208     1.0  0.52231  0.91475  0.24589  1.0000
  S   S417      1.0  0.53597  0.93773  0.23866  1.0000
  S   S418      1.0  0.50388  0.87411  0.24766  1.0000
  S   S419      1.0  0.53699  0.88762  0.25332  1.0000
  H   H1585     1.0  0.57166  0.80433  0.17592  1.0000
  C   C986      1.0  0.45340  0.85133  0.30903  1.0000
  C   C987      1.0  0.45771  0.86440  0.29486  1.0000
  C   C988      1.0  0.47435  0.86838  0.29062  1.0000
  C   C989      1.0  0.48681  0.85933  0.30055  1.0000
  C   C990      1.0  0.48256  0.84621  0.31476  1.0000
  C   C991      1.0  0.46585  0.84216  0.31899  1.0000
  H   H1586     1.0  0.44811  0.87159  0.28716  1.0000
  H   H1587     1.0  0.47741  0.87866  0.27977  1.0000
  H   H1588     1.0  0.49218  0.83921  0.32248  1.0000
  H   H1589     1.0  0.46258  0.83208  0.32997  1.0000
  C   C992      1.0  0.56942  0.95309  0.26833  1.0000
  C   C993      1.0  0.55819  0.94155  0.27701  1.0000
  C   C994      1.0  0.54833  0.93621  0.26805  1.0000
  C   C995      1.0  0.54911  0.94289  0.25039  1.0000
  H   H1590     1.0  0.55703  0.93675  0.29079  1.0000
  H   H1591     1.0  0.53971  0.92737  0.27493  1.0000
  C   C996      1.0  0.55730  0.58694  0.19366  1.0000
  C   C997      1.0  0.55612  0.58539  0.21134  1.0000
  C   C998      1.0  0.56767  0.57232  0.22009  1.0000
  H   H1592     1.0  0.54842  0.92237  0.20771  1.0000
  C   C999      1.0  0.41640  0.74867  0.16980  1.0000
  C   C1000     1.0  0.57031  0.57545  0.18478  1.0000
  H   H1593     1.0  0.54614  0.59404  0.21838  1.0000
  H   H1594     1.0  0.56647  0.57102  0.23383  1.0000
  S   S420      1.0  0.39844  0.82560  0.34849  1.0000
  H   H1595     1.0  0.57127  0.57652  0.17110  1.0000
  C   C1001     1.0  0.46075  0.69758  0.13942  1.0000
  C   C1002     1.0  0.46377  0.68433  0.15372  1.0000
  C   C1003     1.0  0.47882  0.68181  0.16044  1.0000
  C   C1004     1.0  0.49104  0.69243  0.15277  1.0000
  C   C1005     1.0  0.48802  0.70565  0.13846  1.0000
  C   C1006     1.0  0.47295  0.70821  0.13178  1.0000
  H   H1596     1.0  0.45436  0.67610  0.15971  1.0000
  H   H1597     1.0  0.48091  0.67172  0.17158  1.0000
  H   H1598     1.0  0.49744  0.71384  0.13236  1.0000
  H   H1599     1.0  0.47094  0.71828  0.12058  1.0000
  H   H1600     1.0  0.41036  0.71175  0.16218  1.0000
  H   H1601     1.0  0.59234  0.55397  0.18648  1.0000
  H   H1602     1.0  0.43798  0.70189  0.27882  1.0000
  H   H1603     1.0  0.42377  0.75340  0.15667  1.0000
  H   H1604     1.0  0.44351  0.72484  0.15816  1.0000
  H   H1605     1.0  0.57623  0.64165  0.25825  1.0000
  N   N102      1.0  0.57653  0.81655  0.19418  1.0000
  C   C1007     1.0  0.52082  0.79734  0.28234  1.0000
  H   H1606     1.0  0.40128  0.84354  0.25585  1.0000
  C   C1008     1.0  0.55954  0.91574  0.19893  1.0000
  H   H1607     1.0  0.49544  0.81133  0.30621  1.0000
  C   C1009     1.0  0.41559  0.80732  0.28402  1.0000
  H   H1608     1.0  0.44108  0.69172  0.20741  1.0000
  H   H1609     1.0  0.58758  0.67655  0.25403  1.0000
  C   C1010     1.0  0.45743  0.67001  0.22077  1.0000
  C   C1011     1.0  0.45863  0.65793  0.23620  1.0000
  C   C1012     1.0  0.44458  0.65865  0.25037  1.0000
  C   C1013     1.0  0.42934  0.67140  0.24913  1.0000
  H   H1610     1.0  0.46820  0.66951  0.20976  1.0000
  H   H1611     1.0  0.44544  0.64927  0.26230  1.0000
  C   C1014     1.0  0.42186  0.79707  0.16299  1.0000
  H   H1612     1.0  0.58709  0.72975  0.29514  1.0000
  C   C1015     1.0  0.58960  0.64323  0.25098  1.0000
  C   C1016     1.0  0.58835  0.66593  0.26560  1.0000
  C   C1017     1.0  0.42476  0.78714  0.13666  1.0000
  C   C1018     1.0  0.43238  0.79143  0.14821  1.0000
  H   H1613     1.0  0.59211  0.91213  0.17973  1.0000
  H   H1614     1.0  0.41376  0.79764  0.27752  1.0000
  H   H1615     1.0  0.43288  0.78314  0.12509  1.0000
  H   H1616     1.0  0.44637  0.79052  0.14560  1.0000
  C   C1019     1.0  0.44166  0.88095  0.20594  1.0000
  C   C1020     1.0  0.45739  0.87311  0.21163  1.0000
  C   C1021     1.0  0.46410  0.88125  0.22114  1.0000
  C   C1022     1.0  0.45511  0.89736  0.22494  1.0000
  C   C1023     1.0  0.43897  0.90468  0.22004  1.0000
  C   C1024     1.0  0.43233  0.89659  0.21054  1.0000
  H   H1617     1.0  0.40825  0.70982  0.19368  1.0000
  H   H1618     1.0  0.47660  0.87550  0.22475  1.0000
  H   H1619     1.0  0.43196  0.91714  0.22286  1.0000
  H   H1620     1.0  0.42046  0.90302  0.20586  1.0000
  C   C1025     1.0  0.42803  0.68335  0.23365  1.0000
  S   S421      1.0  0.39879  0.69874  0.28238  1.0000
  H   H1621     1.0  0.47016  0.92036  0.15811  1.0000
  C   C1026     1.0  0.49918  0.80859  0.26453  1.0000
  C   C1027     1.0  0.56026  0.95454  0.24174  1.0000
  C   C1028     1.0  0.51670  0.85146  0.18185  1.0000
  C   C1029     1.0  0.51092  0.85102  0.19954  1.0000
  C   C1030     1.0  0.52046  0.85651  0.20847  1.0000
  C   C1031     1.0  0.53568  0.86264  0.19974  1.0000
  C   C1032     1.0  0.54148  0.86309  0.18201  1.0000
  C   C1033     1.0  0.53195  0.85754  0.17305  1.0000
  H   H1622     1.0  0.49920  0.84618  0.20639  1.0000
  H   H1623     1.0  0.51629  0.85546  0.22222  1.0000
  H   H1624     1.0  0.55315  0.86800  0.17514  1.0000
  H   H1625     1.0  0.53622  0.85833  0.15926  1.0000
  C   C1034     1.0  0.49934  0.80461  0.09970  1.0000
  C   C1035     1.0  0.51125  0.78924  0.09740  1.0000
  C   C1036     1.0  0.50581  0.77575  0.09362  1.0000
  C   C1037     1.0  0.48834  0.77730  0.09259  1.0000
  C   C1038     1.0  0.47624  0.79232  0.09577  1.0000
  C   C1039     1.0  0.48179  0.80601  0.09903  1.0000
  H   H1626     1.0  0.52485  0.78815  0.09753  1.0000
  H   H1627     1.0  0.51528  0.76425  0.09101  1.0000
  H   H1628     1.0  0.46279  0.79374  0.09491  1.0000
  H   H1629     1.0  0.47254  0.81793  0.10056  1.0000
  H   H1630     1.0  0.55625  0.90350  0.19832  1.0000
  C   C1040     1.0  0.54045  0.77894  0.21342  1.0000
  C   C1041     1.0  0.53344  0.79174  0.20066  1.0000
  C   C1042     1.0  0.53936  0.79067  0.18326  1.0000
  H   H1631     1.0  0.52353  0.80267  0.20419  1.0000
  H   H1632     1.0  0.53387  0.80078  0.17369  1.0000
  C   C1043     1.0  0.52997  0.68875  0.26285  1.0000
  C   C1044     1.0  0.52122  0.67808  0.25864  1.0000
  C   C1045     1.0  0.52975  0.66826  0.24598  1.0000
  C   C1046     1.0  0.54700  0.66916  0.23751  1.0000
  C   C1047     1.0  0.55580  0.67949  0.24201  1.0000
  C   C1048     1.0  0.54743  0.68893  0.25493  1.0000
  H   H1633     1.0  0.50786  0.67752  0.26503  1.0000
  H   H1634     1.0  0.52299  0.66000  0.24278  1.0000
  H   H1635     1.0  0.56892  0.68057  0.23513  1.0000
  H   H1636     1.0  0.55452  0.69638  0.25875  1.0000
  C   C1049     1.0  0.51307  0.76239  0.32544  1.0000
  C   C1050     1.0  0.50497  0.74865  0.32712  1.0000
  C   C1051     1.0  0.48782  0.74891  0.33661  1.0000
  C   C1052     1.0  0.47846  0.76323  0.34379  1.0000
  C   C1053     1.0  0.48629  0.77734  0.34146  1.0000
  C   C1054     1.0  0.50373  0.77676  0.33258  1.0000
  H   H1637     1.0  0.51210  0.73754  0.32159  1.0000
  H   H1638     1.0  0.48180  0.73799  0.33838  1.0000
  H   H1639     1.0  0.47915  0.78839  0.34707  1.0000
  Fe  Fe209     1.0  0.41333  0.82490  0.18782  1.0000
  C   C1055     1.0  0.57955  0.92901  0.20602  1.0000
  H   H1640     1.0  0.48585  0.92519  0.18626  1.0000
  H   H1641     1.0  0.40266  0.75597  0.17063  1.0000
  H   H1642     1.0  0.50946  0.80960  0.25249  1.0000
  C   C1056     1.0  0.55231  0.77679  0.17842  1.0000
  C   C1057     1.0  0.55327  0.76489  0.20870  1.0000
  H   H1643     1.0  0.48471  0.75871  0.01141  1.0000
  C   C1058     1.0  0.40922  0.76689  0.32262  1.0000
  H   H1644     1.0  0.57928  0.96809  0.24361  1.0000
  H   H1645     1.0  0.48899  0.88235  0.16357  1.0000
  Fe  Fe210     1.0  0.55033  0.80220  0.14109  1.0000
  C   C1059     1.0  0.40950  0.83072  0.26013  1.0000
  H   H1646     1.0  0.52083  0.72979  0.13728  1.0000
  H   H1647     1.0  0.48446  0.70450  0.27050  1.0000
  H   H1648     1.0  0.58268  0.60595  0.18937  1.0000
  H   H1649     1.0  0.56922  0.75301  0.18757  1.0000
  H   H1650     1.0  0.41331  0.77358  0.40267  1.0000
  C   C1060     1.0  0.49125  0.80955  0.29491  1.0000
  C   C1061     1.0  0.39474  0.76143  0.29728  1.0000
  S   S422      1.0  0.39566  0.73617  0.25455  1.0000
  C   C1062     1.0  0.40671  0.78803  0.14016  1.0000
  H   H1651     1.0  0.58829  0.89130  0.19204  1.0000
  Fe  Fe211     1.0  0.41492  0.85986  0.19301  1.0000
  H   H1652     1.0  0.56902  0.75350  0.33092  1.0000
  C   C1063     1.0  0.44633  0.69557  0.26812  1.0000
  H   H1653     1.0  0.51419  0.91258  0.16817  1.0000
  H   H1654     1.0  0.46331  0.77626  0.05883  1.0000
  H   H1655     1.0  0.45945  0.75018  0.39836  1.0000
  H   H1656     1.0  0.55268  0.74369  0.15403  1.0000
  H   H1657     1.0  0.43700  0.70651  0.17355  1.0000
  H   H1658     1.0  0.44752  0.77053  0.03125  1.0000
  H   H1659     1.0  0.46158  0.79099  0.03868  1.0000
  H   H1660     1.0  0.53152  0.79764  0.27065  1.0000
  S   S423      1.0  0.57371  0.85788  0.11179  1.0000
  H   H1661     1.0  0.47547  0.68568  0.28139  1.0000
  H   H1662     1.0  0.47346  0.78071  0.01126  1.0000
  H   H1663     1.0  0.52688  0.76331  0.16707  1.0000
  N   N103      1.0  0.48960  0.90489  0.17238  1.0000
  H   H1664     1.0  0.42970  0.80789  0.28070  1.0000
  C   C1064     1.0  0.45678  0.75972  0.03759  1.0000
  C   C1065     1.0  0.41002  0.75037  0.30155  1.0000
  C   C1066     1.0  0.48194  0.76960  0.01824  1.0000
  H   H1665     1.0  0.45155  0.72310  0.24275  1.0000
  H   H1666     1.0  0.48649  0.69698  0.24234  1.0000
  H   H1667     1.0  0.42931  0.74480  0.31724  1.0000
  N   N104      1.0  0.46567  0.83435  0.14818  1.0000
  C   C1067     1.0  0.47477  0.81607  0.15021  1.0000
  C   C1068     1.0  0.45893  0.83889  0.16539  1.0000
  C   C1069     1.0  0.45104  0.83693  0.13940  1.0000
  C   C1070     1.0  0.47798  0.84553  0.13770  1.0000
  H   H1668     1.0  0.48115  0.81253  0.13744  1.0000
  H   H1669     1.0  0.46555  0.80727  0.15708  1.0000
  H   H1670     1.0  0.48498  0.81343  0.15798  1.0000
  H   H1671     1.0  0.45163  0.85248  0.16439  1.0000
  H   H1672     1.0  0.44996  0.83042  0.17387  1.0000
  H   H1673     1.0  0.46971  0.83757  0.17215  1.0000
  H   H1674     1.0  0.44386  0.85060  0.13763  1.0000
  H   H1675     1.0  0.44145  0.82873  0.14700  1.0000
  H   H1676     1.0  0.45577  0.83347  0.12644  1.0000
  H   H1677     1.0  0.47174  0.85945  0.13662  1.0000
  H   H1678     1.0  0.48281  0.84301  0.12438  1.0000
  H   H1679     1.0  0.48960  0.84330  0.14350  1.0000
  H   H1680     1.0  0.57242  0.74848  0.30187  1.0000
  N   N105      1.0  0.40460  0.82446  0.27899  1.0000
  H   H1681     1.0  0.55495  0.80778  0.21300  1.0000
  H   H1682     1.0  0.47707  0.67839  0.25312  1.0000
  H   H1683     1.0  0.55494  0.83021  0.21031  1.0000
  H   H1684     1.0  0.49033  0.91147  0.14508  1.0000
  C   C1071     1.0  0.41745  0.75330  0.31397  1.0000
  H   H1685     1.0  0.49585  0.79564  0.26702  1.0000
  N   N106      1.0  0.58524  0.73121  0.32150  1.0000
  H   H1686     1.0  0.42564  0.76118  0.43676  1.0000
  H   H1687     1.0  0.48920  0.92937  0.15467  1.0000
  H   H1688     1.0  0.44954  0.74177  0.42023  1.0000
  C   C1072     1.0  0.50882  0.90077  0.17031  1.0000
  S   S424      1.0  0.41911  0.73213  0.29238  1.0000
  C   C1073     1.0  0.54372  0.73604  0.15250  1.0000
  H   H1689     1.0  0.46495  0.86124  0.20778  1.0000
  C   C1074     1.0  0.58017  0.80188  0.18541  1.0000
  N   N107      1.0  0.46274  0.70208  0.26115  1.0000
  Fe  Fe212     1.0  0.39873  0.72622  0.28190  1.0000
  H   H1690     1.0  0.57479  0.66473  0.27250  1.0000
  C   C1075     1.0  0.45862  0.72070  0.25345  1.0000
  C   C1076     1.0  0.48177  0.91279  0.18770  1.0000
  H   H1691     1.0  0.58560  0.80078  0.21680  1.0000
  H   H1692     1.0  0.58873  0.88644  0.11144  1.0000
  H   H1693     1.0  0.51284  0.89191  0.18208  1.0000
  N   N108      1.0  0.41735  0.72984  0.17306  1.0000
  C   C1077     1.0  0.48462  0.91709  0.15685  1.0000
  C   C1078     1.0  0.42497  0.76294  0.40374  1.0000
  H   H1694     1.0  0.54242  0.72550  0.16417  1.0000
  H   H1695     1.0  0.42339  0.83214  0.25610  1.0000
  H   H1696     1.0  0.48660  0.87942  0.18641  1.0000
  H   H1697     1.0  0.50552  0.76342  0.16424  1.0000
  H   H1698     1.0  0.45010  0.72820  0.26323  1.0000
  H   H1699     1.0  0.41847  0.67174  0.26004  1.0000
  N   N109      1.0  0.43812  0.76803  0.41009  1.0000
  C   C1079     1.0  0.43028  0.77235  0.42728  1.0000
  C   C1080     1.0  0.44386  0.78329  0.39796  1.0000
  H   H1700     1.0  0.42031  0.75148  0.41258  1.0000
  C   C1081     1.0  0.45335  0.75358  0.41127  1.0000
  H   H1701     1.0  0.47070  0.72611  0.24818  1.0000
  H   H1702     1.0  0.41879  0.78329  0.42662  1.0000
  S   S425      1.0  0.40894  0.69918  0.23160  1.0000
  H   H1703     1.0  0.45378  0.78754  0.40232  1.0000
  H   H1704     1.0  0.44981  0.78051  0.38484  1.0000
  H   H1705     1.0  0.43270  0.79444  0.39667  1.0000
  H   H1706     1.0  0.41323  0.72679  0.20065  1.0000
  H   H1707     1.0  0.41220  0.80232  0.29817  1.0000
  H   H1708     1.0  0.51522  0.89424  0.15922  1.0000
  H   H1709     1.0  0.57911  0.60255  0.22151  1.0000
  H   H1710     1.0  0.40767  0.82170  0.25284  1.0000
  H   H1711     1.0  0.46361  0.75696  0.41595  1.0000
  S   S426      1.0  0.41273  0.85070  0.17000  1.0000
  Fe  Fe213     1.0  0.40244  0.79986  0.34173  1.0000
  S   S427      1.0  0.55651  0.81357  0.11256  1.0000
  H   H1712     1.0  0.46872  0.89142  0.17633  1.0000
  C   C1082     1.0  0.50988  0.82808  0.27523  1.0000
  H   H1713     1.0  0.52023  0.82973  0.26335  1.0000
  H   H1714     1.0  0.51478  0.83015  0.28597  1.0000
  N   N110      1.0  0.49348  0.59169  0.21046  1.0000
  C   C1083     1.0  0.49840  0.59596  0.19139  1.0000
  C   C1084     1.0  0.50895  0.58970  0.21784  1.0000
  C   C1085     1.0  0.48705  0.57533  0.21591  1.0000
  C   C1086     1.0  0.47959  0.60571  0.21672  1.0000
  H   H1715     1.0  0.50339  0.60819  0.18680  1.0000
  H   H1716     1.0  0.48711  0.59754  0.18527  1.0000
  H   H1717     1.0  0.50908  0.58578  0.18627  1.0000
  H   H1718     1.0  0.50581  0.58667  0.23221  1.0000
  H   H1719     1.0  0.51976  0.57929  0.21335  1.0000
  H   H1720     1.0  0.51418  0.60177  0.21377  1.0000
  H   H1721     1.0  0.48329  0.57171  0.23024  1.0000
  H   H1722     1.0  0.49725  0.56450  0.21140  1.0000
  H   H1723     1.0  0.47537  0.57637  0.21055  1.0000
  H   H1724     1.0  0.47563  0.60300  0.23107  1.0000
  H   H1725     1.0  0.46772  0.60774  0.21133  1.0000
  H   H1726     1.0  0.48403  0.61822  0.21300  1.0000
  C   C1087     1.0  0.47005  0.77945  0.04511  1.0000
  S   S428      1.0  0.39828  0.81566  0.39905  1.0000
  H   H1727     1.0  0.46723  0.69421  0.23691  1.0000
  H   H1728     1.0  0.44888  0.68138  0.27326  1.0000
  C   C1088     1.0  0.57067  0.95928  0.25053  1.0000
  H   H1729     1.0  0.46398  0.70660  0.28559  1.0000
  C   C1089     1.0  0.57135  0.72097  0.32830  1.0000
  H   H1730     1.0  0.55022  0.72988  0.14119  1.0000
  S   S429      1.0  0.55240  0.82547  0.14952  1.0000
  C   C1090     1.0  0.52888  0.76074  0.13453  1.0000
  C   C1091     1.0  0.55913  0.76375  0.19120  1.0000
  H   H1731     1.0  0.55900  0.75510  0.21844  1.0000
  S   S430      1.0  0.41040  0.78489  0.36635  1.0000
  C   C1092     1.0  0.44207  0.68258  0.21945  1.0000
  N   N111      1.0  0.50528  0.81089  0.27925  1.0000
  C   C1093     1.0  0.48513  0.74986  0.04528  1.0000
  C   C1094     1.0  0.58226  0.56269  0.19345  1.0000
  S   S431      1.0  0.56041  0.77622  0.15640  1.0000
  Fe  Fe214     1.0  0.55634  0.83782  0.12150  1.0000
  H   H1732     1.0  0.49456  0.77343  0.01703  1.0000
  H   H1733     1.0  0.50202  0.74418  0.14646  1.0000
  H   H1734     1.0  0.55823  0.72918  0.32711  1.0000
  C   C1095     1.0  0.40769  0.72401  0.19071  1.0000
  H   H1735     1.0  0.48820  0.73850  0.03909  1.0000
  H   H1736     1.0  0.49835  0.83866  0.27321  1.0000
  H   H1737     1.0  0.53472  0.75519  0.12274  1.0000
  H   H1738     1.0  0.42197  0.75221  0.17925  1.0000
  C   C1096     1.0  0.43582  0.72075  0.17134  1.0000
  C   C1097     1.0  0.55805  0.81945  0.20328  1.0000
  S   S432      1.0  0.43678  0.87427  0.18900  1.0000
  S   S433      1.0  0.58034  0.96067  0.28041  1.0000
  H   H1739     1.0  0.51767  0.78424  0.28583  1.0000
  H   H1740     1.0  0.47930  0.81961  0.29306  1.0000
  H   H1741     1.0  0.52598  0.79880  0.29319  1.0000
  H   H1742     1.0  0.53768  0.76892  0.13539  1.0000
  H   H1743     1.0  0.56887  0.93565  0.21506  1.0000
  H   H1744     1.0  0.56386  0.90750  0.23195  1.0000
  C   C1098     1.0  0.51505  0.73632  0.14845  1.0000
  H   H1745     1.0  0.51286  0.72592  0.16014  1.0000
  H   H1746     1.0  0.51676  0.74512  0.17756  1.0000
  H   H1747     1.0  0.48752  0.79668  0.29847  1.0000
  C   C1099     1.0  0.51854  0.75507  0.16545  1.0000
  H   H1748     1.0  0.57713  0.84365  0.18747  1.0000
  C   C1100     1.0  0.47206  0.69958  0.27528  1.0000
  H   H1749     1.0  0.46722  0.91542  0.19019  1.0000
  H   H1750     1.0  0.57102  0.88872  0.22236  1.0000
  N   N112      1.0  0.57601  0.91243  0.20507  1.0000
  H   H1751     1.0  0.43848  0.69821  0.25800  1.0000
  H   H1752     1.0  0.43045  0.75962  0.39075  1.0000
  C   C1101     1.0  0.40376  0.79847  0.16616  1.0000
  N   N113      1.0  0.52653  0.74704  0.15022  1.0000
  H   H1753     1.0  0.56040  0.92414  0.18581  1.0000
  H   H1754     1.0  0.57348  0.71044  0.32118  1.0000
  C   C1102     1.0  0.59052  0.90392  0.19296  1.0000
  H   H1755     1.0  0.57775  0.78978  0.19480  1.0000
  C   C1103     1.0  0.58981  0.85935  0.12244  1.0000
  H   H1756     1.0  0.57082  0.71488  0.34219  1.0000
  S   S434      1.0  0.39732  0.78050  0.12720  1.0000
  H   H1757     1.0  0.58676  0.69924  0.29548  1.0000
  H   H1758     1.0  0.58667  0.89809  0.22730  1.0000
  H   H1759     1.0  0.57940  0.63093  0.20207  1.0000
  H   H1760     1.0  0.58812  0.65241  0.23856  1.0000
  H   H1761     1.0  0.39529  0.72525  0.07574  1.0000
  C   C1104     1.0  0.58792  0.81257  0.20683  1.0000
  H   H1762     1.0  0.58548  0.82341  0.21367  1.0000
  H   H1763     1.0  0.58069  0.93798  0.19321  1.0000
  C   C1105     1.0  0.57996  0.83230  0.18127  1.0000
  H   H1764     1.0  0.58845  0.63439  0.28539  1.0000
  C   C1106     1.0  0.58508  0.73947  0.30321  1.0000
  C   C1107     1.0  0.58201  0.74474  0.33163  1.0000
  H   H1765     1.0  0.59383  0.83067  0.17426  1.0000
  H   H1766     1.0  0.40379  0.83238  0.30245  1.0000
  H   H1767     1.0  0.59190  0.92712  0.21057  1.0000
  H   H1768     1.0  0.59446  0.83257  0.13500  1.0000
  H   H1769     1.0  0.58210  0.73904  0.34552  1.0000
  H   H1770     1.0  0.39912  0.84982  0.28474  1.0000
  C   C1108     1.0  0.59363  0.59997  0.21937  1.0000
  C   C1109     1.0  0.39648  0.74489  0.05251  1.0000
  H   H1771     1.0  0.39553  0.73242  0.16133  1.0000
  H   H1772     1.0  0.59395  0.79941  0.17824  1.0000
  C   C1110     1.0  0.59385  0.62815  0.20089  1.0000
  H   H1773     1.0  0.59208  0.75290  0.32673  1.0000
  C   C1111     1.0  0.39618  0.79399  0.15473  1.0000
  H   H1774     1.0  0.39565  0.80240  0.17771  1.0000
  H   H1775     1.0  0.59431  0.67017  0.27420  1.0000
  Fe  Fe215     1.0  0.72547  0.02804  0.13222  1.0000
  S   S435      1.0  0.72731  0.01818  0.10845  1.0000
  S   S436      1.0  0.70201  0.04534  0.14456  1.0000
  Fe  Fe216     1.0  0.76059  0.00592  0.13968  1.0000
  S   S437      1.0  0.76569  0.99489  0.11592  1.0000
  H   H1776     1.0  0.75445  0.47906  0.43004  1.0000
  Fe  Fe217     1.0  0.75503  0.02217  0.10275  1.0000
  S   S438      1.0  0.76847  0.03595  0.07683  1.0000
  S   S439      1.0  0.61226  0.99017  0.28190  1.0000
  N   N114      1.0  0.74568  0.03787  0.18295  1.0000
  S   S440      1.0  0.75247  0.03333  0.12606  1.0000
  H   H1777     1.0  0.72465  0.03786  0.17124  1.0000
  H   H1778     1.0  0.69964  0.44538  0.18313  1.0000
  C   C1112     1.0  0.77777  0.38013  0.24799  1.0000
  H   H1779     1.0  0.69800  0.05065  0.30729  1.0000
  Fe  Fe218     1.0  0.73039  0.16516  0.01186  1.0000
  S   S441      1.0  0.71473  0.14802  0.00799  1.0000
  S   S442      1.0  0.71606  0.18845  0.02305  1.0000
  Fe  Fe219     1.0  0.73733  0.12639  0.01419  1.0000
  S   S443      1.0  0.72763  0.10419  0.03459  1.0000
  H   H1780     1.0  0.77315  0.46921  0.19146  1.0000
  S   S444      1.0  0.75186  0.14361  0.02026  1.0000
  H   H1781     1.0  0.68153  0.31888  0.98868  1.0000
  C   C1113     1.0  0.73913  0.44125  0.17158  1.0000
  Fe  Fe220     1.0  0.75197  0.46386  0.36040  1.0000
  S   S445      1.0  0.73795  0.44922  0.38534  1.0000
  H   H1782     1.0  0.76269  0.25807  0.44579  1.0000
  C   C1114     1.0  0.75046  0.37541  0.38093  1.0000
  H   H1783     1.0  0.65994  0.18960  0.02606  1.0000
  S   S446      1.0  0.74363  0.17023  0.98423  1.0000
  S   S447      1.0  0.75242  0.45872  0.33449  1.0000
  H   H1784     1.0  0.75400  0.03295  0.37134  1.0000
  Fe  Fe221     1.0  0.74638  0.34829  0.45669  1.0000
  S   S448      1.0  0.72801  0.34574  0.44137  1.0000
  H   H1785     1.0  0.66943  0.29944  0.45959  1.0000
  Fe  Fe222     1.0  0.73602  0.31943  0.02117  1.0000
  S   S449      1.0  0.70963  0.32640  0.03758  1.0000
  S   S450      1.0  0.75973  0.30394  0.03101  1.0000
  Fe  Fe223     1.0  0.70939  0.35302  0.02107  1.0000
  Fe  Fe224     1.0  0.69975  0.32045  0.01680  1.0000
  S   S451      1.0  0.73670  0.34631  0.00604  1.0000
  S   S452      1.0  0.72642  0.31094  0.00201  1.0000
  H   H1786     1.0  0.70670  0.31515  0.34499  1.0000
  Fe  Fe225     1.0  0.73966  0.02726  0.31947  1.0000
  S   S453      1.0  0.71435  0.03666  0.33636  1.0000
  S   S454      1.0  0.75615  0.04362  0.29938  1.0000
  Fe  Fe226     1.0  0.72484  0.01665  0.35763  1.0000
  S   S455      1.0  0.71964  0.02319  0.38432  1.0000
  Fe  Fe227     1.0  0.70545  0.01531  0.33030  1.0000
  S   S456      1.0  0.68028  0.02228  0.32067  1.0000
  S   S457      1.0  0.73005  0.00784  0.31147  1.0000
  S   S458      1.0  0.78457  0.08613  0.33661  1.0000
  Fe  Fe228     1.0  0.69739  0.41381  0.29592  1.0000
  S   S459      1.0  0.71800  0.41031  0.27236  1.0000
  S   S460      1.0  0.67422  0.43584  0.29377  1.0000
  Fe  Fe229     1.0  0.72022  0.38975  0.32033  1.0000
  S   S461      1.0  0.74331  0.38537  0.29875  1.0000
  S   S462      1.0  0.72373  0.37679  0.34755  1.0000
  Fe  Fe230     1.0  0.73591  0.41351  0.28749  1.0000
  S   S463      1.0  0.75324  0.43160  0.27125  1.0000
  Fe  Fe231     1.0  0.72378  0.38243  0.28517  1.0000
  S   S464      1.0  0.73383  0.36107  0.27032  1.0000
  S   S465      1.0  0.71511  0.41844  0.31066  1.0000
  S   S466      1.0  0.70082  0.38518  0.30736  1.0000
  C   C1115     1.0  0.74352  0.10808  0.35283  1.0000
  S   S467      1.0  0.75918  0.43793  0.19484  1.0000
  Fe  Fe232     1.0  0.76403  0.14739  0.99189  1.0000
  Fe  Fe233     1.0  0.70326  0.20747  0.10651  1.0000
  S   S468      1.0  0.71861  0.18196  0.10072  1.0000
  Fe  Fe234     1.0  0.70490  0.24465  0.10498  1.0000
  S   S469      1.0  0.71860  0.26706  0.09295  1.0000
  H   H1787     1.0  0.73441  0.33742  0.33667  1.0000
  H   H1788     1.0  0.77999  0.05952  0.04559  1.0000
  S   S470      1.0  0.70963  0.22015  0.12487  1.0000
  S   S471      1.0  0.70168  0.23126  0.08560  1.0000
  C   C1116     1.0  0.77603  0.99885  0.29283  1.0000
  C   C1117     1.0  0.73849  0.37778  0.11718  1.0000
  C   C1118     1.0  0.63681  0.05798  0.23290  1.0000
  H   H1789     1.0  0.75834  0.21326  0.38033  1.0000
  S   S472      1.0  0.78410  0.32841  0.11767  1.0000
  H   H1790     1.0  0.66120  0.20715  0.97931  1.0000
  N   N115      1.0  0.74850  0.11059  0.07883  1.0000
  S   S473      1.0  0.74595  0.08155  0.45909  1.0000
  H   H1791     1.0  0.69588  0.21018  0.44171  1.0000
  S   S474      1.0  0.76660  0.28412  0.13429  1.0000
  C   C1119     1.0  0.66432  0.31437  0.06693  1.0000
  H   H1792     1.0  0.67264  0.28221  0.06073  1.0000
  Fe  Fe235     1.0  0.71036  0.10930  0.18979  1.0000
  S   S475      1.0  0.68162  0.11088  0.20043  1.0000
  S   S476      1.0  0.72217  0.10790  0.16197  1.0000
  Fe  Fe236     1.0  0.71851  0.10758  0.22496  1.0000
  S   S477      1.0  0.69043  0.10914  0.23802  1.0000
  S   S478      1.0  0.73812  0.09997  0.24227  1.0000
  Fe  Fe237     1.0  0.68984  0.09018  0.22261  1.0000
  H   H1793     1.0  0.73192  0.32016  0.29972  1.0000
  Fe  Fe238     1.0  0.68531  0.12952  0.21456  1.0000
  S   S479      1.0  0.66618  0.15420  0.21802  1.0000
  S   S480      1.0  0.71837  0.08752  0.21082  1.0000
  S   S481      1.0  0.71358  0.12939  0.20251  1.0000
  H   H1794     1.0  0.64579  0.00144  0.29181  1.0000
  Fe  Fe239     1.0  0.78657  0.30019  0.11891  1.0000
  H   H1795     1.0  0.72849  0.44983  0.30039  1.0000
  S   S482      1.0  0.78239  0.13509  0.31533  1.0000
  H   H1796     1.0  0.71436  0.16788  0.46707  1.0000
  H   H1797     1.0  0.76456  0.26155  0.42292  1.0000
  S   S483      1.0  0.76814  0.15048  0.26915  1.0000
  H   H1798     1.0  0.79071  0.31616  0.99829  1.0000
  S   S484      1.0  0.66936  0.47024  0.11132  1.0000
  H   H1799     1.0  0.74820  0.02227  0.20805  1.0000
  Fe  Fe240     1.0  0.69551  0.25181  0.40600  1.0000
  S   S485      1.0  0.70202  0.26749  0.37916  1.0000
  S   S486      1.0  0.67961  0.23135  0.41090  1.0000
  Fe  Fe241     1.0  0.71707  0.26808  0.41989  1.0000
  S   S487      1.0  0.72580  0.28502  0.39442  1.0000
  S   S488      1.0  0.72560  0.26865  0.44374  1.0000
  Fe  Fe242     1.0  0.69789  0.28975  0.39212  1.0000
  S   S489      1.0  0.68300  0.31561  0.38066  1.0000
  Fe  Fe243     1.0  0.72931  0.26158  0.38358  1.0000
  S   S490      1.0  0.75207  0.25720  0.36165  1.0000
  S   S491      1.0  0.68868  0.27466  0.41865  1.0000
  S   S492      1.0  0.72336  0.24394  0.40934  1.0000
  H   H1800     1.0  0.64962  0.20427  0.05462  1.0000
  C   C1120     1.0  0.77192  0.25236  0.36854  1.0000
  C   C1121     1.0  0.74756  0.03825  0.38274  1.0000
  C   C1122     1.0  0.74403  0.11503  0.25065  1.0000
  C   C1123     1.0  0.75045  0.10927  0.26597  1.0000
  C   C1124     1.0  0.75745  0.12020  0.27194  1.0000
  C   C1125     1.0  0.75813  0.13701  0.26260  1.0000
  C   C1126     1.0  0.75114  0.14301  0.24757  1.0000
  C   C1127     1.0  0.74415  0.13202  0.24155  1.0000
  H   H1801     1.0  0.75028  0.09618  0.27315  1.0000
  H   H1802     1.0  0.76231  0.11559  0.28379  1.0000
  H   H1803     1.0  0.75177  0.15595  0.24024  1.0000
  H   H1804     1.0  0.73967  0.13637  0.22949  1.0000
  H   H1805     1.0  0.65122  0.23533  0.47110  1.0000
  H   H1806     1.0  0.75181  0.32151  0.30488  1.0000
  S   S493      1.0  0.69719  0.34767  0.00132  1.0000
  S   S494      1.0  0.65491  0.46726  0.22008  1.0000
  H   H1807     1.0  0.69053  0.40761  0.99981  1.0000
  C   C1128     1.0  0.74191  0.42577  0.41542  1.0000
  C   C1129     1.0  0.65182  0.29245  0.08890  1.0000
  C   C1130     1.0  0.73059  0.27264  0.10523  1.0000
  C   C1131     1.0  0.73927  0.28649  0.09798  1.0000
  C   C1132     1.0  0.75011  0.29032  0.10693  1.0000
  C   C1133     1.0  0.75230  0.28033  0.12318  1.0000
  C   C1134     1.0  0.74322  0.26681  0.13062  1.0000
  C   C1135     1.0  0.73243  0.26292  0.12166  1.0000
  H   H1808     1.0  0.73790  0.29407  0.08527  1.0000
  H   H1809     1.0  0.75681  0.30096  0.10121  1.0000
  H   H1810     1.0  0.74477  0.25912  0.14324  1.0000
  H   H1811     1.0  0.72576  0.25225  0.12736  1.0000
  N   N116      1.0  0.71063  0.47013  0.28736  1.0000
  C   C1136     1.0  0.78172  0.44174  0.27440  1.0000
  H   H1812     1.0  0.78351  0.16329  0.01158  1.0000
  H   H1813     1.0  0.79073  0.47806  0.19325  1.0000
  C   C1137     1.0  0.66109  0.45909  0.24028  1.0000
  C   C1138     1.0  0.73343  0.10204  0.08296  1.0000
  H   H1814     1.0  0.73508  0.37545  0.03188  1.0000
  C   C1139     1.0  0.71174  0.36043  0.35771  1.0000
  C   C1140     1.0  0.71800  0.34680  0.37041  1.0000
  C   C1141     1.0  0.70913  0.33307  0.37784  1.0000
  C   C1142     1.0  0.69381  0.33310  0.37278  1.0000
  C   C1143     1.0  0.68719  0.34710  0.36065  1.0000
  C   C1144     1.0  0.69621  0.36064  0.35302  1.0000
  H   H1815     1.0  0.72995  0.34660  0.37419  1.0000
  H   H1816     1.0  0.71410  0.32253  0.38749  1.0000
  H   H1817     1.0  0.67520  0.34731  0.35689  1.0000
  H   H1818     1.0  0.69097  0.37135  0.34368  1.0000
  C   C1145     1.0  0.75535  0.36284  0.25953  1.0000
  C   C1146     1.0  0.76074  0.37851  0.25664  1.0000
  H   H1819     1.0  0.76912  0.29074  0.42003  1.0000
  Fe  Fe244     1.0  0.62292  0.23815  0.00333  1.0000
  S   S495      1.0  0.66746  0.22370  0.16199  1.0000
  C   C1147     1.0  0.76718  0.34871  0.25376  1.0000
  H   H1820     1.0  0.75187  0.38948  0.26113  1.0000
  C   C1148     1.0  0.64952  0.28711  0.00239  1.0000
  H   H1821     1.0  0.72556  0.47049  0.30564  1.0000
  H   H1822     1.0  0.76312  0.33655  0.25594  1.0000
  C   C1149     1.0  0.63998  0.21957  0.46114  1.0000
  C   C1150     1.0  0.65152  0.23029  0.46001  1.0000
  C   C1151     1.0  0.66334  0.23466  0.44441  1.0000
  C   C1152     1.0  0.66369  0.22818  0.42999  1.0000
  C   C1153     1.0  0.65188  0.21782  0.43107  1.0000
  C   C1154     1.0  0.63995  0.21368  0.44651  1.0000
  H   H1823     1.0  0.78065  0.11205  0.23957  1.0000
  H   H1824     1.0  0.67240  0.24270  0.44363  1.0000
  H   H1825     1.0  0.65207  0.21282  0.41994  1.0000
  H   H1826     1.0  0.63105  0.20548  0.44722  1.0000
  C   C1155     1.0  0.74838  0.05391  0.40444  1.0000
  C   C1156     1.0  0.76487  0.05412  0.31035  1.0000
  C   C1157     1.0  0.75754  0.05505  0.32765  1.0000
  C   C1158     1.0  0.76416  0.06419  0.33608  1.0000
  C   C1159     1.0  0.77805  0.07242  0.32715  1.0000
  S   S496      1.0  0.77998  0.35728  0.47793  1.0000
  C   C1160     1.0  0.77938  0.06143  0.30183  1.0000
  H   H1827     1.0  0.74651  0.04914  0.33445  1.0000
  H   H1828     1.0  0.70685  0.15509  0.45663  1.0000
  S   S497      1.0  0.77364  0.99436  0.16279  1.0000
  H   H1829     1.0  0.66522  0.21861  0.01051  1.0000
  C   C1161     1.0  0.73062  0.03594  0.39103  1.0000
  C   C1162     1.0  0.72252  0.04301  0.40581  1.0000
  H   H1830     1.0  0.70946  0.04126  0.41237  1.0000
  C   C1163     1.0  0.67423  0.00599  0.31420  1.0000
  H   H1831     1.0  0.76245  0.20104  0.47533  1.0000
  C   C1164     1.0  0.79002  0.20919  0.35982  1.0000
  C   C1165     1.0  0.66030  0.46176  0.26943  1.0000
  C   C1166     1.0  0.66978  0.44478  0.27296  1.0000
  C   C1167     1.0  0.67519  0.43507  0.26002  1.0000
  C   C1168     1.0  0.67069  0.44214  0.24377  1.0000
  C   C1169     1.0  0.64974  0.03224  0.25122  1.0000
  C   C1170     1.0  0.65952  0.46778  0.17645  1.0000
  H   H1832     1.0  0.68217  0.42189  0.26284  1.0000
  S   S498      1.0  0.72929  0.41024  0.14523  1.0000
  C   C1171     1.0  0.73781  0.41790  0.15887  1.0000
  C   C1172     1.0  0.74948  0.40658  0.16868  1.0000
  C   C1173     1.0  0.75628  0.41271  0.17962  1.0000
  C   C1174     1.0  0.75115  0.43007  0.18102  1.0000
  H   H1833     1.0  0.74893  0.46442  0.21693  1.0000
  Fe  Fe245     1.0  0.68050  0.22525  0.13401  1.0000
  H   H1834     1.0  0.75338  0.39311  0.16770  1.0000
  H   H1835     1.0  0.76502  0.40386  0.18735  1.0000
  H   H1836     1.0  0.67644  0.31884  0.05931  1.0000
  C   C1175     1.0  0.77641  0.33856  0.05690  1.0000
  H   H1837     1.0  0.67020  0.17111  0.01632  1.0000
  C   C1176     1.0  0.78331  0.31386  0.04324  1.0000
  C   C1177     1.0  0.76633  0.31765  0.04034  1.0000
  C   C1178     1.0  0.75465  0.33243  0.04491  1.0000
  C   C1179     1.0  0.75975  0.34298  0.05306  1.0000
  H   H1838     1.0  0.70718  0.19983  0.45914  1.0000
  N   N117      1.0  0.78568  0.26742  0.43062  1.0000
  H   H1839     1.0  0.74150  0.33550  0.04267  1.0000
  H   H1840     1.0  0.75057  0.35415  0.05693  1.0000
  C   C1180     1.0  0.72661  0.32434  0.44278  1.0000
  C   C1181     1.0  0.73390  0.31086  0.45491  1.0000
  C   C1182     1.0  0.73312  0.29376  0.45553  1.0000
  C   C1183     1.0  0.72539  0.29010  0.44376  1.0000
  C   C1184     1.0  0.71762  0.30360  0.43198  1.0000
  C   C1185     1.0  0.71822  0.32071  0.43150  1.0000
  Fe  Fe246     1.0  0.62233  0.00321  0.25466  1.0000
  H   H1841     1.0  0.71099  0.30096  0.42330  1.0000
  H   H1842     1.0  0.71232  0.33110  0.42225  1.0000
  H   H1843     1.0  0.78777  0.46554  0.23235  1.0000
  H   H1844     1.0  0.65591  0.46925  0.27946  1.0000
  H   H1845     1.0  0.70797  0.18087  0.42187  1.0000
  C   C1186     1.0  0.76818  0.43288  0.28276  1.0000
  C   C1187     1.0  0.76601  0.42594  0.30047  1.0000
  H   H1846     1.0  0.76052  0.17243  0.47252  1.0000
  H   H1847     1.0  0.71990  0.40582  0.00389  1.0000
  C   C1188     1.0  0.66455  0.03927  0.24880  1.0000
  H   H1848     1.0  0.75555  0.41908  0.30695  1.0000
  H   H1849     1.0  0.74879  0.47066  0.23662  1.0000
  C   C1189     1.0  0.75036  0.43342  0.39907  1.0000
  C   C1190     1.0  0.76848  0.42848  0.39407  1.0000
  S   S499      1.0  0.74235  0.14850  0.40418  1.0000
  C   C1191     1.0  0.64876  0.24249  0.06475  1.0000
  C   C1192     1.0  0.67772  0.30052  0.09159  1.0000
  C   C1193     1.0  0.72643  0.46394  0.29498  1.0000
  H   H1850     1.0  0.67406  0.05771  0.29197  1.0000
  C   C1194     1.0  0.78007  0.18298  0.37570  1.0000
  H   H1851     1.0  0.73227  0.29119  0.34318  1.0000
  S   S500      1.0  0.68504  0.06328  0.23529  1.0000
  H   H1852     1.0  0.77485  0.20552  0.33561  1.0000
  H   H1853     1.0  0.79202  0.06856  0.22883  1.0000
  C   C1195     1.0  0.68187  0.98858  0.31904  1.0000
  C   C1196     1.0  0.71638  0.18547  0.04491  1.0000
  C   C1197     1.0  0.70256  0.19449  0.05550  1.0000
  C   C1198     1.0  0.70304  0.19299  0.07283  1.0000
  C   C1199     1.0  0.71741  0.18261  0.07952  1.0000
  C   C1200     1.0  0.73114  0.17346  0.06900  1.0000
  C   C1201     1.0  0.73060  0.17481  0.05168  1.0000
  H   H1854     1.0  0.69148  0.20265  0.05034  1.0000
  H   H1855     1.0  0.69228  0.19992  0.08098  1.0000
  H   H1856     1.0  0.74250  0.16598  0.07405  1.0000
  H   H1857     1.0  0.74150  0.16822  0.04340  1.0000
  H   H1858     1.0  0.68610  0.19286  0.42677  1.0000
  Fe  Fe247     1.0  0.72330  0.10382  0.45524  1.0000
  C   C1202     1.0  0.77817  0.41655  0.40560  1.0000
  H   H1859     1.0  0.73915  0.01738  0.17530  1.0000
  H   H1860     1.0  0.67938  0.22121  0.98951  1.0000
  H   H1861     1.0  0.69522  0.38550  0.99810  1.0000
  H   H1862     1.0  0.69935  0.42046  0.06465  1.0000
  C   C1203     1.0  0.70694  0.06365  0.14823  1.0000
  C   C1204     1.0  0.69734  0.07039  0.16269  1.0000
  C   C1205     1.0  0.70191  0.08406  0.16679  1.0000
  C   C1206     1.0  0.71591  0.09132  0.15629  1.0000
  C   C1207     1.0  0.72523  0.08495  0.14148  1.0000
  C   C1208     1.0  0.72082  0.07103  0.13750  1.0000
  H   H1863     1.0  0.68663  0.06469  0.17105  1.0000
  H   H1864     1.0  0.69474  0.08867  0.17829  1.0000
  H   H1865     1.0  0.73611  0.09047  0.13334  1.0000
  H   H1866     1.0  0.72806  0.06607  0.12611  1.0000
  H   H1867     1.0  0.68492  0.40307  0.05370  1.0000
  C   C1209     1.0  0.75689  0.05427  0.06445  1.0000
  C   C1210     1.0  0.73883  0.05974  0.06934  1.0000
  C   C1211     1.0  0.73004  0.07462  0.05956  1.0000
  C   C1212     1.0  0.73923  0.08445  0.04501  1.0000
  C   C1213     1.0  0.75726  0.07883  0.03989  1.0000
  C   C1214     1.0  0.76603  0.06376  0.04955  1.0000
  H   H1868     1.0  0.73161  0.05248  0.08067  1.0000
  H   H1869     1.0  0.71606  0.07875  0.06351  1.0000
  H   H1870     1.0  0.76448  0.08616  0.02861  1.0000
  S   S501      1.0  0.75109  0.00890  0.34097  1.0000
  N   N118      1.0  0.70065  0.18050  0.22955  1.0000
  C   C1215     1.0  0.71283  0.18216  0.23956  1.0000
  C   C1216     1.0  0.70752  0.16456  0.22255  1.0000
  C   C1217     1.0  0.69892  0.19559  0.21512  1.0000
  C   C1218     1.0  0.68333  0.17959  0.24095  1.0000
  H   H1871     1.0  0.71459  0.17082  0.25039  1.0000
  H   H1872     1.0  0.70802  0.19396  0.24522  1.0000
  H   H1873     1.0  0.72601  0.18300  0.23131  1.0000
  H   H1874     1.0  0.70830  0.15282  0.23306  1.0000
  H   H1875     1.0  0.69896  0.16320  0.21448  1.0000
  H   H1876     1.0  0.72080  0.16452  0.21428  1.0000
  H   H1877     1.0  0.68974  0.19472  0.20737  1.0000
  H   H1878     1.0  0.71169  0.19661  0.20612  1.0000
  H   H1879     1.0  0.69377  0.20789  0.21989  1.0000
  H   H1880     1.0  0.68403  0.16811  0.25176  1.0000
  H   H1881     1.0  0.67378  0.17850  0.23375  1.0000
  H   H1882     1.0  0.67778  0.19131  0.24664  1.0000
  N   N119      1.0  0.72010  0.39718  0.22360  1.0000
  C   C1219     1.0  0.70658  0.39235  0.23890  1.0000
  C   C1220     1.0  0.71168  0.40621  0.20879  1.0000
  C   C1221     1.0  0.73265  0.38144  0.21942  1.0000
  C   C1222     1.0  0.72950  0.40873  0.22734  1.0000
  H   H1883     1.0  0.71239  0.38593  0.25044  1.0000
  H   H1884     1.0  0.69957  0.38321  0.23676  1.0000
  H   H1885     1.0  0.69671  0.40386  0.24223  1.0000
  H   H1886     1.0  0.70209  0.41807  0.21165  1.0000
  H   H1887     1.0  0.72145  0.41022  0.19708  1.0000
  H   H1888     1.0  0.70466  0.39778  0.20547  1.0000
  H   H1889     1.0  0.74316  0.38463  0.20805  1.0000
  H   H1890     1.0  0.72609  0.37240  0.21644  1.0000
  H   H1891     1.0  0.73910  0.37429  0.23044  1.0000
  H   H1892     1.0  0.72052  0.42073  0.23069  1.0000
  H   H1893     1.0  0.73982  0.41260  0.21613  1.0000
  H   H1894     1.0  0.73617  0.40224  0.23829  1.0000
  H   H1895     1.0  0.73224  0.34972  0.11013  1.0000
  H   H1896     1.0  0.78336  0.16769  0.46347  1.0000
  H   H1897     1.0  0.73289  0.13469  0.08488  1.0000
  H   H1898     1.0  0.71741  0.10040  0.37996  1.0000
  C   C1223     1.0  0.71037  0.07118  0.26595  1.0000
  H   H1899     1.0  0.69189  0.28851  0.06238  1.0000
  H   H1900     1.0  0.76501  0.08324  0.37167  1.0000
  S   S502      1.0  0.60468  0.26395  0.99792  1.0000
  S   S503      1.0  0.64609  0.24687  0.98476  1.0000
  Fe  Fe248     1.0  0.72483  0.33842  0.98793  1.0000
  H   H1901     1.0  0.76932  0.45330  0.41677  1.0000
  H   H1902     1.0  0.70716  0.08457  0.26830  1.0000
  H   H1903     1.0  0.77508  0.43384  0.38135  1.0000
  Fe  Fe249     1.0  0.72397  0.43053  0.12177  1.0000
  C   C1224     1.0  0.75665  0.10634  0.09406  1.0000
  H   H1904     1.0  0.79255  0.30285  0.03912  1.0000
  H   H1905     1.0  0.73883  0.39743  0.98898  1.0000
  N   N120      1.0  0.77666  0.19879  0.36240  1.0000
  Fe  Fe250     1.0  0.73941  0.98980  0.33432  1.0000
  S   S504      1.0  0.73846  0.12445  0.45134  1.0000
  H   H1906     1.0  0.74951  0.05237  0.15682  1.0000
  H   H1907     1.0  0.74600  0.06011  0.19230  1.0000
  C   C1225     1.0  0.79044  0.43750  0.30168  1.0000
  H   H1908     1.0  0.64730  0.20400  0.00033  1.0000
  H   H1909     1.0  0.77960  0.18612  0.38831  1.0000
  C   C1226     1.0  0.72500  0.39657  0.99496  1.0000
  C   C1227     1.0  0.69602  0.39876  0.99051  1.0000
  H   H1910     1.0  0.72865  0.06280  0.18131  1.0000
  H   H1911     1.0  0.65187  0.27714  0.47499  1.0000
  C   C1228     1.0  0.77894  0.45212  0.14166  1.0000
  C   C1229     1.0  0.66388  0.30803  0.98054  1.0000
  S   S505      1.0  0.61760  0.03221  0.24537  1.0000
  H   H1912     1.0  0.65222  0.45811  0.18556  1.0000
  H   H1913     1.0  0.65427  0.28004  0.09828  1.0000
  H   H1914     1.0  0.67832  0.44234  0.19549  1.0000
  H   H1915     1.0  0.72750  0.05007  0.20274  1.0000
  N   N121      1.0  0.78945  0.25633  0.07931  1.0000
  H   H1916     1.0  0.68286  0.27211  0.07888  1.0000
  H   H1917     1.0  0.67199  0.19456  0.45731  1.0000
  H   H1918     1.0  0.64457  0.29024  0.07997  1.0000
  H   H1919     1.0  0.69779  0.98990  0.25697  1.0000
  H   H1920     1.0  0.77532  0.28262  0.07765  1.0000
  S   S506      1.0  0.78182  0.34973  0.06983  1.0000
  H   H1921     1.0  0.73507  0.45468  0.17268  1.0000
  H   H1922     1.0  0.67847  0.99852  0.14910  1.0000
  Fe  Fe251     1.0  0.72657  0.43611  0.08284  1.0000
  C   C1230     1.0  0.73686  0.29758  0.32953  1.0000
  H   H1923     1.0  0.77137  0.10378  0.36629  1.0000
  H   H1924     1.0  0.76739  0.04924  0.16742  1.0000
  H   H1925     1.0  0.77453  0.08645  0.23303  1.0000
  H   H1926     1.0  0.78900  0.26486  0.10233  1.0000
  C   C1231     1.0  0.65276  0.22470  0.06524  1.0000
  H   H1927     1.0  0.72476  0.06667  0.26474  1.0000
  N   N122      1.0  0.67474  0.19549  0.00017  1.0000
  H   H1928     1.0  0.77033  0.99670  0.30691  1.0000
  H   H1929     1.0  0.69796  0.03311  0.28631  1.0000
  H   H1930     1.0  0.78662  0.19885  0.98073  1.0000
  H   H1931     1.0  0.65728  0.31283  0.05748  1.0000
  H   H1932     1.0  0.70582  0.31645  0.32298  1.0000
  H   H1933     1.0  0.70706  0.33530  0.32974  1.0000
  H   H1934     1.0  0.73401  0.31737  0.35213  1.0000
  S   S507      1.0  0.76051  0.06399  0.41300  1.0000
  S   S508      1.0  0.78071  0.46353  0.35550  1.0000
  H   H1935     1.0  0.64894  0.01981  0.25962  1.0000
  C   C1232     1.0  0.77221  0.25709  0.43339  1.0000
  H   H1936     1.0  0.74947  0.39339  0.04211  1.0000
  N   N123      1.0  0.70067  0.05963  0.27995  1.0000
  S   S509      1.0  0.61533  0.22709  0.98424  1.0000
  C   C1233     1.0  0.76806  0.16629  0.43017  1.0000
  C   C1234     1.0  0.78705  0.25602  0.35667  1.0000
  N   N124      1.0  0.79004  0.44062  0.13004  1.0000
  H   H1937     1.0  0.64858  0.99543  0.16475  1.0000
  H   H1938     1.0  0.71130  0.37826  0.10407  1.0000
  H   H1939     1.0  0.78702  0.29407  0.42741  1.0000
  H   H1940     1.0  0.72681  0.10520  0.07180  1.0000
  H   H1941     1.0  0.75103  0.37181  0.12159  1.0000
  Fe  Fe252     1.0  0.78734  0.13671  0.28663  1.0000
  N   N125      1.0  0.78658  0.30434  0.97931  1.0000
  C   C1235     1.0  0.69567  0.18143  0.43180  1.0000
  H   H1942     1.0  0.74727  0.11085  0.10537  1.0000
  N   N126      1.0  0.69861  0.18256  0.44859  1.0000
  S   S510      1.0  0.64945  0.98729  0.25299  1.0000
  H   H1943     1.0  0.73602  0.13304  0.06274  1.0000
  S   S511      1.0  0.78171  0.10506  0.46716  1.0000
  C   C1236     1.0  0.66417  0.26833  0.47798  1.0000
  H   H1944     1.0  0.68166  0.24366  0.03429  1.0000
  H   H1945     1.0  0.78066  0.46573  0.13656  1.0000
  C   C1237     1.0  0.73123  0.05215  0.41234  1.0000
  H   H1946     1.0  0.69038  0.30442  0.08475  1.0000
  S   S512      1.0  0.69794  0.37671  0.03345  1.0000
  H   H1947     1.0  0.75300  0.31993  0.33536  1.0000
  H   H1948     1.0  0.76271  0.01366  0.19032  1.0000
  H   H1949     1.0  0.68548  0.46178  0.19409  1.0000
  H   H1950     1.0  0.79117  0.26995  0.40298  1.0000
  H   H1951     1.0  0.79320  0.28510  0.00135  1.0000
  H   H1952     1.0  0.75825  0.06520  0.34932  1.0000
  H   H1953     1.0  0.78974  0.21320  0.37192  1.0000
  N   N127      1.0  0.73927  0.37464  0.09994  1.0000
  C   C1238     1.0  0.72250  0.38286  0.09448  1.0000
  C   C1239     1.0  0.74258  0.35587  0.10064  1.0000
  H   H1954     1.0  0.72792  0.37236  0.12707  1.0000
  C   C1240     1.0  0.75355  0.38207  0.08741  1.0000
  H   H1955     1.0  0.72007  0.39716  0.09275  1.0000
  H   H1956     1.0  0.69376  0.44070  0.15689  1.0000
  H   H1957     1.0  0.72244  0.37998  0.08189  1.0000
  H   H1958     1.0  0.74325  0.35310  0.08781  1.0000
  C   C1241     1.0  0.77352  0.24908  0.08693  1.0000
  H   H1959     1.0  0.68286  0.47167  0.29563  1.0000
  C   C1242     1.0  0.75632  0.02584  0.19499  1.0000
  H   H1960     1.0  0.66985  0.31061  0.09892  1.0000
  Fe  Fe253     1.0  0.69777  0.45819  0.10444  1.0000
  H   H1961     1.0  0.75096  0.99841  0.37758  1.0000
  H   H1962     1.0  0.73861  0.12017  0.39084  1.0000
  H   H1963     1.0  0.70245  0.18581  0.99427  1.0000
  C   C1243     1.0  0.78873  0.08285  0.22756  1.0000
  H   H1964     1.0  0.76389  0.03171  0.16011  1.0000
  C   C1244     1.0  0.75736  0.46575  0.22519  1.0000
  H   H1965     1.0  0.79222  0.41300  0.40172  1.0000
  Fe  Fe254     1.0  0.78067  0.46037  0.32916  1.0000
  H   H1966     1.0  0.65773  0.47862  0.18308  1.0000
  Fe  Fe255     1.0  0.73501  0.46309  0.09890  1.0000
  H   H1967     1.0  0.79088  0.08881  0.21354  1.0000
  C   C1245     1.0  0.75712  0.04305  0.16610  1.0000
  H   H1968     1.0  0.79355  0.00871  0.31139  1.0000
  H   H1969     1.0  0.63637  0.26735  0.05199  1.0000
  C   C1246     1.0  0.68802  0.25099  0.03983  1.0000
  C   C1247     1.0  0.73268  0.02927  0.18053  1.0000
  H   H1970     1.0  0.64307  0.30221  0.09621  1.0000
  H   H1971     1.0  0.77372  0.42170  0.13873  1.0000
  H   H1972     1.0  0.73125  0.09102  0.39546  1.0000
  C   C1248     1.0  0.75919  0.20911  0.36812  1.0000
  N   N128      1.0  0.68584  0.15142  0.14028  1.0000
  C   C1249     1.0  0.67052  0.16061  0.15108  1.0000
  C   C1250     1.0  0.68561  0.13276  0.14459  1.0000
  C   C1251     1.0  0.70207  0.15402  0.14361  1.0000
  C   C1252     1.0  0.68518  0.15829  0.12184  1.0000
  H   H1973     1.0  0.67044  0.17470  0.14840  1.0000
  H   H1974     1.0  0.67041  0.15553  0.16510  1.0000
  H   H1975     1.0  0.65805  0.15919  0.14867  1.0000
  H   H1976     1.0  0.67361  0.13023  0.14219  1.0000
  H   H1977     1.0  0.69711  0.12538  0.13684  1.0000
  H   H1978     1.0  0.68607  0.12718  0.15845  1.0000
  H   H1979     1.0  0.70309  0.14888  0.15738  1.0000
  H   H1980     1.0  0.70276  0.16796  0.14039  1.0000
  H   H1981     1.0  0.71389  0.14725  0.13566  1.0000
  H   H1982     1.0  0.69686  0.15208  0.11328  1.0000
  H   H1983     1.0  0.68498  0.17242  0.11829  1.0000
  H   H1984     1.0  0.67333  0.15624  0.11871  1.0000
  H   H1985     1.0  0.74224  0.40928  0.38135  1.0000
  H   H1986     1.0  0.73259  0.38911  0.41872  1.0000
  H   H1987     1.0  0.76216  0.38141  0.37725  1.0000
  Fe  Fe256     1.0  0.78649  0.42404  0.19705  1.0000
  C   C1253     1.0  0.66958  0.30079  0.00961  1.0000
  H   H1988     1.0  0.72500  0.38344  0.00314  1.0000
  S   S513      1.0  0.70554  0.42951  0.10587  1.0000
  H   H1989     1.0  0.65309  0.47295  0.16518  1.0000
  H   H1990     1.0  0.74611  0.37628  0.36881  1.0000
  C   C1254     1.0  0.69497  0.46754  0.30100  1.0000
  H   H1991     1.0  0.66983  0.26097  0.46741  1.0000
  H   H1992     1.0  0.75456  0.36146  0.38649  1.0000
  H   H1993     1.0  0.68821  0.21052  0.00843  1.0000
  H   H1994     1.0  0.79309  0.43797  0.10382  1.0000
  H   H1995     1.0  0.76691  0.03155  0.19640  1.0000
  N   N129      1.0  0.73113  0.31658  0.32694  1.0000
  H   H1996     1.0  0.71587  0.37644  0.38639  1.0000
  C   C1255     1.0  0.73731  0.32459  0.30871  1.0000
  C   C1256     1.0  0.73847  0.32311  0.33828  1.0000
  C   C1257     1.0  0.71184  0.32107  0.33133  1.0000
  H   H1997     1.0  0.67253  0.43679  0.16830  1.0000
  C   C1258     1.0  0.71157  0.16729  0.45460  1.0000
  H   H1998     1.0  0.73325  0.33895  0.30642  1.0000
  C   C1259     1.0  0.68196  0.18309  0.46137  1.0000
  H   H1999     1.0  0.74389  0.20474  0.41379  1.0000
  C   C1260     1.0  0.70896  0.38804  0.04192  1.0000
  H   H2000     1.0  0.73757  0.08771  0.08620  1.0000
  Fe  Fe257     1.0  0.74389  0.12342  0.42347  1.0000
  H   H2001     1.0  0.78974  0.23290  0.40388  1.0000
  H   H2002     1.0  0.73050  0.11494  0.34998  1.0000
  H   H2003     1.0  0.76127  0.24133  0.39486  1.0000
  C   C1261     1.0  0.77721  0.28579  0.43012  1.0000
  Fe  Fe258     1.0  0.78208  0.33442  0.46661  1.0000
  H   H2004     1.0  0.76206  0.09509  0.38820  1.0000
  H   H2005     1.0  0.78636  0.26220  0.34342  1.0000
  C   C1262     1.0  0.63961  0.25359  0.05237  1.0000
  C   C1263     1.0  0.68165  0.06630  0.28151  1.0000
  H   H2006     1.0  0.74010  0.31356  0.46384  1.0000
  C   C1264     1.0  0.74248  0.12949  0.07406  1.0000
  S   S514      1.0  0.76723  0.19747  0.43716  1.0000
  H   H2007     1.0  0.72318  0.98714  0.38691  1.0000
  C   C1265     1.0  0.73865  0.12192  0.37690  1.0000
  C   C1266     1.0  0.63592  0.04140  0.24306  1.0000
  C   C1267     1.0  0.75024  0.16228  0.41223  1.0000
  H   H2008     1.0  0.77667  0.23532  0.09351  1.0000
  H   H2009     1.0  0.64581  0.21486  0.19459  1.0000
  H   H2010     1.0  0.76595  0.24995  0.07699  1.0000
  C   C1268     1.0  0.70515  0.19844  0.44663  1.0000
  C   C1269     1.0  0.69904  0.40077  0.05130  1.0000
  C   C1270     1.0  0.67967  0.17324  0.18618  1.0000
  H   H2011     1.0  0.73846  0.46626  0.28521  1.0000
  C   C1271     1.0  0.77287  0.24434  0.38566  1.0000
  C   C1272     1.0  0.74382  0.18012  0.40865  1.0000
  H   H2012     1.0  0.75428  0.38924  0.40594  1.0000
  Fe  Fe259     1.0  0.76957  0.37306  0.45449  1.0000
  C   C1273     1.0  0.78749  0.42272  0.13745  1.0000
  S   S515      1.0  0.77350  0.35033  0.44245  1.0000
  H   H2013     1.0  0.65613  0.98345  0.18413  1.0000
  H   H2014     1.0  0.72787  0.42944  0.41935  1.0000
  C   C1274     1.0  0.76975  0.40901  0.42199  1.0000
  Fe  Fe260     1.0  0.75045  0.08421  0.43005  1.0000
  S   S516      1.0  0.78231  0.39432  0.43625  1.0000
  H   H2015     1.0  0.77322  0.11035  0.06090  1.0000
  H   H2016     1.0  0.67518  0.03197  0.25511  1.0000
  H   H2017     1.0  0.68926  0.16170  0.18403  1.0000
  H   H2018     1.0  0.70029  0.46467  0.26791  1.0000
  C   C1275     1.0  0.73109  0.40247  0.38520  1.0000
  C   C1276     1.0  0.74289  0.38288  0.40898  1.0000
  C   C1277     1.0  0.70719  0.41068  0.05752  1.0000
  H   H2019     1.0  0.74874  0.20166  0.37043  1.0000
  H   H2020     1.0  0.74687  0.09567  0.34833  1.0000
  H   H2021     1.0  0.76749  0.18600  0.34746  1.0000
  H   H2022     1.0  0.78783  0.22121  0.34985  1.0000
  C   C1278     1.0  0.75155  0.41351  0.42681  1.0000
  H   H2023     1.0  0.68703  0.24501  0.05378  1.0000
  C   C1279     1.0  0.66698  0.17284  0.20156  1.0000
  H   H2024     1.0  0.68972  0.18918  0.16181  1.0000
  H   H2025     1.0  0.73447  0.18548  0.40030  1.0000
  C   C1280     1.0  0.78242  0.31873  0.98852  1.0000
  H   H2026     1.0  0.65981  0.21604  0.07474  1.0000
  H   H2027     1.0  0.71049  0.38161  0.40748  1.0000
  C   C1281     1.0  0.75644  0.04698  0.38955  1.0000
  S   S517      1.0  0.73309  0.00179  0.14777  1.0000
  H   H2028     1.0  0.65603  0.32484  0.07357  1.0000
  C   C1282     1.0  0.67992  0.18873  0.17364  1.0000
  H   H2029     1.0  0.76970  0.04829  0.38328  1.0000
  H   H2030     1.0  0.68769  0.28326  0.45260  1.0000
  C   C1283     1.0  0.78830  0.32426  0.05162  1.0000
  N   N130      1.0  0.73640  0.38410  0.39327  1.0000
  H   H2031     1.0  0.72602  0.40379  0.37334  1.0000
  H   H2032     1.0  0.74710  0.36919  0.41531  1.0000
  S   S518      1.0  0.68004  0.30310  0.02519  1.0000
  H   H2033     1.0  0.75530  0.34931  0.10429  1.0000
  C   C1284     1.0  0.67265  0.31001  0.99255  1.0000
  C   C1285     1.0  0.76248  0.15540  0.42286  1.0000
  C   C1286     1.0  0.74907  0.19097  0.41632  1.0000
  C   C1287     1.0  0.73272  0.43522  0.16033  1.0000
  H   H2034     1.0  0.70192  0.46896  0.15732  1.0000
  C   C1288     1.0  0.63424  0.24702  0.04068  1.0000
  C   C1289     1.0  0.67990  0.44706  0.16088  1.0000
  H   H2035     1.0  0.72064  0.40952  0.39420  1.0000
  H   H2036     1.0  0.73883  0.28337  0.46490  1.0000
  C   C1290     1.0  0.78479  0.27408  0.06940  1.0000
  H   H2037     1.0  0.76487  0.45214  0.14309  1.0000
  S   S519      1.0  0.71767  0.46509  0.08033  1.0000
  C   C1291     1.0  0.66131  0.01057  0.30425  1.0000
  C   C1292     1.0  0.70516  0.04213  0.27606  1.0000
  C   C1293     1.0  0.65613  0.46897  0.25308  1.0000
  H   H2038     1.0  0.75585  0.10798  0.05230  1.0000
  C   C1294     1.0  0.65584  0.99779  0.29938  1.0000
  H   H2039     1.0  0.73034  0.23234  0.02611  1.0000
  H   H2040     1.0  0.78531  0.19697  0.46594  1.0000
  C   C1295     1.0  0.67944  0.28461  0.06989  1.0000
  H   H2041     1.0  0.70731  0.07187  0.25324  1.0000
  H   H2042     1.0  0.72538  0.12889  0.37486  1.0000
  N   N131      1.0  0.74360  0.10514  0.37142  1.0000
  H   H2043     1.0  0.72353  0.02551  0.19288  1.0000
  C   C1296     1.0  0.77708  0.42838  0.30996  1.0000
  H   H2044     1.0  0.75419  0.38056  0.07408  1.0000
  C   C1297     1.0  0.78444  0.35018  0.24552  1.0000
  H   H2045     1.0  0.75183  0.39611  0.08697  1.0000
  H   H2046     1.0  0.72061  0.25898  0.00511  1.0000
  C   C1298     1.0  0.65221  0.29665  0.98546  1.0000
  H   H2047     1.0  0.79257  0.02410  0.29148  1.0000
  H   H2048     1.0  0.71780  0.19841  0.43729  1.0000
  H   H2049     1.0  0.76448  0.45248  0.23004  1.0000
  H   H2050     1.0  0.75361  0.13630  0.07045  1.0000
  H   H2051     1.0  0.76926  0.01174  0.28675  1.0000
  H   H2052     1.0  0.78641  0.26213  0.45763  1.0000
  H   H2053     1.0  0.73163  0.29215  0.32116  1.0000
  H   H2054     1.0  0.67437  0.43439  0.23401  1.0000
  H   H2055     1.0  0.72351  0.10607  0.09417  1.0000
  H   H2056     1.0  0.64047  0.27841  0.00634  1.0000
  Fe  Fe261     1.0  0.76132  0.10259  0.45355  1.0000
  H   H2057     1.0  0.75612  0.22109  0.35832  1.0000
  N   N132      1.0  0.66832  0.29799  0.07935  1.0000
  C   C1299     1.0  0.78607  0.07038  0.31032  1.0000
  H   H2058     1.0  0.71294  0.44635  0.27952  1.0000
  Fe  Fe262     1.0  0.72933  0.15161  0.98049  1.0000
  H   H2059     1.0  0.78551  0.06005  0.28875  1.0000
  H   H2060     1.0  0.69572  0.45369  0.30734  1.0000
  C   C1300     1.0  0.71197  0.46038  0.27396  1.0000
  H   H2061     1.0  0.68094  0.28836  0.10113  1.0000
  H   H2062     1.0  0.72803  0.26111  0.03224  1.0000
  N   N133      1.0  0.67822  0.46016  0.17113  1.0000
  H   H2063     1.0  0.76473  0.25618  0.09680  1.0000
  H   H2064     1.0  0.67471  0.45298  0.14881  1.0000
  H   H2065     1.0  0.62692  0.25570  0.03141  1.0000
  H   H2066     1.0  0.77078  0.28904  0.99962  1.0000
  C   C1301     1.0  0.79290  0.44404  0.28387  1.0000
  C   C1302     1.0  0.72123  0.37559  0.39794  1.0000
  H   H2067     1.0  0.76860  0.32065  0.99559  1.0000
  H   H2068     1.0  0.77754  0.16088  0.43834  1.0000
  H   H2069     1.0  0.73667  0.47520  0.13404  1.0000
  H   H2070     1.0  0.65539  0.02402  0.30042  1.0000
  C   C1303     1.0  0.65487  0.18790  0.20446  1.0000
  C   C1304     1.0  0.70697  0.25873  0.01233  1.0000
  H   H2071     1.0  0.70113  0.25149  0.00618  1.0000
  H   H2072     1.0  0.76651  0.37569  0.09073  1.0000
  C   C1305     1.0  0.77736  0.19392  0.34597  1.0000
  H   H2073     1.0  0.66142  0.98470  0.13704  1.0000
  H   H2074     1.0  0.78342  0.44702  0.26069  1.0000
  C   C1306     1.0  0.63758  0.22921  0.04160  1.0000
  Fe  Fe263     1.0  0.73761  0.99191  0.12354  1.0000
  H   H2075     1.0  0.72482  0.36164  0.40389  1.0000
  S   S520      1.0  0.73642  0.42074  0.06114  1.0000
  H   H2076     1.0  0.68313  0.47942  0.14824  1.0000
  C   C1307     1.0  0.71640  0.23297  0.03272  1.0000
  H   H2077     1.0  0.65238  0.07776  0.22247  1.0000
  H   H2078     1.0  0.72361  0.44392  0.15305  1.0000
  H   H2079     1.0  0.68011  0.26435  0.03895  1.0000
  C   C1308     1.0  0.65955  0.19825  0.99214  1.0000
  C   C1309     1.0  0.66763  0.20377  0.17666  1.0000
  C   C1310     1.0  0.65166  0.06511  0.23053  1.0000
  C   C1311     1.0  0.66565  0.05564  0.23835  1.0000
  S   S521      1.0  0.67431  0.21119  0.11669  1.0000
  H   H2080     1.0  0.69950  0.27232  0.01053  1.0000
  H   H2081     1.0  0.71092  0.22490  0.02714  1.0000
  H   H2082     1.0  0.62612  0.06521  0.22664  1.0000
  H   H2083     1.0  0.72382  0.46174  0.26362  1.0000
  H   H2084     1.0  0.75335  0.11583  0.34479  1.0000
  H   H2085     1.0  0.76815  0.11249  0.09137  1.0000
  C   C1312     1.0  0.73100  0.09410  0.38144  1.0000
  C   C1313     1.0  0.75286  0.48084  0.39724  1.0000
  H   H2086     1.0  0.73416  0.08151  0.37724  1.0000
  S   S522      1.0  0.75100  0.12864  0.98602  1.0000
  S   S523      1.0  0.65483  0.25147  0.07934  1.0000
  S   S524      1.0  0.72649  0.10487  0.42691  1.0000
  H   H2087     1.0  0.76765  0.14164  0.42548  1.0000
  H   H2088     1.0  0.71937  0.03661  0.27505  1.0000
  S   S525      1.0  0.74586  0.43483  0.09914  1.0000
  H   H2089     1.0  0.75136  0.29362  0.32660  1.0000
  H   H2090     1.0  0.70167  0.04233  0.26366  1.0000
  H   H2091     1.0  0.77029  0.17477  0.37788  1.0000
  C   C1314     1.0  0.65806  0.28931  0.01445  1.0000
  C   C1315     1.0  0.67698  0.21223  0.00220  1.0000
  N   N134      1.0  0.70638  0.25095  0.03084  1.0000
  C   C1316     1.0  0.71407  0.26113  0.03849  1.0000
  H   H2092     1.0  0.70707  0.27486  0.03689  1.0000
  H   H2093     1.0  0.74803  0.13047  0.36969  1.0000
  C   C1317     1.0  0.67184  0.18392  0.01732  1.0000
  H   H2094     1.0  0.64508  0.18771  0.21630  1.0000
  H   H2095     1.0  0.75220  0.99495  0.39967  1.0000
  C   C1318     1.0  0.78512  0.44640  0.11295  1.0000
  S   S526      1.0  0.62970  0.22052  0.02802  1.0000
  H   H2096     1.0  0.69062  0.16964  0.43288  1.0000
  H   H2097     1.0  0.71968  0.05333  0.29597  1.0000
  H   H2098     1.0  0.67741  0.06708  0.26937  1.0000
  H   H2099     1.0  0.65544  0.28230  0.02763  1.0000
  C   C1319     1.0  0.79161  0.00053  0.16660  1.0000
  H   H2100     1.0  0.74495  0.40780  0.43946  1.0000
  S   S527      1.0  0.71426  0.45853  0.12247  1.0000
  H   H2101     1.0  0.78683  0.45990  0.10696  1.0000
  C   C1320     1.0  0.68761  0.47389  0.16059  1.0000
  C   C1321     1.0  0.69059  0.18760  0.98895  1.0000
  C   C1322     1.0  0.72542  0.40826  0.05409  1.0000
  C   C1323     1.0  0.72720  0.38528  0.03891  1.0000
  H   H2102     1.0  0.72420  0.16627  0.44507  1.0000
  H   H2103     1.0  0.68304  0.18156  0.02378  1.0000
  C   C1324     1.0  0.76099  0.18401  0.42727  1.0000
  H   H2104     1.0  0.72486  0.05731  0.42383  1.0000
  H   H2105     1.0  0.79315  0.17490  0.37189  1.0000
  C   C1325     1.0  0.76127  0.09647  0.37452  1.0000
  C   C1326     1.0  0.73535  0.39549  0.04475  1.0000
  S   S528      1.0  0.67627  0.25087  0.11578  1.0000
  H   H2106     1.0  0.71617  0.22671  0.04657  1.0000
  H   H2107     1.0  0.71345  0.25595  0.05257  1.0000
  H   H2108     1.0  0.79040  0.18612  0.34128  1.0000
  H   H2109     1.0  0.67777  0.07946  0.28446  1.0000
  H   H2110     1.0  0.70281  0.07187  0.29951  1.0000
  Fe  Fe264     1.0  0.67316  0.23631  0.09725  1.0000
  S   S529      1.0  0.71384  0.99559  0.35299  1.0000
  C   C1327     1.0  0.65527  0.20328  0.19215  1.0000
  C   C1328     1.0  0.73658  0.05337  0.19018  1.0000
  C   C1329     1.0  0.64700  0.21807  0.05381  1.0000
  S   S530      1.0  0.76818  0.10319  0.42490  1.0000
  H   H2111     1.0  0.77113  0.44631  0.11396  1.0000
  C   C1330     1.0  0.70553  0.05883  0.29641  1.0000
  H   H2112     1.0  0.73595  0.39186  0.11701  1.0000
  S   S531      1.0  0.74151  0.37235  0.46713  1.0000
  N   N135      1.0  0.76963  0.47723  0.21546  1.0000
  H   H2113     1.0  0.78246  0.45639  0.39539  1.0000
  C   C1331     1.0  0.68579  0.45199  0.18663  1.0000
  H   H2114     1.0  0.78181  0.39224  0.24609  1.0000
  H   H2115     1.0  0.78165  0.08391  0.26108  1.0000
  H   H2116     1.0  0.78961  0.46040  0.41280  1.0000
  H   H2117     1.0  0.76845  0.28765  0.44269  1.0000
  H   H2118     1.0  0.67649  0.17142  0.46302  1.0000
  H   H2119     1.0  0.77869  0.27440  0.05850  1.0000
  C   C1332     1.0  0.78092  0.47004  0.20060  1.0000
  H   H2120     1.0  0.68961  0.17470  0.98752  1.0000
  N   N136      1.0  0.76857  0.47990  0.40384  1.0000
  H   H2121     1.0  0.77286  0.98888  0.28767  1.0000
  H   H2122     1.0  0.69343  0.47483  0.31128  1.0000
  H   H2123     1.0  0.64850  0.48191  0.25060  1.0000
  H   H2124     1.0  0.65770  0.18589  0.99021  1.0000
  N   N137      1.0  0.71423  0.40004  0.98182  1.0000
  C   C1333     1.0  0.78058  0.47851  0.22692  1.0000
  H   H2125     1.0  0.76124  0.09212  0.09795  1.0000
  C   C1334     1.0  0.75582  0.98857  0.38835  1.0000
  C   C1335     1.0  0.77365  0.16714  0.47585  1.0000
  H   H2126     1.0  0.78824  0.45685  0.20499  1.0000
  H   H2127     1.0  0.68372  0.18377  0.47423  1.0000
  H   H2128     1.0  0.77808  0.24317  0.43369  1.0000
  C   C1336     1.0  0.68120  0.29019  0.46337  1.0000
  S   S532      1.0  0.61282  0.98639  0.24250  1.0000
  H   H2129     1.0  0.69878  0.25783  0.47380  1.0000
  H   H2130     1.0  0.77033  0.98551  0.38460  1.0000
  C   C1337     1.0  0.78903  0.23954  0.39076  1.0000
  C   C1338     1.0  0.78440  0.28813  0.99198  1.0000
  S   S533      1.0  0.69667  0.10788  0.47237  1.0000
  H   H2131     1.0  0.69039  0.29787  0.46434  1.0000
  H   H2132     1.0  0.79079  0.41808  0.15050  1.0000
  H   H2133     1.0  0.72511  0.98408  0.40877  1.0000
  H   H2134     1.0  0.69184  0.98494  0.32671  1.0000
  C   C1339     1.0  0.77790  0.46172  0.40740  1.0000
  H   H2135     1.0  0.77502  0.42353  0.32378  1.0000
  H   H2136     1.0  0.78196  0.44800  0.15482  1.0000
  H   H2137     1.0  0.78432  0.33112  0.97946  1.0000
  H   H2138     1.0  0.78744  0.27699  0.98548  1.0000
  C   C1340     1.0  0.76145  0.10451  0.06415  1.0000
  H   H2139     1.0  0.68734  0.40186  0.98108  1.0000
  H   H2140     1.0  0.70928  0.42755  0.97949  1.0000
  S   S534      1.0  0.75272  0.48155  0.09719  1.0000
  H   H2141     1.0  0.76591  0.09020  0.06703  1.0000
  C   C1341     1.0  0.78973  0.36594  0.24257  1.0000
  H   H2142     1.0  0.74375  0.47304  0.40670  1.0000
  H   H2143     1.0  0.75638  0.47568  0.38522  1.0000
  H   H2144     1.0  0.79365  0.33915  0.24136  1.0000
  S   S535      1.0  0.79174  0.15067  0.97944  1.0000
  H   H2145     1.0  0.68646  0.98737  0.16841  1.0000
  C   C1342     1.0  0.68331  0.98551  0.15660  1.0000
  H   H2146     1.0  0.76466  0.20839  0.97822  1.0000
  H   H2147     1.0  0.59886  0.27729  0.88428  1.0000
  Fe  Fe265     1.0  0.66723  0.29717  0.61497  1.0000
  S   S536      1.0  0.67111  0.26847  0.62514  1.0000
  S   S537      1.0  0.65885  0.31824  0.63021  1.0000
  Fe  Fe266     1.0  0.67951  0.29394  0.57731  1.0000
  S   S538      1.0  0.68409  0.26511  0.58413  1.0000
  S   S539      1.0  0.68416  0.30678  0.54910  1.0000
  Fe  Fe267     1.0  0.65875  0.26884  0.60326  1.0000
  S   S540      1.0  0.63948  0.25282  0.60432  1.0000
  Fe  Fe268     1.0  0.69606  0.26732  0.60503  1.0000
  S   S541      1.0  0.72304  0.25186  0.60673  1.0000
  S   S542      1.0  0.65297  0.29765  0.59464  1.0000
  S   S543      1.0  0.69340  0.29604  0.59685  1.0000
  S   S544      1.0  0.73626  0.17457  0.59770  1.0000
  C   C1343     1.0  0.59808  0.14929  0.84122  1.0000
  H   H2148     1.0  0.68968  0.25653  0.49648  1.0000
  S   S545      1.0  0.75631  0.17083  0.55025  1.0000
  H   H2149     1.0  0.70328  0.24889  0.93071  1.0000
  H   H2150     1.0  0.75867  0.14310  0.61605  1.0000
  C   C1344     1.0  0.68537  0.35802  0.56800  1.0000
  H   H2151     1.0  0.70081  0.27589  0.94036  1.0000
  H   H2152     1.0  0.75530  0.24731  0.56506  1.0000
  H   H2153     1.0  0.75438  0.22795  0.59654  1.0000
  C   C1345     1.0  0.62693  0.22915  0.93361  1.0000
  Fe  Fe269     1.0  0.78149  0.17986  0.54274  1.0000
  Fe  Fe270     1.0  0.73652  0.28757  0.89249  1.0000
  S   S546      1.0  0.74369  0.25867  0.89937  1.0000
  S   S547      1.0  0.71960  0.29971  0.91479  1.0000
  Fe  Fe271     1.0  0.74840  0.28722  0.85344  1.0000
  S   S548      1.0  0.75615  0.25837  0.85777  1.0000
  S   S549      1.0  0.74743  0.30274  0.82655  1.0000
  Fe  Fe272     1.0  0.73133  0.25846  0.87785  1.0000
  S   S550      1.0  0.70855  0.24533  0.88316  1.0000
  Fe  Fe273     1.0  0.76766  0.26181  0.87870  1.0000
  S   S551      1.0  0.66666  0.21215  0.49834  1.0000
  S   S552      1.0  0.72271  0.28714  0.87209  1.0000
  S   S553      1.0  0.76149  0.29087  0.87309  1.0000
  Fe  Fe274     1.0  0.63754  0.19587  0.88213  1.0000
  S   S554      1.0  0.64429  0.19424  0.85426  1.0000
  Fe  Fe275     1.0  0.66100  0.16091  0.89370  1.0000
  S   S555      1.0  0.66919  0.15608  0.86657  1.0000
  S   S556      1.0  0.67010  0.14290  0.91739  1.0000
  Fe  Fe276     1.0  0.67175  0.18409  0.85899  1.0000
  S   S557      1.0  0.69632  0.19364  0.84357  1.0000
  Fe  Fe277     1.0  0.64089  0.16666  0.86412  1.0000
  S   S558      1.0  0.61998  0.15563  0.85859  1.0000
  S   S559      1.0  0.66506  0.18791  0.88623  1.0000
  S   S560      1.0  0.63278  0.16908  0.89206  1.0000
  S   S561      1.0  0.69811  0.16786  0.50714  1.0000
  C   C1346     1.0  0.60103  0.24412  0.66606  1.0000
  S   S562      1.0  0.74120  0.35323  0.51785  1.0000
  H   H2154     1.0  0.65582  0.28678  0.93173  1.0000
  H   H2155     1.0  0.72361  0.13792  0.49984  1.0000
  S   S563      1.0  0.73755  0.34352  0.95968  1.0000
  Fe  Fe278     1.0  0.75228  0.35408  0.48946  1.0000
  H   H2156     1.0  0.77189  0.16909  0.60916  1.0000
  H   H2157     1.0  0.62738  0.19067  0.92803  1.0000
  H   H2158     1.0  0.75371  0.15883  0.65631  1.0000
  Fe  Fe279     1.0  0.75963  0.16696  0.57735  1.0000
  H   H2159     1.0  0.76883  0.19442  0.95368  1.0000
  C   C1347     1.0  0.68635  0.27801  0.94220  1.0000
  H   H2160     1.0  0.74362  0.27253  0.57897  1.0000
  H   H2161     1.0  0.61386  0.19932  0.95636  1.0000
  H   H2162     1.0  0.59594  0.19543  0.60512  1.0000
  C   C1348     1.0  0.59632  0.26394  0.88790  1.0000
  Fe  Fe280     1.0  0.65688  0.22100  0.52345  1.0000
  S   S564      1.0  0.62933  0.21801  0.52701  1.0000
  S   S565      1.0  0.66135  0.24581  0.52639  1.0000
  Fe  Fe281     1.0  0.67268  0.18577  0.51456  1.0000
  S   S566      1.0  0.64643  0.17971  0.51764  1.0000
  Fe  Fe282     1.0  0.63981  0.20694  0.50307  1.0000
  C   C1349     1.0  0.77467  0.30789  0.96718  1.0000
  Fe  Fe283     1.0  0.63901  0.19131  0.54116  1.0000
  H   H2163     1.0  0.61222  0.34979  0.66818  1.0000
  S   S567      1.0  0.66598  0.19515  0.53937  1.0000
  H   H2164     1.0  0.63510  0.19781  0.96033  1.0000
  H   H2165     1.0  0.76618  0.18313  0.51211  1.0000
  H   H2166     1.0  0.62382  0.25038  0.68141  1.0000
  N   N138      1.0  0.61585  0.25290  0.65753  1.0000
  H   H2167     1.0  0.60414  0.22791  0.92527  1.0000
  H   H2168     1.0  0.64389  0.17146  0.92706  1.0000
  H   H2169     1.0  0.60895  0.27002  0.67541  1.0000
  H   H2170     1.0  0.66976  0.15893  0.49731  1.0000
  C   C1350     1.0  0.77331  0.22748  0.94618  1.0000
  H   H2171     1.0  0.60409  0.18420  0.48693  1.0000
  H   H2172     1.0  0.68131  0.29225  0.93999  1.0000
  C   C1351     1.0  0.76708  0.12225  0.51938  1.0000
  H   H2173     1.0  0.68102  0.27271  0.95597  1.0000
  C   C1352     1.0  0.76531  0.30048  0.80906  1.0000
  C   C1353     1.0  0.76263  0.30923  0.79258  1.0000
  H   H2174     1.0  0.77859  0.17502  0.62587  1.0000
  H   H2175     1.0  0.77755  0.29736  0.95986  1.0000
  H   H2176     1.0  0.64266  0.15916  0.97432  1.0000
  H   H2177     1.0  0.74998  0.31713  0.79096  1.0000
  N   N139      1.0  0.63198  0.17559  0.95276  1.0000
  S   S568      1.0  0.65647  0.22578  0.94554  1.0000
  C   C1354     1.0  0.75653  0.14340  0.62999  1.0000
  C   C1355     1.0  0.62023  0.26047  0.67014  1.0000
  C   C1356     1.0  0.70586  0.23244  0.87010  1.0000
  C   C1357     1.0  0.72002  0.22327  0.85991  1.0000
  C   C1358     1.0  0.71708  0.21194  0.85094  1.0000
  C   C1359     1.0  0.70005  0.20968  0.85236  1.0000
  C   C1360     1.0  0.68599  0.21966  0.86168  1.0000
  C   C1361     1.0  0.68888  0.23085  0.87064  1.0000
  H   H2178     1.0  0.73319  0.22436  0.85952  1.0000
  H   H2179     1.0  0.72803  0.20441  0.84352  1.0000
  H   H2180     1.0  0.67281  0.21863  0.86211  1.0000
  H   H2181     1.0  0.67788  0.23815  0.87824  1.0000
  C   C1362     1.0  0.72598  0.31068  0.92750  1.0000
  C   C1363     1.0  0.74089  0.31798  0.92176  1.0000
  C   C1364     1.0  0.74449  0.32795  0.93174  1.0000
  C   C1365     1.0  0.73344  0.33031  0.94766  1.0000
  C   C1366     1.0  0.71894  0.32245  0.95366  1.0000
  C   C1367     1.0  0.71511  0.31288  0.94352  1.0000
  H   H2182     1.0  0.74930  0.31643  0.90940  1.0000
  H   H2183     1.0  0.75574  0.33399  0.92702  1.0000
  C   C1368     1.0  0.59766  0.16867  0.53038  1.0000
  H   H2184     1.0  0.70348  0.30740  0.94803  1.0000
  C   C1369     1.0  0.78360  0.12298  0.50881  1.0000
  Fe  Fe284     1.0  0.62782  0.27178  0.97791  1.0000
  H   H2185     1.0  0.68757  0.35917  0.55375  1.0000
  C   C1370     1.0  0.61336  0.15539  0.83948  1.0000
  C   C1371     1.0  0.62282  0.16074  0.82284  1.0000
  C   C1372     1.0  0.61718  0.15960  0.80820  1.0000
  H   H2186     1.0  0.63470  0.16530  0.82127  1.0000
  H   H2187     1.0  0.62481  0.16333  0.79541  1.0000
  C   C1373     1.0  0.77623  0.30805  0.77813  1.0000
  H   H2188     1.0  0.66844  0.22312  0.90995  1.0000
  H   H2189     1.0  0.74318  0.15124  0.63346  1.0000
  C   C1374     1.0  0.78182  0.29035  0.81102  1.0000
  H   H2190     1.0  0.66620  0.34096  0.55830  1.0000
  H   H2191     1.0  0.65751  0.26668  0.92534  1.0000
  H   H2192     1.0  0.70665  0.13170  0.96053  1.0000
  H   H2193     1.0  0.69287  0.19571  0.97572  1.0000
  C   C1375     1.0  0.78445  0.26873  0.92520  1.0000
  C   C1376     1.0  0.60678  0.17545  0.49928  1.0000
  S   S569      1.0  0.75522  0.32994  0.47983  1.0000
  C   C1377     1.0  0.63810  0.32101  0.64396  1.0000
  C   C1378     1.0  0.62704  0.30924  0.64753  1.0000
  C   C1379     1.0  0.61060  0.31204  0.65879  1.0000
  H   H2194     1.0  0.62002  0.18582  0.97579  1.0000
  C   C1380     1.0  0.61627  0.33844  0.66250  1.0000
  C   C1381     1.0  0.63265  0.33555  0.65151  1.0000
  H   H2195     1.0  0.63120  0.29804  0.64165  1.0000
  H   H2196     1.0  0.77364  0.27718  0.93178  1.0000
  H   H2197     1.0  0.78662  0.19748  0.93550  1.0000
  H   H2198     1.0  0.64114  0.34466  0.64885  1.0000
  C   C1382     1.0  0.72641  0.23065  0.60367  1.0000
  C   C1383     1.0  0.74347  0.22173  0.59858  1.0000
  C   C1384     1.0  0.74650  0.20473  0.59619  1.0000
  C   C1385     1.0  0.73253  0.19636  0.59937  1.0000
  C   C1386     1.0  0.71545  0.20526  0.60459  1.0000
  C   C1387     1.0  0.71236  0.22248  0.60645  1.0000
  C   C1388     1.0  0.64536  0.22344  0.90110  1.0000
  H   H2199     1.0  0.77575  0.32017  0.95758  1.0000
  H   H2200     1.0  0.70458  0.19888  0.60708  1.0000
  H   H2201     1.0  0.69914  0.22930  0.61041  1.0000
  C   C1389     1.0  0.64290  0.25154  0.58255  1.0000
  C   C1390     1.0  0.64170  0.23656  0.57796  1.0000
  C   C1391     1.0  0.64675  0.23496  0.56057  1.0000
  C   C1392     1.0  0.65325  0.24822  0.54787  1.0000
  C   C1393     1.0  0.65380  0.26340  0.55241  1.0000
  C   C1394     1.0  0.64850  0.26509  0.56968  1.0000
  H   H2202     1.0  0.63779  0.22588  0.58785  1.0000
  H   H2203     1.0  0.64621  0.22322  0.55713  1.0000
  H   H2204     1.0  0.65872  0.27373  0.54267  1.0000
  H   H2205     1.0  0.64923  0.27680  0.57302  1.0000
  C   C1395     1.0  0.70060  0.31901  0.54063  1.0000
  C   C1396     1.0  0.70991  0.32236  0.55129  1.0000
  C   C1397     1.0  0.72241  0.33285  0.54423  1.0000
  C   C1398     1.0  0.72587  0.33976  0.52644  1.0000
  C   C1399     1.0  0.71684  0.33607  0.51574  1.0000
  C   C1400     1.0  0.70417  0.32581  0.52285  1.0000
  H   H2206     1.0  0.70737  0.31707  0.56497  1.0000
  H   H2207     1.0  0.72946  0.33561  0.55251  1.0000
  H   H2208     1.0  0.71931  0.34147  0.50203  1.0000
  H   H2209     1.0  0.69701  0.32327  0.51452  1.0000
  C   C1401     1.0  0.78330  0.26507  0.90980  1.0000
  H   H2210     1.0  0.77394  0.31501  0.76548  1.0000
  H   H2211     1.0  0.79322  0.12691  0.51327  1.0000
  C   C1402     1.0  0.61098  0.26674  0.64292  1.0000
  C   C1403     1.0  0.72129  0.38724  0.97055  1.0000
  C   C1404     1.0  0.60520  0.32671  0.66628  1.0000
  H   H2212     1.0  0.78390  0.28345  0.82373  1.0000
  H   H2213     1.0  0.77171  0.27089  0.90460  1.0000
  C   C1405     1.0  0.62493  0.19025  0.96173  1.0000
  H   H2214     1.0  0.59760  0.18721  0.90428  1.0000
  C   C1406     1.0  0.70263  0.15843  0.94762  1.0000
  C   C1407     1.0  0.69438  0.17084  0.93529  1.0000
  C   C1408     1.0  0.68434  0.16623  0.92608  1.0000
  C   C1409     1.0  0.68235  0.14915  0.92913  1.0000
  C   C1410     1.0  0.69020  0.13679  0.94182  1.0000
  C   C1411     1.0  0.70035  0.14139  0.95104  1.0000
  H   H2215     1.0  0.69590  0.18411  0.93270  1.0000
  H   H2216     1.0  0.67821  0.17598  0.91663  1.0000
  H   H2217     1.0  0.68867  0.12352  0.94437  1.0000
  N   N140      1.0  0.72599  0.16017  0.88470  1.0000
  C   C1412     1.0  0.74470  0.15756  0.88502  1.0000
  C   C1413     1.0  0.71860  0.14577  0.89683  1.0000
  C   C1414     1.0  0.72402  0.16067  0.86707  1.0000
  C   C1415     1.0  0.71661  0.17667  0.88992  1.0000
  H   H2218     1.0  0.75069  0.16821  0.87600  1.0000
  H   H2219     1.0  0.75221  0.14520  0.88119  1.0000
  H   H2220     1.0  0.74655  0.15712  0.89820  1.0000
  H   H2221     1.0  0.70459  0.14714  0.89658  1.0000
  H   H2222     1.0  0.72555  0.13306  0.89350  1.0000
  H   H2223     1.0  0.71942  0.14521  0.91037  1.0000
  H   H2224     1.0  0.71002  0.16235  0.86652  1.0000
  H   H2225     1.0  0.73111  0.14854  0.86257  1.0000
  H   H2226     1.0  0.72902  0.17164  0.85758  1.0000
  H   H2227     1.0  0.70252  0.17926  0.88948  1.0000
  H   H2228     1.0  0.72204  0.18778  0.88124  1.0000
  H   H2229     1.0  0.71757  0.17666  0.90327  1.0000
  N   N141      1.0  0.74390  0.27266  0.55256  1.0000
  H   H2230     1.0  0.79066  0.14048  0.61390  1.0000
  C   C1416     1.0  0.74669  0.28437  0.53546  1.0000
  C   C1417     1.0  0.72622  0.26877  0.55661  1.0000
  H   H2231     1.0  0.61389  0.21324  0.61108  1.0000
  C   C1418     1.0  0.61804  0.22745  0.92168  1.0000
  N   N142      1.0  0.76997  0.15084  0.63331  1.0000
  C   C1419     1.0  0.64517  0.22688  0.92962  1.0000
  H   H2232     1.0  0.73574  0.29328  0.56659  1.0000
  H   H2233     1.0  0.60677  0.17431  0.94955  1.0000
  C   C1420     1.0  0.62741  0.22395  0.90564  1.0000
  H   H2234     1.0  0.72435  0.26253  0.54676  1.0000
  H   H2235     1.0  0.71590  0.28070  0.55710  1.0000
  H   H2236     1.0  0.60032  0.18570  0.87387  1.0000
  S   S570      1.0  0.77453  0.13968  0.57842  1.0000
  H   H2237     1.0  0.61970  0.23127  0.94622  1.0000
  S   S571      1.0  0.64096  0.29470  0.97036  1.0000
  N   N143      1.0  0.71744  0.27061  0.82166  1.0000
  C   C1421     1.0  0.73525  0.26079  0.82315  1.0000
  C   C1422     1.0  0.70940  0.27845  0.83699  1.0000
  C   C1423     1.0  0.70671  0.25882  0.82061  1.0000
  C   C1424     1.0  0.71845  0.28442  0.80594  1.0000
  H   H2238     1.0  0.74166  0.25450  0.81193  1.0000
  H   H2239     1.0  0.73503  0.25052  0.83507  1.0000
  H   H2240     1.0  0.74375  0.26938  0.82372  1.0000
  H   H2241     1.0  0.69580  0.28563  0.83655  1.0000
  H   H2242     1.0  0.70892  0.26848  0.84917  1.0000
  H   H2243     1.0  0.71692  0.28776  0.83790  1.0000
  H   H2244     1.0  0.69322  0.26582  0.81931  1.0000
  H   H2245     1.0  0.70550  0.24844  0.83243  1.0000
  H   H2246     1.0  0.71252  0.25240  0.80938  1.0000
  H   H2247     1.0  0.70528  0.29223  0.80445  1.0000
  H   H2248     1.0  0.72451  0.27901  0.79410  1.0000
  H   H2249     1.0  0.72654  0.29347  0.80643  1.0000
  H   H2250     1.0  0.68772  0.37002  0.57031  1.0000
  H   H2251     1.0  0.75971  0.19803  0.59242  1.0000
  H   H2252     1.0  0.65559  0.37249  0.55655  1.0000
  H   H2253     1.0  0.65236  0.22185  0.88832  1.0000
  C   C1425     1.0  0.66197  0.27278  0.93375  1.0000
  H   H2254     1.0  0.65164  0.33684  0.57889  1.0000
  H   H2255     1.0  0.65615  0.38215  0.57383  1.0000
  H   H2256     1.0  0.69559  0.34716  0.57277  1.0000
  H   H2257     1.0  0.62306  0.15485  0.94810  1.0000
  H   H2258     1.0  0.68393  0.24475  0.94659  1.0000
  C   C1426     1.0  0.65450  0.37019  0.57078  1.0000
  H   H2259     1.0  0.64846  0.18981  0.93204  1.0000
  H   H2260     1.0  0.64098  0.36831  0.57709  1.0000
  H   H2261     1.0  0.60402  0.25651  0.89789  1.0000
  C   C1427     1.0  0.66581  0.35243  0.59562  1.0000
  H   H2262     1.0  0.77409  0.21346  0.55540  1.0000
  H   H2263     1.0  0.59664  0.19515  0.78541  1.0000
  Fe  Fe285     1.0  0.63695  0.23837  0.96546  1.0000
  H   H2264     1.0  0.67555  0.34108  0.60052  1.0000
  C   C1428     1.0  0.60189  0.15342  0.81002  1.0000
  H   H2265     1.0  0.71030  0.32423  0.96585  1.0000
  H   H2266     1.0  0.63136  0.26722  0.66418  1.0000
  H   H2267     1.0  0.62836  0.23434  0.64137  1.0000
  H   H2268     1.0  0.65651  0.29709  0.49111  1.0000
  S   S572      1.0  0.62633  0.21239  0.48089  1.0000
  C   C1429     1.0  0.78747  0.14033  0.62803  1.0000
  H   H2269     1.0  0.77675  0.15650  0.65480  1.0000
  S   S573      1.0  0.62036  0.26385  0.95686  1.0000
  C   C1430     1.0  0.74559  0.28106  0.56592  1.0000
  Fe  Fe286     1.0  0.77309  0.14435  0.55029  1.0000
  H   H2270     1.0  0.62201  0.27338  0.63596  1.0000
  C   C1431     1.0  0.75494  0.11652  0.51367  1.0000
  H   H2271     1.0  0.78938  0.22554  0.57096  1.0000
  S   S574      1.0  0.71611  0.16504  0.95767  1.0000
  H   H2272     1.0  0.74222  0.11562  0.52181  1.0000
  C   C1432     1.0  0.77571  0.11210  0.48707  1.0000
  H   H2273     1.0  0.68303  0.29244  0.90979  1.0000
  H   H2274     1.0  0.74553  0.27842  0.52507  1.0000
  N   N144      1.0  0.77712  0.17700  0.48706  1.0000
  C   C1433     1.0  0.65437  0.22449  0.91320  1.0000
  C   C1434     1.0  0.75708  0.25641  0.55232  1.0000
  C   C1435     1.0  0.78252  0.19648  0.94973  1.0000
  H   H2275     1.0  0.63529  0.22963  0.66163  1.0000
  C   C1436     1.0  0.68875  0.25137  0.93315  1.0000
  C   C1437     1.0  0.69261  0.26566  0.48392  1.0000
  C   C1438     1.0  0.71161  0.13722  0.49672  1.0000
  H   H2276     1.0  0.66493  0.27887  0.50638  1.0000
  H   H2277     1.0  0.67453  0.32791  0.57674  1.0000
  H   H2278     1.0  0.66773  0.36386  0.59942  1.0000
  N   N145      1.0  0.66764  0.35507  0.57672  1.0000
  C   C1439     1.0  0.64670  0.16401  0.96020  1.0000
  C   C1440     1.0  0.78794  0.11780  0.49276  1.0000
  C   C1441     1.0  0.61813  0.16590  0.95491  1.0000
  N   N146      1.0  0.70742  0.14463  0.55537  1.0000
  C   C1442     1.0  0.69236  0.14290  0.54921  1.0000
  C   C1443     1.0  0.71897  0.15397  0.54097  1.0000
  C   C1444     1.0  0.71731  0.12728  0.56177  1.0000
  C   C1445     1.0  0.70113  0.15440  0.56947  1.0000
  H   H2279     1.0  0.68339  0.13582  0.55968  1.0000
  H   H2280     1.0  0.69672  0.13584  0.53835  1.0000
  H   H2281     1.0  0.68461  0.15577  0.54431  1.0000
  H   H2282     1.0  0.73069  0.15502  0.54505  1.0000
  H   H2283     1.0  0.72368  0.14719  0.52991  1.0000
  H   H2284     1.0  0.71212  0.16730  0.53609  1.0000
  H   H2285     1.0  0.72866  0.12812  0.56671  1.0000
  H   H2286     1.0  0.72269  0.11979  0.55127  1.0000
  H   H2287     1.0  0.70897  0.11966  0.57242  1.0000
  H   H2288     1.0  0.69356  0.16754  0.56504  1.0000
  H   H2289     1.0  0.71222  0.15610  0.57428  1.0000
  H   H2290     1.0  0.69245  0.14770  0.58063  1.0000
  H   H2291     1.0  0.74990  0.10679  0.49353  1.0000
  H   H2292     1.0  0.61143  0.21414  0.58101  1.0000
  H   H2293     1.0  0.77061  0.25881  0.54936  1.0000
  C   C1446     1.0  0.60330  0.18098  0.57145  1.0000
  C   C1447     1.0  0.68124  0.14900  0.49547  1.0000
  H   H2294     1.0  0.60241  0.16128  0.59471  1.0000
  C   C1448     1.0  0.71123  0.12367  0.48929  1.0000
  H   H2295     1.0  0.73508  0.38763  0.96389  1.0000
  H   H2296     1.0  0.60207  0.30303  0.66149  1.0000
  H   H2297     1.0  0.76735  0.13765  0.65992  1.0000
  S   S575      1.0  0.61742  0.21734  0.89251  1.0000
  S   S576      1.0  0.78346  0.17843  0.56986  1.0000
  H   H2298     1.0  0.75877  0.28423  0.56327  1.0000
  N   N147      1.0  0.78421  0.21198  0.95489  1.0000
  S   S577      1.0  0.76120  0.12748  0.54014  1.0000
  H   H2299     1.0  0.70226  0.27573  0.90913  1.0000
  H   H2300     1.0  0.77768  0.22953  0.93186  1.0000
  H   H2301     1.0  0.75661  0.12996  0.63746  1.0000
  H   H2302     1.0  0.60036  0.15861  0.89633  1.0000
  C   C1449     1.0  0.76678  0.15094  0.65192  1.0000
  H   H2303     1.0  0.75934  0.22641  0.94936  1.0000
  N   N148      1.0  0.68121  0.27009  0.93034  1.0000
  H   H2304     1.0  0.68359  0.27288  0.90299  1.0000
  H   H2305     1.0  0.65266  0.34989  0.60269  1.0000
  H   H2306     1.0  0.61997  0.17643  0.50025  1.0000
  H   H2307     1.0  0.65675  0.26701  0.94738  1.0000
  H   H2308     1.0  0.70257  0.27250  0.48480  1.0000
  H   H2309     1.0  0.59997  0.20146  0.54933  1.0000
  H   H2310     1.0  0.59962  0.27669  0.64735  1.0000
  H   H2311     1.0  0.68518  0.24508  0.92427  1.0000
  H   H2312     1.0  0.75062  0.18021  0.50138  1.0000
  C   C1450     1.0  0.68773  0.27817  0.91225  1.0000
  C   C1451     1.0  0.75919  0.11159  0.49757  1.0000
  C   C1452     1.0  0.66485  0.33956  0.57247  1.0000
  H   H2313     1.0  0.73691  0.29673  0.53518  1.0000
  H   H2314     1.0  0.65194  0.15250  0.95409  1.0000
  H   H2315     1.0  0.78444  0.27137  0.73185  1.0000
  H   H2316     1.0  0.61324  0.16057  0.96878  1.0000
  H   H2317     1.0  0.67774  0.29495  0.49558  1.0000
  H   H2318     1.0  0.78844  0.12660  0.63491  1.0000
  S   S578      1.0  0.62615  0.17741  0.56678  1.0000
  H   H2319     1.0  0.71352  0.38941  0.96046  1.0000
  C   C1453     1.0  0.69668  0.15006  0.49958  1.0000
  C   C1454     1.0  0.79283  0.29832  0.77994  1.0000
  C   C1455     1.0  0.79318  0.21629  0.53161  1.0000
  H   H2320     1.0  0.75620  0.24964  0.54243  1.0000
  H   H2321     1.0  0.65771  0.17071  0.95818  1.0000
  H   H2322     1.0  0.64256  0.24647  0.64433  1.0000
  C   C1456     1.0  0.63819  0.18218  0.93417  1.0000
  C   C1457     1.0  0.78604  0.21791  0.54876  1.0000
  H   H2323     1.0  0.75988  0.28766  0.53203  1.0000
  H   H2324     1.0  0.66916  0.13504  0.48411  1.0000
  H   H2325     1.0  0.77405  0.23934  0.95010  1.0000
  H   H2326     1.0  0.60164  0.19826  0.81327  1.0000
  H   H2327     1.0  0.72376  0.25984  0.56937  1.0000
  H   H2328     1.0  0.72275  0.11377  0.48702  1.0000
  H   H2329     1.0  0.60747  0.26148  0.63323  1.0000
  H   H2330     1.0  0.61025  0.17002  0.53264  1.0000
  H   H2331     1.0  0.60457  0.23723  0.57787  1.0000
  C   C1458     1.0  0.59983  0.22485  0.58269  1.0000
  C   C1459     1.0  0.76907  0.16873  0.62328  1.0000
  C   C1460     1.0  0.71458  0.41762  0.97131  1.0000
  H   H2332     1.0  0.66603  0.31544  0.96745  1.0000
  H   H2333     1.0  0.70660  0.42070  0.96123  1.0000
  H   H2334     1.0  0.75583  0.17687  0.62650  1.0000
  C   C1461     1.0  0.63118  0.24025  0.65099  1.0000
  H   H2335     1.0  0.76078  0.30912  0.97407  1.0000
  C   C1462     1.0  0.69607  0.12304  0.48443  1.0000
  C   C1463     1.0  0.66859  0.28767  0.49380  1.0000
  S   S579      1.0  0.78561  0.20331  0.52225  1.0000
  Fe  Fe287     1.0  0.59887  0.25348  0.97705  1.0000
  C   C1464     1.0  0.68091  0.13549  0.48791  1.0000
  C   C1465     1.0  0.60219  0.22393  0.61182  1.0000
  H   H2336     1.0  0.72814  0.41905  0.96464  1.0000
  H   H2337     1.0  0.76530  0.16176  0.51067  1.0000
  C   C1466     1.0  0.76423  0.17544  0.50355  1.0000
  H   H2338     1.0  0.77809  0.20320  0.48657  1.0000
  H   H2339     1.0  0.60750  0.16198  0.49819  1.0000
  H   H2340     1.0  0.59735  0.23820  0.65699  1.0000
  H   H2341     1.0  0.60417  0.23373  0.67729  1.0000
  H   H2342     1.0  0.77414  0.15331  0.48217  1.0000
  C   C1467     1.0  0.59482  0.17115  0.58639  1.0000
  H   H2343     1.0  0.79079  0.18458  0.95589  1.0000
  C   C1468     1.0  0.77841  0.21021  0.97382  1.0000
  H   H2344     1.0  0.60163  0.25785  0.87639  1.0000
  H   H2345     1.0  0.60558  0.19990  0.51655  1.0000
  H   H2346     1.0  0.60696  0.23631  0.60768  1.0000
  H   H2347     1.0  0.66056  0.25886  0.49010  1.0000
  H   H2348     1.0  0.59540  0.22279  0.62564  1.0000
  N   N149      1.0  0.67663  0.27797  0.47978  1.0000
  H   H2349     1.0  0.79420  0.28680  0.73636  1.0000
  H   H2350     1.0  0.59885  0.15488  0.53004  1.0000
  S   S580      1.0  0.79450  0.24825  0.88294  1.0000
  H   H2351     1.0  0.59703  0.22399  0.78969  1.0000
  S   S581      1.0  0.59527  0.15179  0.79139  1.0000
  C   C1469     1.0  0.79458  0.22490  0.55751  1.0000
  C   C1470     1.0  0.77565  0.19538  0.47837  1.0000
  H   H2352     1.0  0.77944  0.22174  0.97812  1.0000
  H   H2353     1.0  0.72112  0.37383  0.97807  1.0000
  Fe  Fe288     1.0  0.63925  0.96930  0.24343  1.0000
  Fe  Fe289     1.0  0.64950  0.52373  0.17841  1.0000
  H   H2354     1.0  0.79118  0.98279  0.19121  1.0000
  H   H2355     1.0  0.68541  0.48474  0.16733  1.0000
  H   H2356     1.0  0.65347  0.88901  0.06974  1.0000
  H   H2357     1.0  0.69589  0.97944  0.27936  1.0000
  H   H2358     1.0  0.77479  0.48619  0.42528  1.0000
  Fe  Fe290     1.0  0.76701  0.53441  0.16441  1.0000
  S   S582      1.0  0.74899  0.54077  0.18888  1.0000
  S   S583      1.0  0.75735  0.51198  0.16029  1.0000
  C   C1471     1.0  0.60120  0.63654  0.27694  1.0000
  S   S584      1.0  0.77368  0.56667  0.18952  1.0000
  Fe  Fe291     1.0  0.75113  0.56815  0.17769  1.0000
  S   S585      1.0  0.72659  0.58849  0.18085  1.0000
  S   S586      1.0  0.76758  0.56260  0.15228  1.0000
  Fe  Fe292     1.0  0.66510  0.58847  0.29653  1.0000
  S   S587      1.0  0.67364  0.58863  0.26829  1.0000
  S   S588      1.0  0.66820  0.56394  0.31688  1.0000
  Fe  Fe293     1.0  0.64998  0.62744  0.29042  1.0000
  S   S589      1.0  0.65797  0.63091  0.26152  1.0000
  S   S590      1.0  0.63224  0.64759  0.30494  1.0000
  Fe  Fe294     1.0  0.64809  0.60668  0.26550  1.0000
  S   S591      1.0  0.63068  0.60375  0.24941  1.0000
  Fe  Fe295     1.0  0.68287  0.61269  0.26683  1.0000
  S   S592      1.0  0.70984  0.61388  0.25114  1.0000
  S   S593      1.0  0.63842  0.60422  0.29397  1.0000
  S   S594      1.0  0.67601  0.61146  0.29552  1.0000
  Fe  Fe296     1.0  0.78132  0.90276  0.23778  1.0000
  S   S595      1.0  0.77545  0.88735  0.26481  1.0000
  H   H2359     1.0  0.61253  0.88884  0.12447  1.0000
  Fe  Fe297     1.0  0.74467  0.90798  0.23167  1.0000
  S   S596      1.0  0.73572  0.89255  0.25788  1.0000
  S   S597      1.0  0.72686  0.92298  0.21335  1.0000
  Fe  Fe298     1.0  0.75032  0.90730  0.26735  1.0000
  S   S598      1.0  0.73407  0.92067  0.28908  1.0000
  Fe  Fe299     1.0  0.76160  0.87420  0.25289  1.0000
  S   S599      1.0  0.76545  0.84552  0.25474  1.0000
  S   S600      1.0  0.75769  0.92381  0.24126  1.0000
  S   S601      1.0  0.76910  0.88852  0.22566  1.0000
  Fe  Fe300     1.0  0.66597  0.91431  0.13213  1.0000
  S   S602      1.0  0.67448  0.88566  0.14116  1.0000
  S   S603      1.0  0.67935  0.93147  0.10889  1.0000
  Fe  Fe301     1.0  0.63673  0.91701  0.16324  1.0000
  S   S604      1.0  0.64276  0.88888  0.17498  1.0000
  S   S605      1.0  0.61640  0.93570  0.17706  1.0000
  Fe  Fe302     1.0  0.67071  0.89204  0.16723  1.0000
  S   S606      1.0  0.68953  0.87925  0.18524  1.0000
  Fe  Fe303     1.0  0.64563  0.88507  0.14800  1.0000
  S   S607      1.0  0.63575  0.86239  0.14485  1.0000
  S   S608      1.0  0.66429  0.92058  0.15753  1.0000
  S   S609      1.0  0.63743  0.91333  0.13681  1.0000
  H   H2360     1.0  0.77923  0.52537  0.31101  1.0000
  H   H2361     1.0  0.66248  0.86852  0.10470  1.0000
  C   C1472     1.0  0.68560  0.91745  0.24279  1.0000
  H   H2362     1.0  0.59560  0.74703  0.29751  1.0000
  H   H2363     1.0  0.78158  0.84362  0.28351  1.0000
  C   C1473     1.0  0.75273  0.96550  0.37647  1.0000
  Fe  Fe304     1.0  0.79039  0.55930  0.16529  1.0000
  N   N150      1.0  0.76093  0.94350  0.16894  1.0000
  H   H2364     1.0  0.59642  0.63319  0.21125  1.0000
  H   H2365     1.0  0.69772  0.49370  0.27306  1.0000
  H   H2366     1.0  0.75616  0.50038  0.41764  1.0000
  H   H2367     1.0  0.62693  0.55880  0.29510  1.0000
  H   H2368     1.0  0.78059  0.56227  0.27364  1.0000
  C   C1474     1.0  0.60719  0.67688  0.29992  1.0000
  H   H2369     1.0  0.77261  0.48453  0.23794  1.0000
  H   H2370     1.0  0.74608  0.93506  0.15537  1.0000
  S   S610      1.0  0.66904  0.50853  0.19445  1.0000
  H   H2371     1.0  0.74725  0.95370  0.37879  1.0000
  H   H2372     1.0  0.64214  0.88262  0.10125  1.0000
  S   S611      1.0  0.75778  0.96479  0.32974  1.0000
  H   H2373     1.0  0.69932  0.92012  0.13590  1.0000
  H   H2374     1.0  0.77517  0.61049  0.17687  1.0000
  C   C1475     1.0  0.74583  0.49170  0.14524  1.0000
  H   H2375     1.0  0.69991  0.91261  0.24183  1.0000
  H   H2376     1.0  0.67299  0.88451  0.27467  1.0000
  H   H2377     1.0  0.67372  0.53270  0.26636  1.0000
  C   C1476     1.0  0.72231  0.96044  0.26113  1.0000
  C   C1477     1.0  0.75978  0.49458  0.20904  1.0000
  C   C1478     1.0  0.67764  0.51119  0.12522  1.0000
  C   C1479     1.0  0.66301  0.51451  0.13835  1.0000
  C   C1480     1.0  0.64977  0.50511  0.14214  1.0000
  H   H2378     1.0  0.67866  0.96596  0.13679  1.0000
  H   H2379     1.0  0.62416  0.64023  0.24644  1.0000
  H   H2380     1.0  0.76982  0.95630  0.40271  1.0000
  C   C1481     1.0  0.66305  0.98034  0.30471  1.0000
  H   H2381     1.0  0.64106  0.48492  0.13592  1.0000
  H   H2382     1.0  0.59838  0.58574  0.22061  1.0000
  C   C1482     1.0  0.64444  0.94888  0.21218  1.0000
  C   C1483     1.0  0.76667  0.53489  0.31075  1.0000
  H   H2383     1.0  0.64909  0.90033  0.25896  1.0000
  H   H2384     1.0  0.63714  0.56940  0.27425  1.0000
  C   C1484     1.0  0.68084  0.89040  0.23991  1.0000
  Fe  Fe305     1.0  0.65886  0.52924  0.20970  1.0000
  H   H2385     1.0  0.74518  0.92408  0.17747  1.0000
  H   H2386     1.0  0.73920  0.48701  0.15824  1.0000
  H   H2387     1.0  0.65326  0.91709  0.24032  1.0000
  C   C1485     1.0  0.62610  0.93996  0.19199  1.0000
  H   H2388     1.0  0.67666  0.90466  0.27671  1.0000
  H   H2389     1.0  0.77219  0.51995  0.12295  1.0000
  C   C1486     1.0  0.65077  0.93358  0.20596  1.0000
  C   C1487     1.0  0.64140  0.92895  0.19622  1.0000
  H   H2390     1.0  0.66299  0.92536  0.20851  1.0000
  H   H2391     1.0  0.64622  0.91691  0.19180  1.0000
  C   C1488     1.0  0.71727  0.91067  0.20491  1.0000
  C   C1489     1.0  0.72122  0.89263  0.20886  1.0000
  C   C1490     1.0  0.71283  0.88315  0.20248  1.0000
  C   C1491     1.0  0.70050  0.89163  0.19213  1.0000
  C   C1492     1.0  0.69676  0.90970  0.18803  1.0000
  C   C1493     1.0  0.70514  0.91917  0.19440  1.0000
  H   H2392     1.0  0.73063  0.88594  0.21692  1.0000
  H   H2393     1.0  0.71583  0.86917  0.20567  1.0000
  H   H2394     1.0  0.68729  0.91636  0.18013  1.0000
  H   H2395     1.0  0.70209  0.93311  0.19138  1.0000
  C   C1494     1.0  0.74130  0.93354  0.29925  1.0000
  C   C1495     1.0  0.72871  0.94464  0.30894  1.0000
  C   C1496     1.0  0.73373  0.95477  0.31769  1.0000
  C   C1497     1.0  0.75140  0.95343  0.31736  1.0000
  C   C1498     1.0  0.76405  0.94243  0.30758  1.0000
  C   C1499     1.0  0.75904  0.93270  0.29831  1.0000
  H   H2396     1.0  0.71497  0.94526  0.30992  1.0000
  H   H2397     1.0  0.72385  0.96312  0.32524  1.0000
  H   H2398     1.0  0.77776  0.94132  0.30724  1.0000
  H   H2399     1.0  0.76885  0.92418  0.29091  1.0000
  H   H2400     1.0  0.74553  0.49436  0.39419  1.0000
  C   C1500     1.0  0.75315  0.49060  0.11469  1.0000
  C   C1501     1.0  0.65524  0.91170  0.08769  1.0000
  H   H2401     1.0  0.76471  0.95691  0.14239  1.0000
  H   H2402     1.0  0.76752  0.60317  0.19964  1.0000
  C   C1502     1.0  0.64321  0.58835  0.23747  1.0000
  C   C1503     1.0  0.66125  0.58733  0.23195  1.0000
  C   C1504     1.0  0.67170  0.57334  0.22480  1.0000
  C   C1505     1.0  0.66401  0.56051  0.22306  1.0000
  C   C1506     1.0  0.64585  0.56209  0.22769  1.0000
  C   C1507     1.0  0.63545  0.57598  0.23497  1.0000
  H   H2403     1.0  0.66724  0.59715  0.23349  1.0000
  H   H2404     1.0  0.68574  0.57227  0.22104  1.0000
  H   H2405     1.0  0.60199  0.81029  0.20042  1.0000
  C   C1508     1.0  0.68735  0.54800  0.31363  1.0000
  C   C1509     1.0  0.69098  0.53424  0.32735  1.0000
  C   C1510     1.0  0.70549  0.52071  0.32483  1.0000
  C   C1511     1.0  0.71608  0.52062  0.30840  1.0000
  C   C1512     1.0  0.71246  0.53436  0.29467  1.0000
  C   C1513     1.0  0.69838  0.54822  0.29736  1.0000
  H   H2406     1.0  0.68249  0.53401  0.33997  1.0000
  H   H2407     1.0  0.73815  0.64479  0.20680  1.0000
  H   H2408     1.0  0.72062  0.53436  0.28191  1.0000
  H   H2409     1.0  0.69589  0.55888  0.28677  1.0000
  C   C1514     1.0  0.72068  0.59384  0.20142  1.0000
  C   C1515     1.0  0.70549  0.60610  0.20555  1.0000
  C   C1516     1.0  0.70160  0.61166  0.22128  1.0000
  C   C1517     1.0  0.71317  0.60532  0.23267  1.0000
  C   C1518     1.0  0.72809  0.59277  0.22874  1.0000
  C   C1519     1.0  0.73161  0.58677  0.21335  1.0000
  H   H2410     1.0  0.69686  0.61149  0.19648  1.0000
  H   H2411     1.0  0.69000  0.62133  0.22431  1.0000
  H   H2412     1.0  0.73691  0.58764  0.23765  1.0000
  H   H2413     1.0  0.74287  0.57680  0.21072  1.0000
  C   C1520     1.0  0.75582  0.50439  0.14229  1.0000
  H   H2414     1.0  0.77524  0.55862  0.22363  1.0000
  H   H2415     1.0  0.69105  0.49500  0.10673  1.0000
  C   C1521     1.0  0.65542  0.88224  0.10315  1.0000
  C   C1522     1.0  0.76319  0.50325  0.11174  1.0000
  C   C1523     1.0  0.76441  0.51024  0.12543  1.0000
  H   H2416     1.0  0.62666  0.61329  0.18761  1.0000
  H   H2417     1.0  0.59687  0.63052  0.24785  1.0000
  H   H2418     1.0  0.66058  0.53564  0.30493  1.0000
  H   H2419     1.0  0.79210  0.49025  0.39534  1.0000
  H   H2420     1.0  0.76880  0.50335  0.20142  1.0000
  Fe  Fe306     1.0  0.62110  0.53069  0.20989  1.0000
  C   C1524     1.0  0.78023  0.49034  0.39075  1.0000
  C   C1525     1.0  0.61739  0.86197  0.13679  1.0000
  C   C1526     1.0  0.59818  0.84489  0.13287  1.0000
  H   H2421     1.0  0.61321  0.72706  0.31785  1.0000
  H   H2422     1.0  0.62154  0.57659  0.23945  1.0000
  C   C1527     1.0  0.71323  0.94021  0.13337  1.0000
  Fe  Fe307     1.0  0.74739  0.48761  0.32557  1.0000
  S   S612      1.0  0.79117  0.53065  0.17504  1.0000
  C   C1528     1.0  0.60853  0.69936  0.27393  1.0000
  C   C1529     1.0  0.62509  0.69036  0.26722  1.0000
  C   C1530     1.0  0.63253  0.67447  0.27665  1.0000
  C   C1531     1.0  0.62354  0.66765  0.29299  1.0000
  C   C1532     1.0  0.65129  0.49223  0.13295  1.0000
  H   H2423     1.0  0.65270  0.92038  0.26127  1.0000
  H   H2424     1.0  0.63214  0.69563  0.25461  1.0000
  H   H2425     1.0  0.64529  0.66759  0.27136  1.0000
  H   H2426     1.0  0.72281  0.96631  0.40071  1.0000
  H   H2427     1.0  0.68183  0.96229  0.31854  1.0000
  S   S613      1.0  0.63869  0.51588  0.22850  1.0000
  Fe  Fe308     1.0  0.77295  0.53863  0.19849  1.0000
  H   H2428     1.0  0.60845  0.64070  0.28460  1.0000
  H   H2429     1.0  0.65403  0.91626  0.09975  1.0000
  H   H2430     1.0  0.68311  0.94804  0.27492  1.0000
  H   H2431     1.0  0.73814  0.96296  0.16466  1.0000
  H   H2432     1.0  0.67378  0.87460  0.07281  1.0000
  C   C1533     1.0  0.69812  0.95682  0.10481  1.0000
  C   C1534     1.0  0.69418  0.94086  0.11439  1.0000
  C   C1535     1.0  0.70186  0.93260  0.12865  1.0000
  C   C1536     1.0  0.65282  0.53074  0.29839  1.0000
  H   H2433     1.0  0.67368  0.89651  0.06123  1.0000
  S   S614      1.0  0.62801  0.50981  0.19421  1.0000
  N   N151      1.0  0.70355  0.96208  0.26169  1.0000
  H   H2434     1.0  0.79380  0.57223  0.23385  1.0000
  H   H2435     1.0  0.60197  0.58921  0.18947  1.0000
  C   C1537     1.0  0.78308  0.83095  0.26292  1.0000
  N   N152      1.0  0.75795  0.63008  0.18997  1.0000
  C   C1538     1.0  0.77241  0.63580  0.19358  1.0000
  C   C1539     1.0  0.74278  0.63136  0.20454  1.0000
  C   C1540     1.0  0.59509  0.87520  0.11952  1.0000
  C   C1541     1.0  0.75286  0.64114  0.17395  1.0000
  C   C1542     1.0  0.77221  0.95090  0.15287  1.0000
  N   N153      1.0  0.59877  0.64949  0.26096  1.0000
  H   H2436     1.0  0.71913  0.93356  0.14438  1.0000
  S   S615      1.0  0.59535  0.54528  0.22280  1.0000
  H   H2437     1.0  0.62408  0.61069  0.21057  1.0000
  H   H2438     1.0  0.60320  0.90153  0.19708  1.0000
  H   H2439     1.0  0.60021  0.67161  0.31256  1.0000
  C   C1543     1.0  0.69380  0.97859  0.26667  1.0000
  H   H2440     1.0  0.78324  0.94087  0.14807  1.0000
  N   N154      1.0  0.60125  0.60946  0.20228  1.0000
  H   H2441     1.0  0.74819  0.56570  0.28031  1.0000
  C   C1544     1.0  0.66635  0.48828  0.12047  1.0000
  H   H2442     1.0  0.75588  0.52757  0.31581  1.0000
  H   H2443     1.0  0.78242  0.92565  0.17886  1.0000
  N   N155      1.0  0.64945  0.54288  0.28222  1.0000
  H   H2444     1.0  0.68785  0.51854  0.12214  1.0000
  C   C1545     1.0  0.71695  0.95628  0.12406  1.0000
  C   C1546     1.0  0.62857  0.95940  0.20886  1.0000
  C   C1547     1.0  0.74934  0.55795  0.29347  1.0000
  C   C1548     1.0  0.75389  0.92984  0.16568  1.0000
  C   C1549     1.0  0.76326  0.48668  0.41993  1.0000
  C   C1550     1.0  0.74434  0.48498  0.13153  1.0000
  S   S616      1.0  0.67697  0.54184  0.21642  1.0000
  Fe  Fe309     1.0  0.63895  0.97317  0.27937  1.0000
  H   H2445     1.0  0.76309  0.93035  0.19493  1.0000
  H   H2446     1.0  0.74598  0.62288  0.21682  1.0000
  H   H2447     1.0  0.60302  0.71311  0.33640  1.0000
  H   H2448     1.0  0.70469  0.93485  0.27166  1.0000
  C   C1551     1.0  0.69708  0.94755  0.27454  1.0000
  H   H2449     1.0  0.74818  0.56712  0.30191  1.0000
  C   C1552     1.0  0.60862  0.87659  0.12686  1.0000
  H   H2450     1.0  0.64382  0.97438  0.17452  1.0000
  C   C1553     1.0  0.75534  0.96018  0.40627  1.0000
  H   H2451     1.0  0.75593  0.52663  0.28579  1.0000
  C   C1554     1.0  0.77125  0.93606  0.18263  1.0000
  H   H2452     1.0  0.62631  0.53410  0.28269  1.0000
  S   S617      1.0  0.74415  0.49285  0.35198  1.0000
  H   H2453     1.0  0.59939  0.63579  0.18822  1.0000
  Fe  Fe310     1.0  0.64720  0.49627  0.21163  1.0000
  H   H2454     1.0  0.72775  0.97103  0.25145  1.0000
  C   C1555     1.0  0.60244  0.71973  0.32280  1.0000
  H   H2455     1.0  0.67466  0.54963  0.27631  1.0000
  S   S618      1.0  0.66185  0.53000  0.15027  1.0000
  H   H2456     1.0  0.74987  0.94827  0.40947  1.0000
  H   H2457     1.0  0.78476  0.48537  0.37855  1.0000
  H   H2458     1.0  0.60882  0.62388  0.27399  1.0000
  H   H2459     1.0  0.68146  0.92799  0.25020  1.0000
  H   H2460     1.0  0.60752  0.96349  0.19551  1.0000
  H   H2461     1.0  0.63609  0.54501  0.26190  1.0000
  H   H2462     1.0  0.67356  0.87970  0.24546  1.0000
  S   S619      1.0  0.59939  0.71897  0.26153  1.0000
  H   H2463     1.0  0.78068  0.56277  0.29545  1.0000
  H   H2464     1.0  0.72106  0.49123  0.26966  1.0000
  H   H2465     1.0  0.75316  0.60729  0.18488  1.0000
  H   H2466     1.0  0.68698  0.96285  0.24450  1.0000
  H   H2467     1.0  0.63831  0.50783  0.15207  1.0000
  H   H2468     1.0  0.78414  0.63493  0.18288  1.0000
  H   H2469     1.0  0.78752  0.81508  0.24419  1.0000
  S   S620      1.0  0.77580  0.48855  0.31794  1.0000
  N   N156      1.0  0.66494  0.89363  0.08876  1.0000
  H   H2470     1.0  0.75121  0.96792  0.17683  1.0000
  C   C1556     1.0  0.63973  0.55982  0.28617  1.0000
  H   H2471     1.0  0.69810  0.94779  0.28782  1.0000
  S   S621      1.0  0.65685  0.95495  0.22348  1.0000
  N   N157      1.0  0.70562  0.54297  0.16433  1.0000
  C   C1557     1.0  0.68784  0.55360  0.16774  1.0000
  C   C1558     1.0  0.71010  0.53264  0.18086  1.0000
  C   C1559     1.0  0.71832  0.55432  0.15589  1.0000
  C   C1560     1.0  0.70620  0.53129  0.15292  1.0000
  H   H2472     1.0  0.68400  0.56166  0.15558  1.0000
  H   H2473     1.0  0.68685  0.56231  0.17662  1.0000
  H   H2474     1.0  0.67798  0.54535  0.17391  1.0000
  H   H2475     1.0  0.72327  0.52419  0.17880  1.0000
  H   H2476     1.0  0.71001  0.54110  0.18966  1.0000
  H   H2477     1.0  0.70057  0.52422  0.18781  1.0000
  H   H2478     1.0  0.73188  0.54665  0.15324  1.0000
  H   H2479     1.0  0.71819  0.56332  0.16417  1.0000
  H   H2480     1.0  0.71539  0.56230  0.14335  1.0000
  H   H2481     1.0  0.71953  0.52337  0.14974  1.0000
  H   H2482     1.0  0.70234  0.53864  0.14052  1.0000
  H   H2483     1.0  0.69704  0.52229  0.15907  1.0000
  H   H2484     1.0  0.76562  0.54319  0.32001  1.0000
  H   H2485     1.0  0.73788  0.55155  0.29850  1.0000
  C   C1561     1.0  0.70912  0.48872  0.27949  1.0000
  C   C1562     1.0  0.66626  0.54500  0.27031  1.0000
  H   H2486     1.0  0.62376  0.97137  0.21337  1.0000
  H   H2487     1.0  0.65366  0.88610  0.11566  1.0000
  S   S622      1.0  0.65630  0.96408  0.29891  1.0000
  H   H2488     1.0  0.64179  0.91316  0.08565  1.0000
  C   C1563     1.0  0.61940  0.95497  0.19869  1.0000
  C   C1564     1.0  0.74633  0.95724  0.17458  1.0000
  H   H2489     1.0  0.66024  0.51786  0.29591  1.0000
  S   S623      1.0  0.73098  0.96516  0.13126  1.0000
  C   C1565     1.0  0.78083  0.55416  0.28680  1.0000
  C   C1566     1.0  0.72902  0.97776  0.39740  1.0000
  H   H2490     1.0  0.66207  0.92067  0.07698  1.0000
  S   S624      1.0  0.64089  0.54559  0.19250  1.0000
  H   H2491     1.0  0.77351  0.50406  0.38728  1.0000
  H   H2492     1.0  0.69002  0.95104  0.16351  1.0000
  C   C1567     1.0  0.61205  0.84616  0.13976  1.0000
  C   C1568     1.0  0.59704  0.60338  0.18854  1.0000
  H   H2493     1.0  0.74206  0.63703  0.17082  1.0000
  H   H2494     1.0  0.66422  0.55466  0.25833  1.0000
  H   H2495     1.0  0.67951  0.97993  0.26807  1.0000
  H   H2496     1.0  0.69230  0.96328  0.09371  1.0000
  H   H2497     1.0  0.69023  0.87890  0.09293  1.0000
  H   H2498     1.0  0.70811  0.51009  0.33546  1.0000
  S   S625      1.0  0.73315  0.50301  0.30430  1.0000
  S   S626      1.0  0.63104  0.95357  0.26963  1.0000
  S   S627      1.0  0.77631  0.52275  0.22454  1.0000
  H   H2499     1.0  0.68344  0.92336  0.22944  1.0000
  C   C1569     1.0  0.67616  0.97577  0.31445  1.0000
  H   H2500     1.0  0.69011  0.90083  0.08116  1.0000
  H   H2501     1.0  0.60288  0.60998  0.17544  1.0000
  C   C1570     1.0  0.67945  0.49790  0.11647  1.0000
  N   N158      1.0  0.76597  0.54514  0.29313  1.0000
  H   H2502     1.0  0.77008  0.50769  0.09877  1.0000
  C   C1571     1.0  0.68256  0.89238  0.09177  1.0000
  H   H2503     1.0  0.59710  0.60377  0.23003  1.0000
  C   C1572     1.0  0.67740  0.95725  0.17087  1.0000
  N   N159      1.0  0.74823  0.97300  0.39211  1.0000
  Fe  Fe311     1.0  0.77301  0.49179  0.34481  1.0000
  C   C1573     1.0  0.59959  0.69257  0.29032  1.0000
  C   C1574     1.0  0.70935  0.96462  0.10973  1.0000
  H   H2504     1.0  0.77791  0.96113  0.15488  1.0000
  H   H2505     1.0  0.75139  0.50070  0.21985  1.0000
  H   H2506     1.0  0.68182  0.89664  0.10387  1.0000
  H   H2507     1.0  0.76712  0.96191  0.37191  1.0000
  C   C1575     1.0  0.76373  0.61197  0.18776  1.0000
  H   H2508     1.0  0.64042  0.52890  0.30775  1.0000
  H   H2509     1.0  0.61891  0.83474  0.14719  1.0000
  H   H2510     1.0  0.70751  0.49649  0.28938  1.0000
  H   H2511     1.0  0.74831  0.65491  0.17516  1.0000
  H   H2512     1.0  0.76404  0.64049  0.16271  1.0000
  C   C1576     1.0  0.66665  0.97210  0.14495  1.0000
  H   H2513     1.0  0.75134  0.49408  0.20039  1.0000
  C   C1577     1.0  0.70104  0.96169  0.24449  1.0000
  H   H2514     1.0  0.72459  0.96072  0.27393  1.0000
  H   H2515     1.0  0.76451  0.91919  0.16148  1.0000
  H   H2516     1.0  0.64610  0.52340  0.27051  1.0000
  C   C1578     1.0  0.66655  0.88821  0.07239  1.0000
  C   C1579     1.0  0.68014  0.89517  0.26810  1.0000
  H   H2517     1.0  0.64721  0.56527  0.29247  1.0000
  H   H2518     1.0  0.69438  0.88955  0.26701  1.0000
  H   H2519     1.0  0.67963  0.95829  0.18344  1.0000
  C   C1580     1.0  0.78493  0.55062  0.23075  1.0000
  N   N160      1.0  0.67586  0.90339  0.25094  1.0000
  H   H2520     1.0  0.63981  0.55219  0.22650  1.0000
  H   H2521     1.0  0.69578  0.97985  0.14857  1.0000
  C   C1581     1.0  0.65689  0.91056  0.25299  1.0000
  C   C1582     1.0  0.78826  0.83283  0.27732  1.0000
  H   H2522     1.0  0.67813  0.89624  0.22673  1.0000
  H   H2523     1.0  0.69503  0.88454  0.23833  1.0000
  C   C1583     1.0  0.63903  0.53602  0.27401  1.0000
  H   H2524     1.0  0.73765  0.95215  0.18677  1.0000
  H   H2525     1.0  0.62337  0.65674  0.25761  1.0000
  H   H2526     1.0  0.71223  0.97697  0.10238  1.0000
  H   H2527     1.0  0.77928  0.52349  0.28116  1.0000
  H   H2528     1.0  0.70568  0.97250  0.23444  1.0000
  H   H2529     1.0  0.73158  0.62737  0.20209  1.0000
  Fe  Fe312     1.0  0.60509  0.97173  0.26954  1.0000
  H   H2530     1.0  0.76674  0.54077  0.26805  1.0000
  C   C1584     1.0  0.61598  0.65230  0.25037  1.0000
  C   C1585     1.0  0.79160  0.81672  0.25521  1.0000
  C   C1586     1.0  0.76704  0.53352  0.28152  1.0000
  H   H2531     1.0  0.73003  0.94797  0.25784  1.0000
  H   H2532     1.0  0.61464  0.66228  0.23839  1.0000
  C   C1587     1.0  0.62043  0.60632  0.20034  1.0000
  H   H2533     1.0  0.75215  0.96549  0.41823  1.0000
  H   H2534     1.0  0.76856  0.64946  0.19522  1.0000
  H   H2535     1.0  0.77653  0.62776  0.20562  1.0000
  S   S628      1.0  0.78544  0.51230  0.34727  1.0000
  H   H2536     1.0  0.77670  0.94608  0.18542  1.0000
  H   H2537     1.0  0.66822  0.94831  0.17381  1.0000
  H   H2538     1.0  0.60531  0.70953  0.31506  1.0000
  H   H2539     1.0  0.70835  0.94940  0.24035  1.0000
  H   H2540     1.0  0.62635  0.59231  0.20132  1.0000
  H   H2541     1.0  0.74745  0.97476  0.36557  1.0000
  N   N161      1.0  0.67035  0.97431  0.16098  1.0000
  C   C1588     1.0  0.78711  0.53263  0.23410  1.0000
  H   H2542     1.0  0.79054  0.48644  0.21982  1.0000
  H   H2543     1.0  0.79361  0.54484  0.28604  1.0000
  H   H2544     1.0  0.65695  0.96365  0.14777  1.0000
  C   C1589     1.0  0.65401  0.98228  0.17155  1.0000
  Fe  Fe313     1.0  0.84478  0.00596  0.20483  1.0000
  S   S629      1.0  0.86283  0.01770  0.21355  1.0000
  C   C1590     1.0  0.84497  0.48211  0.23215  1.0000
  Fe  Fe314     1.0  0.84315  0.01657  0.23868  1.0000
  C   C1591     1.0  0.90225  0.25189  0.98210  1.0000
  C   C1592     1.0  0.84301  0.26150  0.03698  1.0000
  S   S630      1.0  0.85852  0.23197  0.99106  1.0000
  S   S631      1.0  0.81627  0.24328  0.99278  1.0000
  H   H2545     1.0  0.84710  0.36632  0.41188  1.0000
  C   C1593     1.0  0.86961  0.19096  0.46781  1.0000
  H   H2546     1.0  0.86397  0.07980  0.24236  1.0000
  H   H2547     1.0  0.82816  0.30349  0.05539  1.0000
  S   S632      1.0  0.82894  0.19562  0.00644  1.0000
  S   S633      1.0  0.79670  0.41975  0.22103  1.0000
  S   S634      1.0  0.83657  0.01716  0.17904  1.0000
  H   H2548     1.0  0.80132  0.32122  0.05413  1.0000
  H   H2549     1.0  0.82567  0.34934  0.41194  1.0000
  H   H2550     1.0  0.81544  0.99164  0.19809  1.0000
  H   H2551     1.0  0.80317  0.08484  0.26242  1.0000
  H   H2552     1.0  0.83064  0.35839  0.45962  1.0000
  H   H2553     1.0  0.79627  0.35874  0.15678  1.0000
  S   S635      1.0  0.81023  0.21280  0.43237  1.0000
  Fe  Fe315     1.0  0.83708  0.21977  0.98893  1.0000
  S   S636      1.0  0.79850  0.39747  0.19236  1.0000
  C   C1594     1.0  0.83529  0.29540  0.47514  1.0000
  H   H2554     1.0  0.80883  0.12759  0.41463  1.0000
  Fe  Fe316     1.0  0.82412  0.11428  0.28564  1.0000
  C   C1595     1.0  0.86248  0.47877  0.22369  1.0000
  H   H2555     1.0  0.85582  0.33078  0.17470  1.0000
  H   H2556     1.0  0.81502  0.34645  0.45922  1.0000
  H   H2557     1.0  0.87517  0.45402  0.27391  1.0000
  H   H2558     1.0  0.83562  0.31839  0.21068  1.0000
  H   H2559     1.0  0.89385  0.19162  0.47394  1.0000
  N   N162      1.0  0.79508  0.99778  0.28955  1.0000
  H   H2560     1.0  0.80829  0.27339  0.41138  1.0000
  Fe  Fe317     1.0  0.81967  0.43049  0.20355  1.0000
  S   S637      1.0  0.84115  0.27597  0.08168  1.0000
  S   S638      1.0  0.82198  0.45296  0.21441  1.0000
  C   C1596     1.0  0.81644  0.09339  0.42822  1.0000
  S   S639      1.0  0.83236  0.40159  0.15027  1.0000
  C   C1597     1.0  0.83266  0.07270  0.27849  1.0000
  H   H2561     1.0  0.85650  0.15423  0.29591  1.0000
  H   H2562     1.0  0.85412  0.33861  0.44437  1.0000
  S   S640      1.0  0.83501  0.40409  0.19878  1.0000
  H   H2563     1.0  0.87351  0.25405  0.00744  1.0000
  H   H2564     1.0  0.84706  0.11834  0.41732  1.0000
  Fe  Fe318     1.0  0.83093  0.18953  0.43898  1.0000
  C   C1598     1.0  0.81826  0.18365  0.99868  1.0000
  H   H2565     1.0  0.86149  0.43887  0.30290  1.0000
  Fe  Fe319     1.0  0.82842  0.17368  0.40897  1.0000
  C   C1599     1.0  0.87999  0.19702  0.47554  1.0000
  S   S641      1.0  0.83430  0.15088  0.39565  1.0000
  Fe  Fe320     1.0  0.82373  0.21230  0.40494  1.0000
  S   S642      1.0  0.82448  0.23679  0.38513  1.0000
  H   H2566     1.0  0.86965  0.28760  0.98079  1.0000
  H   H2567     1.0  0.84544  0.35290  0.12105  1.0000
  S   S643      1.0  0.84592  0.19035  0.41133  1.0000
  S   S644      1.0  0.81554  0.17065  0.43721  1.0000
  S   S645      1.0  0.79792  0.10855  0.28802  1.0000
  H   H2568     1.0  0.80207  0.24738  0.44554  1.0000
  C   C1600     1.0  0.83295  0.47374  0.28663  1.0000
  C   C1601     1.0  0.83859  0.37539  0.13260  1.0000
  H   H2569     1.0  0.81481  0.25456  0.35272  1.0000
  C   C1602     1.0  0.88797  0.13450  0.28588  1.0000
  H   H2570     1.0  0.80151  0.38545  0.16198  1.0000
  C   C1603     1.0  0.82165  0.15654  0.34225  1.0000
  C   C1604     1.0  0.82092  0.14119  0.35457  1.0000
  C   C1605     1.0  0.82467  0.13966  0.37091  1.0000
  C   C1606     1.0  0.82895  0.15350  0.37521  1.0000
  C   C1607     1.0  0.82954  0.16889  0.36292  1.0000
  H   H2571     1.0  0.82070  0.46960  0.29444  1.0000
  H   H2572     1.0  0.80968  0.33327  0.19760  1.0000
  H   H2573     1.0  0.82412  0.12770  0.38024  1.0000
  H   H2574     1.0  0.83306  0.17957  0.36593  1.0000
  H   H2575     1.0  0.85070  0.37965  0.12617  1.0000
  H   H2576     1.0  0.83874  0.32637  0.44399  1.0000
  H   H2577     1.0  0.80994  0.26213  0.08802  1.0000
  H   H2578     1.0  0.86499  0.15025  0.26531  1.0000
  H   H2579     1.0  0.82119  0.08874  0.21507  1.0000
  H   H2580     1.0  0.86076  0.13604  0.31312  1.0000
  H   H2581     1.0  0.88780  0.14859  0.28128  1.0000
  S   S646      1.0  0.82942  0.03413  0.25767  1.0000
  C   C1608     1.0  0.83552  0.36032  0.12949  1.0000
  H   H2582     1.0  0.80437  0.09214  0.43831  1.0000
  S   S647      1.0  0.82233  0.11094  0.31417  1.0000
  C   C1609     1.0  0.81211  0.12384  0.42769  1.0000
  H   H2583     1.0  0.81265  0.09624  0.41545  1.0000
  H   H2584     1.0  0.91226  0.24541  0.99009  1.0000
  C   C1610     1.0  0.83289  0.47375  0.22943  1.0000
  S   S648      1.0  0.82318  0.32513  0.09111  1.0000
  Fe  Fe321     1.0  0.79615  0.19416  0.42882  1.0000
  H   H2585     1.0  0.79654  0.27999  0.06387  1.0000
  H   H2586     1.0  0.80580  0.23206  0.07463  1.0000
  H   H2587     1.0  0.85477  0.43522  0.27609  1.0000
  H   H2588     1.0  0.84907  0.37041  0.43185  1.0000
  S   S649      1.0  0.79498  0.30211  0.09048  1.0000
  H   H2589     1.0  0.82685  0.18219  0.33699  1.0000
  H   H2590     1.0  0.81159  0.36924  0.45067  1.0000
  H   H2591     1.0  0.81896  0.05170  0.28561  1.0000
  H   H2592     1.0  0.83407  0.33712  0.21915  1.0000
  S   S650      1.0  0.84728  0.10147  0.26770  1.0000
  H   H2593     1.0  0.84435  0.13747  0.30140  1.0000
  H   H2594     1.0  0.82544  0.08057  0.42965  1.0000
  H   H2595     1.0  0.89418  0.24237  0.98291  1.0000
  H   H2596     1.0  0.79761  0.07544  0.30395  1.0000
  H   H2597     1.0  0.85241  0.33473  0.42418  1.0000
  H   H2598     1.0  0.82520  0.30413  0.02575  1.0000
  H   H2599     1.0  0.80946  0.35422  0.18391  1.0000
  H   H2600     1.0  0.80213  0.11221  0.24164  1.0000
  H   H2601     1.0  0.81107  0.45448  0.12228  1.0000
  C   C1611     1.0  0.84496  0.26130  0.05370  1.0000
  C   C1612     1.0  0.82889  0.05769  0.27617  1.0000
  C   C1613     1.0  0.83818  0.46184  0.21839  1.0000
  C   C1614     1.0  0.85576  0.45821  0.21025  1.0000
  C   C1615     1.0  0.86780  0.46671  0.21283  1.0000
  H   H2602     1.0  0.82205  0.06891  0.23089  1.0000
  Fe  Fe322     1.0  0.82120  0.40888  0.17657  1.0000
  H   H2603     1.0  0.86001  0.44914  0.20167  1.0000
  H   H2604     1.0  0.88133  0.46402  0.20624  1.0000
  S   S651      1.0  0.80761  0.19573  0.40080  1.0000
  C   C1616     1.0  0.80205  0.00125  0.27075  1.0000
  H   H2605     1.0  0.79948  0.06617  0.25721  1.0000
  H   H2606     1.0  0.87367  0.27486  0.01064  1.0000
  S   S652      1.0  0.80832  0.43607  0.17966  1.0000
  H   H2607     1.0  0.82596  0.07795  0.28983  1.0000
  C   C1617     1.0  0.84479  0.33770  0.43684  1.0000
  C   C1618     1.0  0.84064  0.10809  0.41645  1.0000
  C   C1619     1.0  0.81351  0.01833  0.15892  1.0000
  H   H2608     1.0  0.89812  0.12762  0.27652  1.0000
  Fe  Fe323     1.0  0.83783  0.25603  0.99234  1.0000
  H   H2609     1.0  0.82981  0.38066  0.42312  1.0000
  H   H2610     1.0  0.85393  0.35711  0.18583  1.0000
  C   C1620     1.0  0.84130  0.33388  0.17711  1.0000
  C   C1621     1.0  0.83928  0.27641  0.06051  1.0000
  H   H2611     1.0  0.81985  0.02817  0.14984  1.0000
  C   C1622     1.0  0.86373  0.46491  0.27504  1.0000
  H   H2612     1.0  0.83665  0.32169  0.17891  1.0000
  C   C1623     1.0  0.83743  0.05075  0.26149  1.0000
  H   H2613     1.0  0.86208  0.47150  0.26169  1.0000
  C   C1624     1.0  0.81898  0.35165  0.42508  1.0000
  C   C1625     1.0  0.84485  0.08106  0.26608  1.0000
  C   C1626     1.0  0.85430  0.07354  0.25191  1.0000
  C   C1627     1.0  0.85060  0.05836  0.24961  1.0000
  C   C1628     1.0  0.82176  0.35715  0.45179  1.0000
  H   H2614     1.0  0.83779  0.11136  0.40325  1.0000
  H   H2615     1.0  0.85736  0.05302  0.23829  1.0000
  C   C1629     1.0  0.82090  0.30911  0.47660  1.0000
  N   N163      1.0  0.83135  0.35373  0.43464  1.0000
  N   N164      1.0  0.79931  0.08856  0.23657  1.0000
  H   H2616     1.0  0.89219  0.13049  0.29851  1.0000
  H   H2617     1.0  0.82632  0.08766  0.23549  1.0000
  H   H2618     1.0  0.83664  0.28705  0.46630  1.0000
  C   C1630     1.0  0.83974  0.36842  0.42493  1.0000
  S   S653      1.0  0.81118  0.36794  0.23196  1.0000
  C   C1631     1.0  0.79476  0.10757  0.23449  1.0000
  H   H2619     1.0  0.87477  0.12901  0.26081  1.0000
  C   C1632     1.0  0.82493  0.17918  0.98251  1.0000
  H   H2620     1.0  0.83757  0.34237  0.16510  1.0000
  C   C1633     1.0  0.79873  0.01075  0.29720  1.0000
  H   H2621     1.0  0.80484  0.25200  0.41412  1.0000
  S   S654      1.0  0.85618  0.98999  0.24991  1.0000
  C   C1634     1.0  0.85758  0.13999  0.30002  1.0000
  H   H2622     1.0  0.85856  0.10849  0.29520  1.0000
  H   H2623     1.0  0.85063  0.24939  0.06149  1.0000
  Fe  Fe324     1.0  0.81226  0.32191  0.11984  1.0000
  H   H2624     1.0  0.81265  0.34047  0.43198  1.0000
  H   H2625     1.0  0.83505  0.11320  0.44876  1.0000
  C   C1635     1.0  0.85157  0.19735  0.47008  1.0000
  H   H2626     1.0  0.83839  0.09046  0.44918  1.0000
  C   C1636     1.0  0.79573  0.08052  0.25512  1.0000
  C   C1637     1.0  0.81804  0.08324  0.22915  1.0000
  Fe  Fe325     1.0  0.81106  0.39419  0.21466  1.0000
  C   C1638     1.0  0.82605  0.17033  0.34650  1.0000
  N   N165      1.0  0.87064  0.13063  0.28750  1.0000
  N   N166      1.0  0.84777  0.45886  0.28554  1.0000
  C   C1639     1.0  0.83585  0.27696  0.02683  1.0000
  H   H2627     1.0  0.81761  0.13441  0.42927  1.0000
  C   C1640     1.0  0.82905  0.10302  0.44710  1.0000
  H   H2628     1.0  0.79564  0.24484  0.05700  1.0000
  N   N167      1.0  0.83372  0.34234  0.19209  1.0000
  C   C1641     1.0  0.80791  0.36358  0.14967  1.0000
  C   C1642     1.0  0.79533  0.26115  0.44490  1.0000
  C   C1643     1.0  0.80312  0.25173  0.36192  1.0000
  H   H2629     1.0  0.80838  0.36336  0.42361  1.0000
  H   H2630     1.0  0.85401  0.45936  0.30941  1.0000
  H   H2631     1.0  0.87548  0.10709  0.30632  1.0000
  H   H2632     1.0  0.81729  0.10207  0.45760  1.0000
  C   C1644     1.0  0.81444  0.34549  0.19518  1.0000
  H   H2633     1.0  0.85415  0.32852  0.20585  1.0000
  H   H2634     1.0  0.80828  0.35168  0.20650  1.0000
  C   C1645     1.0  0.86554  0.13619  0.27048  1.0000
  C   C1646     1.0  0.87147  0.11184  0.29361  1.0000
  H   H2635     1.0  0.85240  0.13370  0.27132  1.0000
  H   H2636     1.0  0.83868  0.44598  0.31153  1.0000
  H   H2637     1.0  0.88079  0.10435  0.28423  1.0000
  C   C1647     1.0  0.79736  0.99275  0.18214  1.0000
  H   H2638     1.0  0.84715  0.24977  0.03192  1.0000
  H   H2639     1.0  0.79599  0.41359  0.12922  1.0000
  C   C1648     1.0  0.81104  0.37860  0.15289  1.0000
  S   S655      1.0  0.81972  0.33217  0.13996  1.0000
  C   C1649     1.0  0.83210  0.29175  0.05037  1.0000
  H   H2640     1.0  0.87551  0.18072  0.46068  1.0000
  S   S656      1.0  0.80571  0.31296  0.46321  1.0000
  C   C1650     1.0  0.82670  0.38424  0.14481  1.0000
  H   H2641     1.0  0.84260  0.47473  0.33399  1.0000
  Fe  Fe326     1.0  0.82228  0.29703  0.09450  1.0000
  S   S657      1.0  0.83402  0.27840  0.00541  1.0000
  H   H2642     1.0  0.85028  0.09566  0.41762  1.0000
  C   C1651     1.0  0.85063  0.45035  0.30313  1.0000
  C   C1652     1.0  0.83968  0.33105  0.20762  1.0000
  H   H2643     1.0  0.81752  0.13048  0.35150  1.0000
  C   C1653     1.0  0.83945  0.35895  0.18850  1.0000
  Fe  Fe327     1.0  0.80986  0.13919  0.31090  1.0000
  C   C1654     1.0  0.83055  0.29207  0.03356  1.0000
  C   C1655     1.0  0.81108  0.99776  0.18611  1.0000
  H   H2644     1.0  0.83040  0.48056  0.27362  1.0000
  H   H2645     1.0  0.81301  0.01040  0.29478  1.0000
  S   S658      1.0  0.81397  0.29320  0.12344  1.0000
  H   H2646     1.0  0.84110  0.45260  0.26428  1.0000
  N   N168      1.0  0.82454  0.10708  0.42987  1.0000
  H   H2647     1.0  0.81366  0.25080  0.06147  1.0000
  C   C1656     1.0  0.80185  0.16305  0.98734  1.0000
  S   S659      1.0  0.81395  0.14297  0.28187  1.0000
  C   C1657     1.0  0.84374  0.44646  0.27743  1.0000
  C   C1658     1.0  0.81925  0.01056  0.17449  1.0000
  S   S660      1.0  0.83805  0.18582  0.46522  1.0000
  H   H2648     1.0  0.81738  0.43233  0.11979  1.0000
  S   S661      1.0  0.82438  0.00702  0.22904  1.0000
  C   C1659     1.0  0.80418  0.24326  0.37890  1.0000
  C   C1660     1.0  0.82032  0.35409  0.13828  1.0000
  C   C1661     1.0  0.79787  0.25670  0.09328  1.0000
  H   H2649     1.0  0.83418  0.36560  0.19960  1.0000
  C   C1662     1.0  0.80339  0.17771  0.00920  1.0000
  H   H2650     1.0  0.91248  0.27437  0.99458  1.0000
  S   S662      1.0  0.81707  0.15926  0.32148  1.0000
  Fe  Fe328     1.0  0.79529  0.10714  0.31628  1.0000
  H   H2651     1.0  0.79650  0.01461  0.26451  1.0000
  C   C1663     1.0  0.90251  0.28001  0.98639  1.0000
  H   H2652     1.0  0.79765  0.11410  0.22068  1.0000
  Fe  Fe329     1.0  0.87440  0.98989  0.22414  1.0000
  H   H2653     1.0  0.83492  0.36793  0.17706  1.0000
  C   C1664     1.0  0.80166  0.24549  0.06760  1.0000
  H   H2654     1.0  0.89462  0.29209  0.99058  1.0000
  C   C1665     1.0  0.88216  0.26321  0.00597  1.0000
  H   H2655     1.0  0.89148  0.25709  0.01478  1.0000
  H   H2656     1.0  0.81931  0.47670  0.23577  1.0000
  H   H2657     1.0  0.80342  0.20184  0.35569  1.0000
  H   H2658     1.0  0.86722  0.47422  0.28084  1.0000
  H   H2659     1.0  0.79832  0.18091  0.02184  1.0000
  H   H2660     1.0  0.80161  0.24356  0.10106  1.0000
  H   H2661     1.0  0.80548  0.26880  0.44330  1.0000
  H   H2662     1.0  0.79548  0.01939  0.14292  1.0000
  H   H2663     1.0  0.81650  0.99993  0.26790  1.0000
  H   H2664     1.0  0.79911  0.99208  0.26438  1.0000
  S   S663      1.0  0.80183  0.44335  0.31410  1.0000
  H   H2665     1.0  0.83202  0.44132  0.28527  1.0000
  N   N169      1.0  0.89134  0.26771  0.98782  1.0000
  C   C1666     1.0  0.80858  0.44123  0.12812  1.0000
  H   H2666     1.0  0.79964  0.12347  0.43731  1.0000
  C   C1667     1.0  0.79800  0.26567  0.41406  1.0000
  C   C1668     1.0  0.79972  0.01336  0.15498  1.0000
  H   H2667     1.0  0.81264  0.43719  0.14082  1.0000
  H   H2668     1.0  0.81190  0.48124  0.34960  1.0000
  H   H2669     1.0  0.80291  0.45148  0.27749  1.0000
  C   C1669     1.0  0.79503  0.16767  0.00345  1.0000
  Fe  Fe330     1.0  0.79502  0.32972  0.08934  1.0000
  H   H2670     1.0  0.81416  0.29966  0.97846  1.0000
  H   H2671     1.0  0.97112  0.19079  0.62021  1.0000
  H   H2672     1.0  0.80704  0.31459  0.96003  1.0000
  H   H2673     1.0  0.84459  0.28276  0.81963  1.0000
  H   H2674     1.0  0.97082  0.19635  0.86204  1.0000
  H   H2675     1.0  0.84803  0.26473  0.86550  1.0000
  S   S664      1.0  0.88776  0.24736  0.94616  1.0000
  C   C1670     1.0  0.84644  0.30303  0.49658  1.0000
  N   N170      1.0  0.96173  0.17382  0.86210  1.0000
  Fe  Fe331     1.0  0.97996  0.13817  0.72470  1.0000
  H   H2676     1.0  0.85926  0.27523  0.83429  1.0000
  S   S665      1.0  0.96415  0.15039  0.70364  1.0000
  H   H2677     1.0  0.93478  0.31093  0.80501  1.0000
  S   S666      1.0  0.96993  0.16541  0.77523  1.0000
  Fe  Fe332     1.0  0.88440  0.24271  0.54763  1.0000
  S   S667      1.0  0.97373  0.12612  0.75307  1.0000
  Fe  Fe333     1.0  0.79843  0.15166  0.56889  1.0000
  H   H2678     1.0  0.81213  0.29533  0.84615  1.0000
  H   H2679     1.0  0.82693  0.24331  0.71648  1.0000
  Fe  Fe334     1.0  0.95839  0.23146  0.86143  1.0000
  S   S668      1.0  0.95667  0.22643  0.83611  1.0000
  S   S669      1.0  0.94200  0.21640  0.88448  1.0000
  C   C1671     1.0  0.87254  0.20945  0.48584  1.0000
  H   H2680     1.0  0.95949  0.15403  0.88509  1.0000
  Fe  Fe335     1.0  0.95672  0.25450  0.82606  1.0000
  S   S670      1.0  0.94112  0.27278  0.80756  1.0000
  C   C1672     1.0  0.79922  0.26112  0.93234  1.0000
  S   S671      1.0  0.95588  0.26007  0.85165  1.0000
  H   H2681     1.0  0.97526  0.42385  0.73594  1.0000
  H   H2682     1.0  0.93506  0.43373  0.74298  1.0000
  C   C1673     1.0  0.98727  0.31770  0.68524  1.0000
  H   H2683     1.0  0.96607  0.18890  0.83638  1.0000
  H   H2684     1.0  0.83013  0.21486  0.48226  1.0000
  S   S672      1.0  0.88614  0.21487  0.49695  1.0000
  H   H2685     1.0  0.81389  0.25969  0.70333  1.0000
  H   H2686     1.0  0.80478  0.27522  0.85296  1.0000
  S   S673      1.0  0.82299  0.14299  0.58022  1.0000
  Fe  Fe336     1.0  0.98496  0.14683  0.75762  1.0000
  C   C1674     1.0  0.89845  0.28358  0.53809  1.0000
  Fe  Fe337     1.0  0.86530  0.26687  0.78105  1.0000
  S   S674      1.0  0.85420  0.29542  0.77542  1.0000
  S   S675      1.0  0.87057  0.25342  0.80723  1.0000
  Fe  Fe338     1.0  0.86809  0.26225  0.74481  1.0000
  S   S676      1.0  0.85685  0.29023  0.73662  1.0000
  S   S677      1.0  0.87864  0.24749  0.72324  1.0000
  Fe  Fe339     1.0  0.87475  0.29547  0.75082  1.0000
  S   S678      1.0  0.89300  0.31291  0.73376  1.0000
  Fe  Fe340     1.0  0.83765  0.28720  0.76185  1.0000
  S   S679      1.0  0.88703  0.26744  0.75766  1.0000
  S   S680      1.0  0.84748  0.25864  0.76896  1.0000
  Fe  Fe341     1.0  0.87852  0.15522  0.67668  1.0000
  S   S681      1.0  0.84934  0.15798  0.68641  1.0000
  S   S682      1.0  0.89790  0.13265  0.68818  1.0000
  Fe  Fe342     1.0  0.87478  0.19098  0.65452  1.0000
  S   S683      1.0  0.84581  0.19701  0.66296  1.0000
  S   S684      1.0  0.88766  0.21168  0.63625  1.0000
  Fe  Fe343     1.0  0.85038  0.18425  0.68947  1.0000
  S   S685      1.0  0.83761  0.19542  0.71331  1.0000
  Fe  Fe344     1.0  0.84725  0.17047  0.65871  1.0000
  S   S686      1.0  0.82577  0.17187  0.64455  1.0000
  S   S687      1.0  0.87934  0.18067  0.68143  1.0000
  S   S688      1.0  0.87637  0.16528  0.64863  1.0000
  Fe  Fe345     1.0  0.84733  0.24334  0.54396  1.0000
  S   S689      1.0  0.82201  0.23712  0.56054  1.0000
  H   H2687     1.0  0.95035  0.26046  0.55926  1.0000
  S   S690      1.0  0.85950  0.26258  0.54931  1.0000
  H   H2688     1.0  0.94568  0.33226  0.67826  1.0000
  C   C1675     1.0  0.95868  0.32436  0.67769  1.0000
  Fe  Fe346     1.0  0.96404  0.35513  0.73986  1.0000
  S   S691      1.0  0.97940  0.32809  0.74101  1.0000
  S   S692      1.0  0.93548  0.35898  0.75240  1.0000
  H   H2689     1.0  0.83663  0.18334  0.97449  1.0000
  S   S693      1.0  0.80917  0.29750  0.76098  1.0000
  C   C1676     1.0  0.87319  0.29923  0.55480  1.0000
  Fe  Fe347     1.0  0.86728  0.27024  0.52058  1.0000
  S   S694      1.0  0.98141  0.36360  0.75220  1.0000
  S   S695      1.0  0.97744  0.36554  0.71277  1.0000
  Fe  Fe348     1.0  0.95058  0.24700  0.65659  1.0000
  S   S696      1.0  0.93847  0.27122  0.64014  1.0000
  S   S697      1.0  0.93656  0.22801  0.67623  1.0000
  S   S698      1.0  0.95551  0.26347  0.59180  1.0000
  Fe  Fe349     1.0  0.98530  0.25470  0.84368  1.0000
  H   H2690     1.0  0.83265  0.28488  0.86628  1.0000
  C   C1677     1.0  0.96396  0.31116  0.66818  1.0000
  C   C1678     1.0  0.98075  0.30097  0.66761  1.0000
  H   H2691     1.0  0.96085  0.29930  0.78520  1.0000
  H   H2692     1.0  0.89755  0.30720  0.56721  1.0000
  H   H2693     1.0  0.85894  0.28159  0.48400  1.0000
  C   C1679     1.0  0.91167  0.24705  0.57648  1.0000
  C   C1680     1.0  0.91029  0.24826  0.59368  1.0000
  C   C1681     1.0  0.92317  0.25397  0.59846  1.0000
  H   H2694     1.0  0.89934  0.24444  0.60349  1.0000
  H   H2695     1.0  0.92192  0.25476  0.61176  1.0000
  C   C1682     1.0  0.90062  0.21647  0.64785  1.0000
  C   C1683     1.0  0.91030  0.20304  0.65814  1.0000
  C   C1684     1.0  0.92091  0.20667  0.66733  1.0000
  C   C1685     1.0  0.92195  0.22373  0.66613  1.0000
  C   C1686     1.0  0.91234  0.23720  0.65579  1.0000
  C   C1687     1.0  0.90164  0.23357  0.64664  1.0000
  H   H2696     1.0  0.90998  0.18980  0.65860  1.0000
  H   H2697     1.0  0.92865  0.19625  0.67499  1.0000
  H   H2698     1.0  0.91294  0.25042  0.65501  1.0000
  H   H2699     1.0  0.89415  0.24398  0.63869  1.0000
  C   C1688     1.0  0.86698  0.23311  0.72082  1.0000
  C   C1689     1.0  0.85584  0.22506  0.73490  1.0000
  C   C1690     1.0  0.84687  0.21341  0.73257  1.0000
  C   C1691     1.0  0.84910  0.20975  0.71618  1.0000
  C   C1692     1.0  0.86029  0.21780  0.70215  1.0000
  C   C1693     1.0  0.86926  0.22939  0.70449  1.0000
  H   H2700     1.0  0.85438  0.22760  0.74762  1.0000
  H   H2701     1.0  0.83831  0.20709  0.74347  1.0000
  H   H2702     1.0  0.86192  0.21524  0.68941  1.0000
  H   H2703     1.0  0.87797  0.23551  0.69356  1.0000
  C   C1694     1.0  0.90545  0.32404  0.74043  1.0000
  C   C1695     1.0  0.92081  0.32810  0.72912  1.0000
  C   C1696     1.0  0.93041  0.33819  0.73310  1.0000
  C   C1697     1.0  0.92440  0.34485  0.74818  1.0000
  C   C1698     1.0  0.90913  0.34070  0.75963  1.0000
  C   C1699     1.0  0.89980  0.33010  0.75589  1.0000
  H   H2704     1.0  0.92522  0.32363  0.71706  1.0000
  H   H2705     1.0  0.94212  0.34132  0.72416  1.0000
  H   H2706     1.0  0.90440  0.34582  0.77132  1.0000
  H   H2707     1.0  0.88790  0.32718  0.76462  1.0000
  C   C1700     1.0  0.82522  0.15223  0.59684  1.0000
  C   C1701     1.0  0.81406  0.16746  0.60079  1.0000
  C   C1702     1.0  0.81508  0.17373  0.61494  1.0000
  C   C1703     1.0  0.82736  0.16498  0.62526  1.0000
  C   C1704     1.0  0.83923  0.15028  0.62079  1.0000
  C   C1705     1.0  0.83814  0.14394  0.60662  1.0000
  H   H2708     1.0  0.80086  0.11802  0.48484  1.0000
  C   C1706     1.0  0.81690  0.16872  0.97697  1.0000
  H   H2709     1.0  0.84871  0.14336  0.62870  1.0000
  H   H2710     1.0  0.84695  0.13221  0.60363  1.0000
  C   C1707     1.0  0.81427  0.25271  0.71686  1.0000
  C   C1708     1.0  0.97221  0.18247  0.86838  1.0000
  H   H2711     1.0  0.80844  0.28172  0.79789  1.0000
  C   C1709     1.0  0.81018  0.23043  0.54901  1.0000
  C   C1710     1.0  0.81663  0.22974  0.53157  1.0000
  H   H2712     1.0  0.90956  0.28368  0.97281  1.0000
  H   H2713     1.0  0.80447  0.22512  0.95397  1.0000
  H   H2714     1.0  0.98637  0.17656  0.86565  1.0000
  H   H2715     1.0  0.82867  0.23368  0.52494  1.0000
  H   H2716     1.0  0.83997  0.26444  0.72357  1.0000
  H   H2717     1.0  0.99091  0.19833  0.70790  1.0000
  H   H2718     1.0  0.96046  0.41410  0.75414  1.0000
  H   H2719     1.0  0.84855  0.22581  0.49573  1.0000
  H   H2720     1.0  0.91267  0.28215  0.53238  1.0000
  S   S699      1.0  0.85265  0.25296  0.51528  1.0000
  C   C1711     1.0  0.81219  0.25498  0.74628  1.0000
  H   H2721     1.0  0.94471  0.19800  0.58691  1.0000
  C   C1712     1.0  0.92603  0.25185  0.56404  1.0000
  H   H2722     1.0  0.93651  0.32277  0.82012  1.0000
  C   C1713     1.0  0.93788  0.25810  0.58617  1.0000
  C   C1714     1.0  0.93903  0.25731  0.56889  1.0000
  H   H2723     1.0  0.97352  0.40283  0.71069  1.0000
  C   C1715     1.0  0.92097  0.26784  0.80867  1.0000
  C   C1716     1.0  0.91492  0.25425  0.82119  1.0000
  C   C1717     1.0  0.89912  0.25002  0.82113  1.0000
  C   C1718     1.0  0.88949  0.25938  0.80852  1.0000
  C   C1719     1.0  0.89524  0.27338  0.79651  1.0000
  C   C1720     1.0  0.91096  0.27758  0.79654  1.0000
  H   H2724     1.0  0.92244  0.24692  0.83080  1.0000
  H   H2725     1.0  0.89464  0.23926  0.83052  1.0000
  H   H2726     1.0  0.88770  0.28096  0.78701  1.0000
  H   H2727     1.0  0.91551  0.28820  0.78695  1.0000
  C   C1721     1.0  0.94601  0.14464  0.69969  1.0000
  C   C1722     1.0  0.93925  0.13018  0.70952  1.0000
  C   C1723     1.0  0.92452  0.12652  0.70590  1.0000
  C   C1724     1.0  0.91628  0.13746  0.69271  1.0000
  C   C1725     1.0  0.92306  0.15190  0.68298  1.0000
  C   C1726     1.0  0.93792  0.15536  0.68635  1.0000
  H   H2728     1.0  0.94539  0.12178  0.71980  1.0000
  H   H2729     1.0  0.91943  0.11524  0.71340  1.0000
  H   H2730     1.0  0.91707  0.16013  0.67256  1.0000
  H   H2731     1.0  0.94323  0.16638  0.67851  1.0000
  H   H2732     1.0  0.82606  0.24760  0.85220  1.0000
  H   H2733     1.0  0.93820  0.18188  0.88004  1.0000
  H   H2734     1.0  0.89155  0.28515  0.52742  1.0000
  C   C1727     1.0  0.79688  0.25374  0.90147  1.0000
  C   C1728     1.0  0.97690  0.19843  0.80131  1.0000
  C   C1729     1.0  0.96981  0.19015  0.79238  1.0000
  H   H2735     1.0  0.84896  0.24767  0.84401  1.0000
  C   C1730     1.0  0.85453  0.21623  0.48783  1.0000
  H   H2736     1.0  0.96910  0.20972  0.80612  1.0000
  H   H2737     1.0  0.95650  0.19506  0.79056  1.0000
  C   C1731     1.0  0.90164  0.23910  0.92820  1.0000
  C   C1732     1.0  0.90132  0.22310  0.92514  1.0000
  C   C1733     1.0  0.91361  0.21643  0.91155  1.0000
  C   C1734     1.0  0.92607  0.22583  0.90067  1.0000
  C   C1735     1.0  0.92607  0.24203  0.90345  1.0000
  C   C1736     1.0  0.91404  0.24852  0.91726  1.0000
  H   H2738     1.0  0.89195  0.21565  0.93354  1.0000
  H   H2739     1.0  0.91355  0.20385  0.90956  1.0000
  H   H2740     1.0  0.93564  0.24935  0.89525  1.0000
  H   H2741     1.0  0.91445  0.26087  0.91955  1.0000
  H   H2742     1.0  0.82593  0.28335  0.73047  1.0000
  S   S700      1.0  0.96771  0.25931  0.66499  1.0000
  H   H2743     1.0  0.94100  0.17716  0.61555  1.0000
  S   S701      1.0  0.87140  0.22264  0.54427  1.0000
  H   H2744     1.0  0.92435  0.28827  0.71743  1.0000
  Fe  Fe350     1.0  0.98577  0.22297  0.82962  1.0000
  H   H2745     1.0  0.97784  0.14871  0.86818  1.0000
  N   N171      1.0  0.91539  0.28068  0.69831  1.0000
  H   H2746     1.0  0.89451  0.28318  0.72021  1.0000
  C   C1737     1.0  0.80485  0.30257  0.96962  1.0000
  S   S702      1.0  0.79889  0.26404  0.95286  1.0000
  H   H2747     1.0  0.81090  0.26369  0.75524  1.0000
  H   H2748     1.0  0.97232  0.42558  0.70630  1.0000
  H   H2749     1.0  0.90015  0.28421  0.57050  1.0000
  C   C1738     1.0  0.91774  0.28415  0.67934  1.0000
  H   H2750     1.0  0.86774  0.31036  0.56139  1.0000
  C   C1739     1.0  0.96909  0.30068  0.79364  1.0000
  H   H2751     1.0  0.93166  0.28012  0.67334  1.0000
  H   H2752     1.0  0.98195  0.30264  0.78536  1.0000
  H   H2753     1.0  0.89228  0.30046  0.70191  1.0000
  N   N172      1.0  0.91027  0.18644  0.72339  1.0000
  C   C1740     1.0  0.92828  0.18920  0.71589  1.0000
  C   C1741     1.0  0.90144  0.19827  0.73540  1.0000
  C   C1742     1.0  0.91079  0.16835  0.73279  1.0000
  C   C1743     1.0  0.90055  0.18996  0.70940  1.0000
  H   H2754     1.0  0.93522  0.18068  0.70656  1.0000
  H   H2755     1.0  0.93613  0.18635  0.72605  1.0000
  H   H2756     1.0  0.92835  0.20277  0.70879  1.0000
  H   H2757     1.0  0.88769  0.19679  0.74103  1.0000
  H   H2758     1.0  0.90829  0.19586  0.74627  1.0000
  H   H2759     1.0  0.90102  0.21202  0.72869  1.0000
  H   H2760     1.0  0.89740  0.16585  0.73868  1.0000
  H   H2761     1.0  0.91829  0.16507  0.74328  1.0000
  H   H2762     1.0  0.91714  0.15914  0.72398  1.0000
  H   H2763     1.0  0.88685  0.18812  0.71458  1.0000
  H   H2764     1.0  0.90678  0.18117  0.70018  1.0000
  H   H2765     1.0  0.90003  0.20345  0.70190  1.0000
  C   C1744     1.0  0.97173  0.31602  0.81419  1.0000
  C   C1745     1.0  0.82733  0.27367  0.72253  1.0000
  H   H2766     1.0  0.97131  0.28818  0.80296  1.0000
  H   H2767     1.0  0.97367  0.30387  0.82409  1.0000
  H   H2768     1.0  0.99239  0.21254  0.76600  1.0000
  H   H2769     1.0  0.82443  0.24521  0.74731  1.0000
  N   N173      1.0  0.85387  0.21119  0.60026  1.0000
  C   C1746     1.0  0.84992  0.22999  0.59334  1.0000
  C   C1747     1.0  0.84512  0.20231  0.59228  1.0000
  C   C1748     1.0  0.84752  0.20776  0.61917  1.0000
  C   C1749     1.0  0.87298  0.20473  0.59634  1.0000
  H   H2770     1.0  0.85646  0.23707  0.59901  1.0000
  H   H2771     1.0  0.83561  0.23532  0.59602  1.0000
  H   H2772     1.0  0.85456  0.23298  0.57911  1.0000
  H   H2773     1.0  0.84784  0.18808  0.59723  1.0000
  H   H2774     1.0  0.83067  0.20691  0.59507  1.0000
  H   H2775     1.0  0.84946  0.20479  0.57798  1.0000
  H   H2776     1.0  0.83309  0.21202  0.62274  1.0000
  H   H2777     1.0  0.85365  0.21455  0.62555  1.0000
  H   H2778     1.0  0.85066  0.19372  0.62485  1.0000
  H   H2779     1.0  0.87648  0.19063  0.60161  1.0000
  H   H2780     1.0  0.87992  0.21136  0.60210  1.0000
  H   H2781     1.0  0.87831  0.20709  0.58218  1.0000
  N   N174      1.0  0.84550  0.17616  0.53297  1.0000
  C   C1750     1.0  0.85389  0.15775  0.53735  1.0000
  C   C1751     1.0  0.85865  0.18705  0.52915  1.0000
  C   C1752     1.0  0.83164  0.18072  0.54776  1.0000
  C   C1753     1.0  0.83779  0.17908  0.51762  1.0000
  H   H2782     1.0  0.84422  0.14923  0.54051  1.0000
  H   H2783     1.0  0.85984  0.15507  0.54889  1.0000
  H   H2784     1.0  0.86436  0.15379  0.52645  1.0000
  H   H2785     1.0  0.86937  0.18393  0.51807  1.0000
  H   H2786     1.0  0.85275  0.20103  0.52560  1.0000
  H   H2787     1.0  0.86471  0.18532  0.54042  1.0000
  H   H2788     1.0  0.83688  0.17815  0.55971  1.0000
  H   H2789     1.0  0.82127  0.17309  0.55065  1.0000
  H   H2790     1.0  0.82525  0.19457  0.54516  1.0000
  H   H2791     1.0  0.83099  0.19273  0.51419  1.0000
  H   H2792     1.0  0.82802  0.17091  0.51982  1.0000
  H   H2793     1.0  0.84796  0.17618  0.50608  1.0000
  N   N175      1.0  0.94728  0.20224  0.61103  1.0000
  C   C1754     1.0  0.93805  0.18845  0.62182  1.0000
  C   C1755     1.0  0.94145  0.20843  0.59437  1.0000
  C   C1756     1.0  0.96633  0.19545  0.60786  1.0000
  C   C1757     1.0  0.94324  0.21674  0.62006  1.0000
  H   H2794     1.0  0.94173  0.18378  0.63471  1.0000
  H   H2795     1.0  0.98493  0.31799  0.80680  1.0000
  H   H2796     1.0  0.80373  0.24509  0.72126  1.0000
  H   H2797     1.0  0.94761  0.21933  0.58615  1.0000
  S   S703      1.0  0.94956  0.30772  0.65688  1.0000
  H   H2798     1.0  0.92702  0.21319  0.59639  1.0000
  H   H2799     1.0  0.96587  0.32682  0.82118  1.0000
  H   H2800     1.0  0.96992  0.18446  0.60106  1.0000
  H   H2801     1.0  0.97098  0.33410  0.78191  1.0000
  H   H2802     1.0  0.90815  0.31421  0.52778  1.0000
  H   H2803     1.0  0.95039  0.22719  0.61255  1.0000
  C   C1758     1.0  0.80266  0.21381  0.94985  1.0000
  N   N176      1.0  0.81244  0.26473  0.72833  1.0000
  Fe  Fe351     1.0  0.82246  0.25044  0.96403  1.0000
  H   H2804     1.0  0.92362  0.19317  0.62415  1.0000
  C   C1759     1.0  0.79496  0.17007  0.49047  1.0000
  C   C1760     1.0  0.99232  0.30420  0.67612  1.0000
  C   C1761     1.0  0.96391  0.15544  0.87082  1.0000
  H   H2805     1.0  0.80438  0.17431  0.59320  1.0000
  C   C1762     1.0  0.81323  0.25038  0.92369  1.0000
  C   C1763     1.0  0.83221  0.31696  0.49786  1.0000
  H   H2806     1.0  0.96789  0.18201  0.88254  1.0000
  C   C1764     1.0  0.97028  0.32759  0.68626  1.0000
  H   H2807     1.0  0.81342  0.22199  0.50947  1.0000
  H   H2808     1.0  0.94096  0.19617  0.85947  1.0000
  N   N177      1.0  0.96061  0.31507  0.80274  1.0000
  H   H2809     1.0  0.95006  0.33098  0.78092  1.0000
  H   H2810     1.0  0.92752  0.25066  0.55083  1.0000
  C   C1765     1.0  0.80799  0.22298  0.52279  1.0000
  H   H2811     1.0  0.94671  0.21252  0.63304  1.0000
  H   H2812     1.0  0.96619  0.33799  0.69329  1.0000
  H   H2813     1.0  0.88468  0.27912  0.96291  1.0000
  C   C1766     1.0  0.90187  0.29612  0.56049  1.0000
  H   H2814     1.0  0.83089  0.32521  0.50678  1.0000
  H   H2815     1.0  0.88675  0.31645  0.52370  1.0000
  H   H2816     1.0  0.82478  0.24464  0.92910  1.0000
  H   H2817     1.0  0.94475  0.29986  0.82308  1.0000
  S   S704      1.0  0.86207  0.29876  0.50953  1.0000
  C   C1767     1.0  0.84564  0.28197  0.83316  1.0000
  C   C1768     1.0  0.83554  0.25501  0.84279  1.0000
  N   N178      1.0  0.95466  0.41599  0.72932  1.0000
  Fe  Fe352     1.0  0.98753  0.25242  0.64190  1.0000
  H   H2818     1.0  0.80606  0.18528  0.61813  1.0000
  H   H2819     1.0  0.93499  0.40323  0.72754  1.0000
  C   C1769     1.0  0.96720  0.41370  0.74052  1.0000
  C   C1770     1.0  0.94340  0.31209  0.81321  1.0000
  C   C1771     1.0  0.81200  0.24657  0.90826  1.0000
  C   C1772     1.0  0.95822  0.33143  0.78990  1.0000
  S   S705      1.0  0.89618  0.23781  0.57161  1.0000
  Fe  Fe353     1.0  0.95785  0.28301  0.64659  1.0000
  Fe  Fe354     1.0  0.96001  0.26293  0.61863  1.0000
  S   S706      1.0  0.97102  0.23780  0.63491  1.0000
  H   H2820     1.0  0.79799  0.17733  0.49884  1.0000
  C   C1773     1.0  0.84793  0.29228  0.48519  1.0000
  H   H2821     1.0  0.91381  0.29819  0.67395  1.0000
  S   S707      1.0  0.97872  0.27699  0.62354  1.0000
  H   H2822     1.0  0.95618  0.14852  0.86636  1.0000
  C   C1774     1.0  0.83474  0.27178  0.86350  1.0000
  H   H2823     1.0  0.80814  0.33026  0.48957  1.0000
  C   C1775     1.0  0.97977  0.17562  0.78578  1.0000
  C   C1776     1.0  0.96431  0.41541  0.71142  1.0000
  H   H2824     1.0  0.96026  0.16873  0.83792  1.0000
  H   H2825     1.0  0.80744  0.21550  0.93562  1.0000
  S   S708      1.0  0.98574  0.25083  0.81736  1.0000
  H   H2826     1.0  0.86536  0.30068  0.54488  1.0000
  S   S709      1.0  0.84213  0.22621  0.95980  1.0000
  H   H2827     1.0  0.92910  0.22259  0.62197  1.0000
  C   C1777     1.0  0.92100  0.26197  0.70481  1.0000
  C   C1778     1.0  0.92599  0.29039  0.70314  1.0000
  H   H2828     1.0  0.92206  0.30456  0.69835  1.0000
  H   H2829     1.0  0.91000  0.27702  0.67519  1.0000
  C   C1779     1.0  0.96773  0.17517  0.84324  1.0000
  H   H2830     1.0  0.88833  0.27966  0.70202  1.0000
  C   C1780     1.0  0.89678  0.28625  0.70588  1.0000
  H   H2831     1.0  0.94014  0.28665  0.69750  1.0000
  H   H2832     1.0  0.91913  0.25886  0.71915  1.0000
  C   C1781     1.0  0.81486  0.28200  0.84374  1.0000
  Fe  Fe355     1.0  0.86199  0.24041  0.96204  1.0000
  H   H2833     1.0  0.93502  0.25731  0.69934  1.0000
  N   N179      1.0  0.83269  0.27270  0.84579  1.0000
  H   H2834     1.0  0.91332  0.25431  0.70122  1.0000
  C   C1782     1.0  0.81932  0.31983  0.48809  1.0000
  S   S710      1.0  0.79841  0.15377  0.54072  1.0000
  Fe  Fe356     1.0  0.87750  0.23328  0.51566  1.0000
  H   H2835     1.0  0.82514  0.26488  0.87332  1.0000
  H   H2836     1.0  0.98496  0.29084  0.66025  1.0000
  S   S711      1.0  0.89313  0.25147  0.51879  1.0000
  H   H2837     1.0  0.95167  0.34260  0.79621  1.0000
  H   H2838     1.0  0.87105  0.28727  0.56458  1.0000
  H   H2839     1.0  0.93722  0.40187  0.74920  1.0000
  H   H2840     1.0  0.91615  0.29493  0.55508  1.0000
  H   H2841     1.0  0.83411  0.25519  0.82954  1.0000
  C   C1783     1.0  0.89417  0.31448  0.53410  1.0000
  H   H2842     1.0  0.82237  0.16502  0.96459  1.0000
  H   H2843     1.0  0.89641  0.27124  0.54720  1.0000
  H   H2844     1.0  0.84390  0.29538  0.83499  1.0000
  H   H2845     1.0  0.95531  0.41716  0.70253  1.0000
  H   H2846     1.0  0.93472  0.17604  0.86151  1.0000
  H   H2847     1.0  0.97650  0.40109  0.74056  1.0000
  H   H2848     1.0  0.82260  0.23787  0.90179  1.0000
  H   H2849     1.0  0.97359  0.20562  0.59974  1.0000
  N   N180      1.0  0.89193  0.29836  0.54689  1.0000
  H   H2850     1.0  0.93293  0.43503  0.72131  1.0000
  S   S712      1.0  0.98928  0.15971  0.72979  1.0000
  H   H2851     1.0  0.95326  0.38909  0.73554  1.0000
  S   S713      1.0  0.84226  0.26511  0.96365  1.0000
  C   C1784     1.0  0.94459  0.40201  0.73567  1.0000
  H   H2852     1.0  0.80114  0.24805  0.75111  1.0000
  H   H2853     1.0  0.81298  0.28307  0.83045  1.0000
  H   H2854     1.0  0.94975  0.44371  0.72495  1.0000
  H   H2855     1.0  0.99385  0.17562  0.67287  1.0000
  H   H2856     1.0  0.88937  0.32598  0.54022  1.0000
  C   C1785     1.0  0.94256  0.43287  0.72965  1.0000
  S   S714      1.0  0.98795  0.22621  0.85562  1.0000
  C   C1786     1.0  0.94308  0.18227  0.86594  1.0000
  H   H2857     1.0  0.82836  0.28066  0.70884  1.0000
  H   H2858     1.0  0.98186  0.16931  0.83975  1.0000
  H   H2859     1.0  0.79788  0.14521  0.63093  1.0000
  H   H2860     1.0  0.80834  0.29189  0.96243  1.0000
  Fe  Fe357     1.0  0.99392  0.33872  0.71472  1.0000
  H   H2861     1.0  0.99276  0.22164  0.67259  1.0000
  H   H2862     1.0  0.98257  0.17864  0.69409  1.0000
  C   C1787     1.0  0.79567  0.28938  0.79643  1.0000
  H   H2863     1.0  0.97559  0.20991  0.68295  1.0000
  H   H2864     1.0  0.90914  0.25479  0.96834  1.0000
  H   H2865     1.0  0.81134  0.20225  0.95591  1.0000
  H   H2866     1.0  0.86982  0.26670  0.97764  1.0000
  H   H2867     1.0  0.79664  0.15623  0.49701  1.0000
  C   C1788     1.0  0.98884  0.20907  0.67447  1.0000
  C   C1789     1.0  0.79597  0.27765  0.72768  1.0000
  C   C1790     1.0  0.87834  0.27573  0.97678  1.0000
  C   C1791     1.0  0.84411  0.21015  0.48003  1.0000
  H   H2868     1.0  0.98764  0.20772  0.66163  1.0000
  H   H2869     1.0  0.79580  0.28548  0.71440  1.0000
  H   H2870     1.0  0.99361  0.21637  0.74314  1.0000
  C   C1792     1.0  0.99388  0.19192  0.80421  1.0000
  H   H2871     1.0  0.80503  0.17113  0.47828  1.0000
  S   S715      1.0  0.95816  0.77294  0.12498  1.0000
  S   S716      1.0  0.95604  0.80492  0.15377  1.0000
  Fe  Fe358     1.0  0.94997  0.74995  0.14419  1.0000
  S   S717      1.0  0.92203  0.74634  0.15017  1.0000
  Fe  Fe359     1.0  0.93914  0.86537  0.24646  1.0000
  S   S718      1.0  0.95012  0.88790  0.24626  1.0000
  S   S719      1.0  0.91264  0.86216  0.26230  1.0000
  Fe  Fe360     1.0  0.97115  0.85004  0.22191  1.0000
  C   C1793     1.0  0.94320  0.72413  0.08881  1.0000
  S   S720      1.0  0.84950  0.51073  0.26455  1.0000
  H   H2872     1.0  0.95282  0.81588  0.24308  1.0000
  Fe  Fe361     1.0  0.95830  0.88905  0.21774  1.0000
  S   S721      1.0  0.95028  0.91267  0.19781  1.0000
  S   S722      1.0  0.96343  0.84593  0.25079  1.0000
  S   S723      1.0  0.94581  0.86743  0.21787  1.0000
  S   S724      1.0  0.81534  0.57047  0.15579  1.0000
  S   S725      1.0  0.80755  0.90816  0.22366  1.0000
  H   H2873     1.0  0.92759  0.77724  0.23943  1.0000
  H   H2874     1.0  0.88123  0.91429  0.22070  1.0000
  H   H2875     1.0  0.95713  0.87306  0.16384  1.0000
  C   C1794     1.0  0.98755  0.88154  0.14486  1.0000
  H   H2876     1.0  0.83548  0.48324  0.29290  1.0000
  H   H2877     1.0  0.94460  0.74130  0.11250  1.0000
  C   C1795     1.0  0.91280  0.71163  0.30965  1.0000
  H   H2878     1.0  0.90274  0.96410  0.19711  1.0000
  Fe  Fe362     1.0  0.87557  0.80029  0.23813  1.0000
  S   S726      1.0  0.85151  0.79190  0.23763  1.0000
  S   S727      1.0  0.88090  0.82579  0.22194  1.0000
  Fe  Fe363     1.0  0.88949  0.76647  0.26122  1.0000
  S   S728      1.0  0.86616  0.75519  0.26314  1.0000
  S   S729      1.0  0.91450  0.75197  0.27008  1.0000
  Fe  Fe364     1.0  0.86907  0.76628  0.23460  1.0000
  S   S730      1.0  0.87032  0.75448  0.21204  1.0000
  Fe  Fe365     1.0  0.85055  0.78191  0.26597  1.0000
  H   H2879     1.0  0.89622  0.72410  0.28282  1.0000
  S   S731      1.0  0.89336  0.77575  0.23251  1.0000
  S   S732      1.0  0.87377  0.79189  0.26669  1.0000
  Fe  Fe366     1.0  0.85003  0.64666  0.17952  1.0000
  S   S733      1.0  0.87669  0.64362  0.16204  1.0000
  S   S734      1.0  0.82780  0.63211  0.18373  1.0000
  Fe  Fe367     1.0  0.85995  0.66877  0.19985  1.0000
  S   S735      1.0  0.88721  0.66691  0.18456  1.0000
  S   S736      1.0  0.85307  0.68028  0.22371  1.0000
  Fe  Fe368     1.0  0.87520  0.67175  0.16155  1.0000
  S   S737      1.0  0.88948  0.68821  0.13829  1.0000
  Fe  Fe369     1.0  0.88693  0.63933  0.18604  1.0000
  S   S738      1.0  0.90933  0.61824  0.19274  1.0000
  S   S739      1.0  0.84732  0.67561  0.17677  1.0000
  S   S740      1.0  0.86079  0.64050  0.20369  1.0000
  Fe  Fe370     1.0  0.96285  0.74707  0.34001  1.0000
  S   S741      1.0  0.97958  0.74983  0.31355  1.0000
  S   S742      1.0  0.93400  0.75576  0.33954  1.0000
  C   C1796     1.0  0.97299  0.82071  0.32351  1.0000
  H   H2880     1.0  0.91916  0.70069  0.31867  1.0000
  H   H2881     1.0  0.81426  0.51710  0.19860  1.0000
  H   H2882     1.0  0.93582  0.71934  0.10194  1.0000
  H   H2883     1.0  0.87083  0.70665  0.32557  1.0000
  H   H2884     1.0  0.81025  0.85725  0.26239  1.0000
  H   H2885     1.0  0.97555  0.70636  0.09219  1.0000
  S   S743      1.0  0.97855  0.75992  0.35042  1.0000
  C   C1797     1.0  0.96193  0.88283  0.16777  1.0000
  C   C1798     1.0  0.95148  0.74558  0.09900  1.0000
  S   S744      1.0  0.96631  0.62777  0.28397  1.0000
  Fe  Fe371     1.0  0.95670  0.64925  0.23885  1.0000
  S   S745      1.0  0.93514  0.64641  0.26220  1.0000
  S   S746      1.0  0.95251  0.66162  0.21205  1.0000
  Fe  Fe372     1.0  0.95193  0.65478  0.27549  1.0000
  S   S747      1.0  0.94246  0.67288  0.29446  1.0000
  Fe  Fe373     1.0  0.95100  0.61958  0.26871  1.0000
  S   S748      1.0  0.93491  0.59836  0.27984  1.0000
  H   H2886     1.0  0.81152  0.79342  0.25588  1.0000
  S   S749      1.0  0.97199  0.62222  0.24458  1.0000
  Fe  Fe374     1.0  0.84673  0.53935  0.25639  1.0000
  S   S750      1.0  0.86906  0.53766  0.23379  1.0000
  S   S751      1.0  0.82145  0.55762  0.25251  1.0000
  Fe  Fe375     1.0  0.88545  0.53835  0.25217  1.0000
  S   S752      1.0  0.90449  0.55688  0.24098  1.0000
  S   S753      1.0  0.86253  0.54184  0.27423  1.0000
  H   H2887     1.0  0.99131  0.66145  0.30967  1.0000
  C   C1799     1.0  0.92715  0.58637  0.26889  1.0000
  C   C1800     1.0  0.93300  0.58664  0.25119  1.0000
  C   C1801     1.0  0.92602  0.57746  0.24293  1.0000
  C   C1802     1.0  0.91319  0.56779  0.25223  1.0000
  C   C1803     1.0  0.90743  0.56741  0.26996  1.0000
  C   C1804     1.0  0.91440  0.57662  0.27821  1.0000
  H   H2888     1.0  0.94297  0.59387  0.24386  1.0000
  H   H2889     1.0  0.93066  0.57779  0.22923  1.0000
  H   H2890     1.0  0.89763  0.56001  0.27735  1.0000
  H   H2891     1.0  0.90983  0.57620  0.29193  1.0000
  S   S754      1.0  0.95721  0.75655  0.16605  1.0000
  H   H2892     1.0  0.95868  0.74802  0.06467  1.0000
  C   C1805     1.0  0.97025  0.71742  0.09891  1.0000
  C   C1806     1.0  0.79857  0.52240  0.24463  1.0000
  S   S755      1.0  0.98334  0.82634  0.21024  1.0000
  C   C1807     1.0  0.95833  0.68297  0.29712  1.0000
  C   C1808     1.0  0.95692  0.68753  0.31296  1.0000
  C   C1809     1.0  0.96962  0.69528  0.31537  1.0000
  S   S756      1.0  0.82657  0.79028  0.28541  1.0000
  C   C1810     1.0  0.80836  0.93574  0.25783  1.0000
  H   H2893     1.0  0.94634  0.68455  0.32361  1.0000
  H   H2894     1.0  0.96867  0.69826  0.32778  1.0000
  C   C1811     1.0  0.92476  0.62827  0.19570  1.0000
  C   C1812     1.0  0.92778  0.64398  0.18495  1.0000
  C   C1813     1.0  0.93712  0.65388  0.18952  1.0000
  C   C1814     1.0  0.94318  0.64815  0.20499  1.0000
  C   C1815     1.0  0.94074  0.63211  0.21535  1.0000
  C   C1816     1.0  0.93183  0.62204  0.21052  1.0000
  H   H2895     1.0  0.92259  0.64867  0.17326  1.0000
  H   H2896     1.0  0.93911  0.66613  0.18128  1.0000
  H   H2897     1.0  0.94509  0.62763  0.22742  1.0000
  H   H2898     1.0  0.92945  0.60993  0.21880  1.0000
  H   H2899     1.0  0.79989  0.58420  0.18745  1.0000
  H   H2900     1.0  0.88811  0.93440  0.21694  1.0000
  N   N181      1.0  0.93736  0.79858  0.24160  1.0000
  N   N182      1.0  0.83707  0.52817  0.19329  1.0000
  H   H2901     1.0  0.80884  0.87250  0.22440  1.0000
  C   C1817     1.0  0.86525  0.73390  0.21567  1.0000
  C   C1818     1.0  0.86642  0.72676  0.20142  1.0000
  C   C1819     1.0  0.86294  0.71023  0.20377  1.0000
  C   C1820     1.0  0.85795  0.70085  0.22045  1.0000
  C   C1821     1.0  0.85685  0.70793  0.23474  1.0000
  C   C1822     1.0  0.86059  0.72439  0.23237  1.0000
  H   H2902     1.0  0.86983  0.73412  0.18848  1.0000
  H   H2903     1.0  0.86373  0.70492  0.19267  1.0000
  H   H2904     1.0  0.85290  0.70076  0.24766  1.0000
  H   H2905     1.0  0.85959  0.72982  0.24344  1.0000
  C   C1823     1.0  0.91966  0.75383  0.28918  1.0000
  C   C1824     1.0  0.90823  0.76414  0.30031  1.0000
  C   C1825     1.0  0.91266  0.76466  0.31577  1.0000
  C   C1826     1.0  0.92849  0.75487  0.32018  1.0000
  C   C1827     1.0  0.93969  0.74437  0.30912  1.0000
  C   C1828     1.0  0.93542  0.74405  0.29360  1.0000
  H   H2906     1.0  0.89596  0.77164  0.29710  1.0000
  H   H2907     1.0  0.90383  0.77268  0.32433  1.0000
  H   H2908     1.0  0.95148  0.73610  0.31271  1.0000
  H   H2909     1.0  0.94421  0.73577  0.28525  1.0000
  S   S757      1.0  0.82472  0.96106  0.25786  1.0000
  H   H2910     1.0  0.84766  0.54007  0.16731  1.0000
  H   H2911     1.0  0.97258  0.72700  0.06456  1.0000
  C   C1829     1.0  0.82601  0.61401  0.17631  1.0000
  C   C1830     1.0  0.83635  0.60920  0.16105  1.0000
  C   C1831     1.0  0.98351  0.82648  0.29263  1.0000
  Fe  Fe376     1.0  0.86733  0.51278  0.28046  1.0000
  C   C1832     1.0  0.88793  0.72364  0.29603  1.0000
  H   H2912     1.0  0.84638  0.61627  0.15352  1.0000
  C   C1833     1.0  0.81430  0.85854  0.22859  1.0000
  H   H2913     1.0  0.81376  0.54800  0.19414  1.0000
  C   C1834     1.0  0.81954  0.58692  0.16415  1.0000
  C   C1835     1.0  0.82399  0.93352  0.22352  1.0000
  C   C1836     1.0  0.80750  0.54800  0.24644  1.0000
  C   C1837     1.0  0.80871  0.53011  0.25083  1.0000
  H   H2914     1.0  0.96377  0.71232  0.11232  1.0000
  Fe  Fe377     1.0  0.87298  0.50897  0.24334  1.0000
  H   H2915     1.0  0.94980  0.82964  0.29183  1.0000
  H   H2916     1.0  0.81723  0.52219  0.25917  1.0000
  H   H2917     1.0  0.97340  0.68361  0.27124  1.0000
  H   H2918     1.0  0.98059  0.83337  0.27981  1.0000
  H   H2919     1.0  0.82454  0.54431  0.21184  1.0000
  H   H2920     1.0  0.90698  0.92120  0.23837  1.0000
  H   H2921     1.0  0.83756  0.87874  0.22292  1.0000
  H   H2922     1.0  0.87470  0.72255  0.29530  1.0000
  H   H2923     1.0  0.84105  0.83134  0.23161  1.0000
  H   H2924     1.0  0.97365  0.85393  0.30741  1.0000
  H   H2925     1.0  0.82500  0.83037  0.25131  1.0000
  H   H2926     1.0  0.81915  0.85284  0.21683  1.0000
  C   C1838     1.0  0.98690  0.89293  0.16961  1.0000
  C   C1839     1.0  0.90143  0.85430  0.25119  1.0000
  C   C1840     1.0  0.89079  0.84251  0.26032  1.0000
  C   C1841     1.0  0.88373  0.83432  0.25137  1.0000
  C   C1842     1.0  0.88738  0.83780  0.23332  1.0000
  C   C1843     1.0  0.89684  0.85062  0.22423  1.0000
  C   C1844     1.0  0.90376  0.85894  0.23319  1.0000
  H   H2927     1.0  0.88849  0.83926  0.27430  1.0000
  H   H2928     1.0  0.87551  0.82535  0.25853  1.0000
  H   H2929     1.0  0.89923  0.85379  0.21025  1.0000
  H   H2930     1.0  0.91082  0.86898  0.22616  1.0000
  C   C1845     1.0  0.93632  0.93036  0.20631  1.0000
  C   C1846     1.0  0.92340  0.94125  0.19759  1.0000
  C   C1847     1.0  0.91251  0.95564  0.20401  1.0000
  C   C1848     1.0  0.91480  0.95947  0.21894  1.0000
  C   C1849     1.0  0.96738  0.73752  0.07200  1.0000
  C   C1850     1.0  0.93827  0.93397  0.22147  1.0000
  H   H2931     1.0  0.92190  0.93864  0.18577  1.0000
  H   H2932     1.0  0.94214  0.75613  0.09249  1.0000
  H   H2933     1.0  0.80122  0.97025  0.29153  1.0000
  H   H2934     1.0  0.94836  0.92588  0.22814  1.0000
  C   C1851     1.0  0.91382  0.72936  0.14733  1.0000
  C   C1852     1.0  0.89595  0.72937  0.15343  1.0000
  C   C1853     1.0  0.88867  0.71621  0.15156  1.0000
  C   C1854     1.0  0.89909  0.70322  0.14299  1.0000
  C   C1855     1.0  0.91703  0.70313  0.13690  1.0000
  C   C1856     1.0  0.92446  0.71600  0.13936  1.0000
  H   H2935     1.0  0.88760  0.73971  0.15949  1.0000
  H   H2936     1.0  0.87481  0.71652  0.15612  1.0000
  H   H2937     1.0  0.92515  0.69304  0.13033  1.0000
  H   H2938     1.0  0.93831  0.71562  0.13505  1.0000
  C   C1857     1.0  0.96325  0.81044  0.16998  1.0000
  C   C1858     1.0  0.95503  0.82599  0.17556  1.0000
  C   C1859     1.0  0.96080  0.83093  0.18814  1.0000
  C   C1860     1.0  0.97499  0.82040  0.19506  1.0000
  H   H2939     1.0  0.94422  0.83428  0.17005  1.0000
  H   H2940     1.0  0.86531  0.93388  0.22278  1.0000
  N   N183      1.0  0.88724  0.63711  0.24698  1.0000
  C   C1861     1.0  0.89998  0.62104  0.25149  1.0000
  C   C1862     1.0  0.87055  0.63274  0.24702  1.0000
  C   C1863     1.0  0.89413  0.64659  0.22961  1.0000
  C   C1864     1.0  0.88431  0.64806  0.25972  1.0000
  H   H2941     1.0  0.91284  0.62374  0.25148  1.0000
  H   H2942     1.0  0.90242  0.61247  0.24212  1.0000
  H   H2943     1.0  0.89536  0.61351  0.26456  1.0000
  H   H2944     1.0  0.87242  0.62423  0.23774  1.0000
  H   H2945     1.0  0.86484  0.62581  0.26002  1.0000
  H   H2946     1.0  0.86073  0.64456  0.24326  1.0000
  H   H2947     1.0  0.90710  0.64941  0.22886  1.0000
  H   H2948     1.0  0.88527  0.65912  0.22602  1.0000
  H   H2949     1.0  0.89562  0.63906  0.21958  1.0000
  H   H2950     1.0  0.87460  0.66021  0.25668  1.0000
  H   H2951     1.0  0.89665  0.65170  0.25986  1.0000
  H   H2952     1.0  0.87933  0.64121  0.27302  1.0000
  H   H2953     1.0  0.94101  0.71796  0.20737  1.0000
  H   H2954     1.0  0.92790  0.79309  0.26915  1.0000
  H   H2955     1.0  0.91121  0.79963  0.25664  1.0000
  S   S758      1.0  0.99446  0.76347  0.13984  1.0000
  H   H2956     1.0  0.92192  0.71252  0.29681  1.0000
  H   H2957     1.0  0.85187  0.52240  0.21325  1.0000
  H   H2958     1.0  0.92969  0.95156  0.23907  1.0000
  C   C1865     1.0  0.82723  0.51431  0.20213  1.0000
  N   N184      1.0  0.92184  0.70921  0.19946  1.0000
  C   C1866     1.0  0.91145  0.72675  0.19495  1.0000
  C   C1867     1.0  0.93173  0.70894  0.21250  1.0000
  C   C1868     1.0  0.93414  0.70449  0.18380  1.0000
  C   C1869     1.0  0.90999  0.69679  0.20655  1.0000
  H   H2959     1.0  0.91997  0.73633  0.18887  1.0000
  H   H2960     1.0  0.90252  0.73097  0.20658  1.0000
  H   H2961     1.0  0.90328  0.72735  0.18566  1.0000
  H   H2962     1.0  0.93953  0.69584  0.21649  1.0000
  H   H2963     1.0  0.92284  0.71273  0.22438  1.0000
  H   H2964     1.0  0.94314  0.69192  0.18693  1.0000
  H   H2965     1.0  0.94233  0.71434  0.17728  1.0000
  H   H2966     1.0  0.92704  0.70329  0.17427  1.0000
  H   H2967     1.0  0.91740  0.68340  0.21017  1.0000
  H   H2968     1.0  0.90241  0.69667  0.19694  1.0000
  H   H2969     1.0  0.90032  0.70015  0.21821  1.0000
  H   H2970     1.0  0.81587  0.87750  0.25054  1.0000
  H   H2971     1.0  0.95149  0.85142  0.31687  1.0000
  C   C1870     1.0  0.95371  0.82309  0.30440  1.0000
  N   N185      1.0  0.89841  0.79038  0.17528  1.0000
  C   C1871     1.0  0.88764  0.78379  0.16721  1.0000
  C   C1872     1.0  0.90990  0.77569  0.18427  1.0000
  C   C1873     1.0  0.88686  0.80062  0.18788  1.0000
  C   C1874     1.0  0.90927  0.80134  0.16180  1.0000
  H   H2972     1.0  0.87854  0.79449  0.16058  1.0000
  H   H2973     1.0  0.87962  0.77511  0.17700  1.0000
  H   H2974     1.0  0.89591  0.77619  0.15744  1.0000
  H   H2975     1.0  0.91852  0.76758  0.17513  1.0000
  H   H2976     1.0  0.91846  0.78018  0.19024  1.0000
  H   H2977     1.0  0.90215  0.76726  0.19467  1.0000
  H   H2978     1.0  0.89454  0.80558  0.19443  1.0000
  H   H2979     1.0  0.87835  0.79273  0.19809  1.0000
  H   H2980     1.0  0.87813  0.81198  0.18155  1.0000
  H   H2981     1.0  0.91840  0.79386  0.15229  1.0000
  H   H2982     1.0  0.91746  0.80663  0.16747  1.0000
  H   H2983     1.0  0.90111  0.81246  0.15452  1.0000
  N   N186      1.0  0.87225  0.58679  0.20137  1.0000
  C   C1875     1.0  0.85602  0.58025  0.20434  1.0000
  C   C1876     1.0  0.87224  0.59357  0.21652  1.0000
  C   C1877     1.0  0.87299  0.60068  0.18574  1.0000
  C   C1878     1.0  0.88775  0.57279  0.19882  1.0000
  H   H2984     1.0  0.85589  0.57434  0.19354  1.0000
  H   H2985     1.0  0.84428  0.59090  0.20543  1.0000
  H   H2986     1.0  0.85431  0.57052  0.21658  1.0000
  H   H2987     1.0  0.88409  0.59901  0.21455  1.0000
  H   H2988     1.0  0.86051  0.60384  0.21919  1.0000
  H   H2989     1.0  0.87231  0.58316  0.22837  1.0000
  H   H2990     1.0  0.88518  0.60577  0.18278  1.0000
  H   H2991     1.0  0.86177  0.61167  0.18731  1.0000
  H   H2992     1.0  0.87261  0.59604  0.17419  1.0000
  H   H2993     1.0  0.90008  0.57763  0.19645  1.0000
  H   H2994     1.0  0.88825  0.56711  0.18766  1.0000
  H   H2995     1.0  0.88801  0.56225  0.21048  1.0000
  N   N187      1.0  0.87909  0.92362  0.24366  1.0000
  C   C1879     1.0  0.87542  0.94040  0.24896  1.0000
  C   C1880     1.0  0.86584  0.91351  0.25418  1.0000
  C   C1881     1.0  0.89668  0.91396  0.24625  1.0000
  C   C1882     1.0  0.87839  0.92665  0.22521  1.0000
  H   H2996     1.0  0.88508  0.94846  0.24124  1.0000
  H   H2997     1.0  0.87588  0.93871  0.26279  1.0000
  H   H2998     1.0  0.86225  0.94802  0.24718  1.0000
  H   H2999     1.0  0.85241  0.92047  0.25251  1.0000
  H   H3000     1.0  0.86822  0.90074  0.25055  1.0000
  H   H3001     1.0  0.86597  0.91106  0.26819  1.0000
  H   H3002     1.0  0.89986  0.90114  0.24253  1.0000
  H   H3003     1.0  0.89778  0.91156  0.26000  1.0000
  Fe  Fe378     1.0  0.96695  0.77855  0.14670  1.0000
  S   S759      1.0  0.86333  0.49507  0.30645  1.0000
  H   H3004     1.0  0.83702  0.52664  0.30429  1.0000
  S   S760      1.0  0.97149  0.66067  0.25115  1.0000
  C   C1883     1.0  0.82113  0.86336  0.25387  1.0000
  Fe  Fe379     1.0  0.98540  0.63347  0.25887  1.0000
  N   N188      1.0  0.82832  0.85597  0.23817  1.0000
  H   H3005     1.0  0.91156  0.72361  0.31434  1.0000
  H   H3006     1.0  0.98335  0.87199  0.13999  1.0000
  H   H3007     1.0  0.98357  0.78774  0.17303  1.0000
  C   C1884     1.0  0.80447  0.92398  0.25024  1.0000
  C   C1885     1.0  0.82679  0.54475  0.19774  1.0000
  H   H3008     1.0  0.88671  0.73631  0.29948  1.0000
  H   H3009     1.0  0.94422  0.77133  0.25188  1.0000
  Fe  Fe380     1.0  0.83881  0.98057  0.23875  1.0000
  H   H3010     1.0  0.83350  0.55563  0.19079  1.0000
  H   H3011     1.0  0.80515  0.82148  0.29570  1.0000
  H   H3012     1.0  0.80664  0.53353  0.32077  1.0000
  H   H3013     1.0  0.86165  0.53422  0.19284  1.0000
  H   H3014     1.0  0.95875  0.79401  0.25447  1.0000
  H   H3015     1.0  0.82800  0.53276  0.16965  1.0000
  H   H3016     1.0  0.84839  0.85916  0.21527  1.0000
  C   C1886     1.0  0.84041  0.52959  0.17439  1.0000
  C   C1887     1.0  0.79517  0.55832  0.23686  1.0000
  H   H3017     1.0  0.86206  0.51159  0.19567  1.0000
  C   C1888     1.0  0.97713  0.79974  0.17724  1.0000
  C   C1889     1.0  0.84184  0.50022  0.31803  1.0000
  H   H3018     1.0  0.99401  0.79655  0.19494  1.0000
  C   C1890     1.0  0.84248  0.86463  0.22710  1.0000
  H   H3019     1.0  0.90394  0.68152  0.31208  1.0000
  H   H3020     1.0  0.96237  0.75131  0.09962  1.0000
  S   S761      1.0  0.97564  0.73225  0.13751  1.0000
  N   N189      1.0  0.95807  0.73115  0.08968  1.0000
  H   H3021     1.0  0.79833  0.97704  0.31149  1.0000
  C   C1891     1.0  0.83312  0.59572  0.15503  1.0000
  C   C1892     1.0  0.89794  0.69274  0.30298  1.0000
  H   H3022     1.0  0.84581  0.83478  0.25061  1.0000
  C   C1893     1.0  0.81978  0.94664  0.24815  1.0000
  H   H3023     1.0  0.95888  0.85558  0.29381  1.0000
  C   C1894     1.0  0.85389  0.52398  0.19898  1.0000
  H   H3024     1.0  0.96451  0.79933  0.23130  1.0000
  C   C1895     1.0  0.98847  0.86241  0.17264  1.0000
  C   C1896     1.0  0.83473  0.48750  0.33095  1.0000
  C   C1897     1.0  0.81238  0.92281  0.23313  1.0000
  H   H3025     1.0  0.95442  0.84293  0.19230  1.0000
  H   H3026     1.0  0.90687  0.69278  0.29009  1.0000
  C   C1898     1.0  0.98392  0.69835  0.30200  1.0000
  C   C1899     1.0  0.92772  0.94858  0.22761  1.0000
  H   H3027     1.0  0.83598  0.95425  0.22335  1.0000
  H   H3028     1.0  0.98782  0.81254  0.29227  1.0000
  H   H3029     1.0  0.81794  0.97895  0.29513  1.0000
  H   H3030     1.0  0.94195  0.82526  0.31482  1.0000
  S   S762      1.0  0.89156  0.50913  0.25973  1.0000
  C   C1900     1.0  0.80153  0.82025  0.28426  1.0000
  H   H3031     1.0  0.91865  0.80798  0.22503  1.0000
  H   H3032     1.0  0.98833  0.67142  0.18479  1.0000
  H   H3033     1.0  0.92965  0.82390  0.22655  1.0000
  H   H3034     1.0  0.95599  0.89592  0.16122  1.0000
  C   C1901     1.0  0.83160  0.51676  0.31422  1.0000
  C   C1902     1.0  0.88393  0.70856  0.32581  1.0000
  H   H3035     1.0  0.83126  0.86140  0.26158  1.0000
  Fe  Fe381     1.0  0.97548  0.86869  0.24806  1.0000
  N   N190      1.0  0.96823  0.82968  0.30671  1.0000
  C   C1903     1.0  0.83537  0.83730  0.24315  1.0000
  H   H3036     1.0  0.80530  0.60785  0.19790  1.0000
  C   C1904     1.0  0.80727  0.50784  0.33632  1.0000
  H   H3037     1.0  0.84815  0.51731  0.17055  1.0000
  C   C1905     1.0  0.98502  0.69429  0.28605  1.0000
  H   H3038     1.0  0.84087  0.59246  0.14296  1.0000
  H   H3039     1.0  0.94768  0.71312  0.08197  1.0000
  H   H3040     1.0  0.82473  0.51279  0.21640  1.0000
  N   N191      1.0  0.89563  0.70914  0.30862  1.0000
  Fe  Fe382     1.0  0.98487  0.75578  0.11977  1.0000
  H   H3041     1.0  0.83447  0.50163  0.19886  1.0000
  H   H3042     1.0  0.94102  0.80773  0.21407  1.0000
  H   H3043     1.0  0.95745  0.80894  0.30466  1.0000
  H   H3044     1.0  0.94994  0.77739  0.22871  1.0000
  H   H3045     1.0  0.97690  0.80649  0.32437  1.0000
  C   C1906     1.0  0.95408  0.80208  0.24271  1.0000
  C   C1907     1.0  0.80520  0.80444  0.26182  1.0000
  C   C1908     1.0  0.98301  0.80476  0.18966  1.0000
  C   C1909     1.0  0.82745  0.94566  0.23096  1.0000
  C   C1910     1.0  0.81442  0.52066  0.32358  1.0000
  C   C1911     1.0  0.96278  0.84846  0.30625  1.0000
  S   S763      1.0  0.98922  0.86723  0.26960  1.0000
  H   H3046     1.0  0.92208  0.81540  0.25880  1.0000
  H   H3047     1.0  0.93378  0.73414  0.08187  1.0000
  H   H3048     1.0  0.99163  0.72544  0.47198  1.0000
  H   H3049     1.0  0.85318  0.86303  0.23403  1.0000
  S   S764      1.0  0.97710  0.72023  0.34990  1.0000
  C   C1912     1.0  0.80985  0.59120  0.17984  1.0000
  H   H3050     1.0  0.98497  0.85221  0.16811  1.0000
  H   H3051     1.0  0.88528  0.69037  0.30202  1.0000
  H   H3052     1.0  0.79993  0.50849  0.24767  1.0000
  C   C1913     1.0  0.92408  0.80184  0.25724  1.0000
  C   C1914     1.0  0.81302  0.60464  0.18581  1.0000
  H   H3053     1.0  0.82991  0.93279  0.21020  1.0000
  C   C1915     1.0  0.93992  0.78035  0.24031  1.0000
  C   C1916     1.0  0.81736  0.49120  0.33983  1.0000
  H   H3054     1.0  0.88196  0.72081  0.33036  1.0000
  C   C1917     1.0  0.97236  0.68658  0.28363  1.0000
  H   H3055     1.0  0.88945  0.69782  0.33564  1.0000
  Fe  Fe383     1.0  0.98367  0.74096  0.15765  1.0000
  H   H3056     1.0  0.96189  0.82305  0.33449  1.0000
  H   H3057     1.0  0.80235  0.93653  0.27112  1.0000
  C   C1918     1.0  0.81004  0.80601  0.27653  1.0000
  H   H3058     1.0  0.97872  0.74286  0.07227  1.0000
  H   H3059     1.0  0.98241  0.89467  0.13776  1.0000
  C   C1919     1.0  0.93141  0.81003  0.22613  1.0000
  S   S765      1.0  0.98485  0.87176  0.21921  1.0000
  H   H3060     1.0  0.98112  0.67963  0.21323  1.0000
  Fe  Fe384     1.0  0.99434  0.72371  0.32358  1.0000
  H   H3061     1.0  0.98162  0.72231  0.09981  1.0000
  H   H3062     1.0  0.98343  0.86050  0.18684  1.0000
  H   H3063     1.0  0.98422  0.82510  0.32547  1.0000
  S   S766      1.0  0.90235  0.97798  0.22693  1.0000
  C   C1920     1.0  0.80353  0.98025  0.29733  1.0000
  S   S767      1.0  0.87795  0.48983  0.22575  1.0000
  H   H3064     1.0  0.98934  0.76125  0.44930  1.0000
  H   H3065     1.0  0.84063  0.49143  0.24045  1.0000
  H   H3066     1.0  0.98108  0.90634  0.16372  1.0000
  H   H3067     1.0  0.95671  0.88209  0.18184  1.0000
  S   S768      1.0  0.85787  0.97831  0.21368  1.0000
  N   N192      1.0  0.98122  0.87992  0.16372  1.0000
  H   H3068     1.0  0.98959  0.64872  0.21125  1.0000
  H   H3069     1.0  0.80324  0.85243  0.23669  1.0000
  H   H3070     1.0  0.98271  0.89177  0.18384  1.0000
  H   H3071     1.0  0.79542  0.91578  0.25769  1.0000
  H   H3072     1.0  0.98634  0.74538  0.47948  1.0000
