data_image0
_chemical_formula_structural       HFeS2FeS2FeHFeS3FeS2FeS2FeSFeS3H3CFeHFeSCSFeS2CHC2H3SCNH2CH2FeC6H4C6H4C7HCH3CH4C4SH3NHC5H2SH3S2H2NH2FeHC3H2NS2CH2NH6CSHFeCHCH7CH2CHCH2SH3C2H4C2FeNH3CH2CHC2HCH2CHC2HCH2CH6S2HS2CFeS2HSHC2NCFeS2FeS2FeSFeS3FeS2FeS2FeSFeS3C6H4CHCH3C6H4C3H2C6H7CSHC6H4CNC6H5CH3Fe2HCH3CH3SHCNH2FeCH3NC3H2CH3CH4C2H2CH2NH5FeH3CH2NC4H12NC2HCH6FeH6CNSCHCH2CH3SCH6CH2C2HCH3C3H2SFeS2FeS2FeSFeS3FeS2FeCSH4NH8C7H4C6H4C6H5C5H9NC4H12CH2C2HFeHCSCNCH3CHSHC2FeNH2CHCH2C2H2CHC3H3CHCH3CH4NHNC4H5CSHCH2SH2SHSH7CH3CH4CFeCSHNH2FeS2FeS2FeSFeCS3FeS2FeS2FeSFeS2FeHSFeS2FeHFeHS2C2H2C2H2CH6C7H4C6H5C9H4NC4H2SHC2HSHCH3C2H6CH2C2H3CH2NH2SH4CH3CHCHC3H5SNCH5CH3CHCH4C2SH3SHCSCHNHCH2NSFeSNFeSFeH3SFeS2FeCFeS3FeHFe2CSH3CSHFeHSFeS2NFeSHS2H2SCSH2C5H3CHC6HCSHC5H2SC8H4CHCH4CH5CHSH4SCHSHCSHCH2FeH5FeCH7CFeS2FeS2FeSFeS3FeS2FeS2FeSFeS3FeSCFeSHFeSHSHFeS2CHFeHFeS3CNH2CSC2N2HC5H4CHC2HCH2C6H4C5H5C6H4C6H6C4H3C2HC5SC3H2CH2CH2NHCH3CH2C2NC4H11NCH2CHC3H3CH4NHC3H7CH4NC4H13CHCSCHCH2FeCHCH2CH2CHCHCH5CH4CH2CH2CNSC2H2CHSH2CH10NCH2CSHC2H3CHC4SCH3FeH3CH6S2FeS2CH2FeS2FeS2FeS2FeSFeS3FeS2FeS2FeSFeS3HC3H5C7H4C2H2C2H4C6H4C6H5CHC9H4C6H6CHCNHCNH5NCHC3HFeC2SH2CH4SC2HNC4H13CH4NC4H12CHC2H2CH4CH5NHNH4CH2NH7CH5SCFeH4CSH2C2H2C2H4C2H2CH2CH2C2HFeCHFeH2FeS2HFeSCSFeS2H2FeHFeCS2FeSH3FeHSH2SH2C2HSH2SC4H3C6H3C7H4CH3CSH3C6SNHCFeC2H3C2HC2H4SCH2SH3CSHCHC2FeH2NH2NC3HFeCS2FeSHFeH2FeSHSHFeS2HCFeH2SCSHNH5CH3C6H4C2H2FeHC3FeSH3SNH2CH2NH3CH5SHC2SHC2H2CH2C2HNH3CSHCH3SH3C2H2CH4CH2NHCH2CH8NH7C5HSC2FeSCH5FeH3SCH2SH3NHC2FeSH2S2NHCH2CHCHC7H4CH2CSH4FeNH3CHCH2CH4C2HCSH4CHSH3SCHNHCH2SCH4CH3FeHSHSC2HC3HFeSH2S2HFeS2FeSHFeSFeS3CFeSCFeS2FeSFeS4C6H4C6H4C6H4C6H4CH2CH2C2HC3SH2C6H5CH3C2SH2C3HCH3FeHCHS2H2CHNSCNC4H14SHNH3CH7CH3FeH2NHCHNH6CHC3H10CH2C2HCHSH3CFeH5NCH2NH2SHCHCHCHCNHCNHCH4CSCHCHC3H2CH4CH4SH5C2HC3H2C2H3FeHCS2FeS2FeSHFeSFeSFeSHFeS2FeSHSH2FeS2FeS2FeSFeS4FeS2FeS2FeSFeS4CH2C6H4CHCH2C6H4C6H4C6H4C6H2SHC6H4C2H2NHC6H4C6H4CHC4H4SHC4NCNCHCNH2CH2SNHNHC2H5NCHCH10NC4H7C2HCNFeSH3NHFeH3SHSCH4FeHNH5SHC2SC2H5CH2CHNCH2C2H5CH4SCH3CHCNH2CHFeSH4C2H6C5HSCH3SH6CH2CH7CH2CH7C2H2FeH2CHCH2CH4CSH7C2H2SHCH5SH3FeCHNFeHFeS2FeS2FeHFeS3FeS2FeS2FeSFeS3FeS2CH4SHFeS2CHC2NSH2SHCH5C6H4C6H4CH2C6H5CH2C5HFeH4C6H3CN2HCHC2HCS2H6CH4SH4CFeHCH2NC4H3CH6CH2CH6CHCSCH2CNFe2HSH3SNCSFeS2CH2FeS2H4FeS2FeSHFeSFeS3FeS2FeS2FeSFeS3HC6H4C6H5CH2C2H2SFeH2C6H4C6H4C6H4CH3NC4H12NC4HFeH7C2HNC4H8NHCHCHFeH3CH2CSHCH4CHNSCHSH3NHCH4CH2C3H8CHSH2CHCSHCH2CFeCH3SNFeS2FeS2FeS2FeSFeS4FeSHSHCFeS2HCH6CHC6H4C6H6FeHC8H5SC5H5CH8CH2C2H8NCHSH2CH4CH4N2C4H12NC4H7C2NH4C2HCHCS2HCSCSCH2CH4FeCHFeC3H2C2FeS2HC2HS2FeS2FeS2FeSFeHS2FeHSFeS2FeCHS2CSHS2CFeSFeSC2HFeC2FeH4FeC6H4C6H5C6H4C4NHC3SH2NC4H13FeHSCHCH3C3H6NC4H13C2H2SCH3NSHC2HSCH7CHFeSH3CNC4H6SHFeHSFeCSHFeSHSNSFeS2FeSHNCSFeCSFeHSH3S2FeHSFeS2FeSHSHC2H3C5H2SHCHC6HCH2CH2C3HSH2C6H4NC3H7CHCFeHC2H2CHCH5C2H3CH3CHCHCSH2SHCSH2FeHSH
_chemical_formula_sum              "H1728 Fe216 S432 C1080 N108"
_cell_length_a       51.6668
_cell_length_b       54.349
_cell_length_c       104.896
_cell_angle_alpha    86.8478
_cell_angle_beta     90.2244
_cell_angle_gamma    110.054

_space_group_name_H-M_alt    "P 1"
_space_group_IT_number       1

loop_
  _space_group_symop_operation_xyz
  'x, y, z'

loop_
  _atom_site_type_symbol
  _atom_site_label
  _atom_site_symmetry_multiplicity
  _atom_site_fract_x
  _atom_site_fract_y
  _atom_site_fract_z
  _atom_site_occupancy
  H   H1        1.0  0.40867  0.31844  0.03303  1.0000
  Fe  Fe1       1.0  0.07007  0.37304  0.04742  1.0000
  S   S1        1.0  0.10735  0.39633  0.03545  1.0000
  S   S2        1.0  0.02528  0.35023  0.04218  1.0000
  Fe  Fe2       1.0  0.10057  0.39085  0.07258  1.0000
  S   S3        1.0  0.14008  0.41580  0.06259  1.0000
  S   S4        1.0  0.09455  0.37964  0.09390  1.0000
  Fe  Fe3       1.0  0.11254  0.42820  0.04898  1.0000
  H   H2        1.0  0.30094  0.43314  0.14382  1.0000
  Fe  Fe4       1.0  0.13267  0.38236  0.04979  1.0000
  S   S5        1.0  0.16669  0.36848  0.04279  1.0000
  S   S6        1.0  0.07366  0.40643  0.06003  1.0000
  S   S7        1.0  0.09499  0.35618  0.06064  1.0000
  Fe  Fe5       1.0  0.36518  0.38058  0.05086  1.0000
  S   S8        1.0  0.35600  0.41300  0.03951  1.0000
  S   S9        1.0  0.37706  0.34638  0.04438  1.0000
  Fe  Fe6       1.0  0.37287  0.40941  0.07601  1.0000
  S   S10       1.0  0.36540  0.44416  0.06643  1.0000
  S   S11       1.0  0.39134  0.41151  0.09582  1.0000
  Fe  Fe7       1.0  0.33023  0.41404  0.05683  1.0000
  S   S12       1.0  0.29121  0.42424  0.05855  1.0000
  Fe  Fe8       1.0  0.39118  0.44039  0.05009  1.0000
  S   S13       1.0  0.42919  0.46956  0.04045  1.0000
  S   S14       1.0  0.33657  0.37930  0.06743  1.0000
  S   S15       1.0  0.40155  0.40809  0.06038  1.0000
  H   H3        1.0  0.38228  0.32485  0.10622  1.0000
  H   H4        1.0  0.09250  0.45886  0.11415  1.0000
  H   H5        1.0  0.18237  0.47183  0.04490  1.0000
  C   C1        1.0  0.44908  0.40025  0.00816  1.0000
  Fe  Fe9       1.0  0.12214  0.44315  0.18907  1.0000
  H   H6        1.0  0.39152  0.31028  0.07249  1.0000
  Fe  Fe10      1.0  0.12352  0.44510  0.15945  1.0000
  S   S16       1.0  0.10302  0.45149  0.14090  1.0000
  C   C2        1.0  0.01374  0.33374  0.09729  1.0000
  S   S17       1.0  0.16784  0.44803  0.15868  1.0000
  Fe  Fe11      1.0  0.34598  0.38326  0.16725  1.0000
  S   S18       1.0  0.36002  0.42716  0.16696  1.0000
  S   S19       1.0  0.33189  0.36250  0.14893  1.0000
  C   C3        1.0  0.22227  0.43004  0.17757  1.0000
  H   H7        1.0  0.99866  0.34151  0.10159  1.0000
  C   C4        1.0  0.25053  0.44319  0.17897  1.0000
  C   C5        1.0  0.22733  0.45843  0.04057  1.0000
  H   H8        1.0  0.02902  0.30476  0.08070  1.0000
  H   H9        1.0  0.31172  0.40604  0.14870  1.0000
  H   H10       1.0  0.41497  0.30991  0.08516  1.0000
  S   S20       1.0  0.13040  0.47601  0.17384  1.0000
  C   C6        1.0  0.39189  0.33157  0.00254  1.0000
  N   N1        1.0  0.39449  0.33805  0.08672  1.0000
  H   H11       1.0  0.41691  0.31026  0.01054  1.0000
  H   H12       1.0  0.20947  0.44115  0.17445  1.0000
  C   C7        1.0  0.19326  0.47854  0.03551  1.0000
  H   H13       1.0  0.29724  0.01104  0.99945  1.0000
  H   H14       1.0  0.24396  0.41202  0.15618  1.0000
  Fe  Fe12      1.0  0.15637  0.41765  0.17495  1.0000
  C   C8        1.0  0.37320  0.39900  0.11037  1.0000
  C   C9        1.0  0.34743  0.37901  0.11082  1.0000
  C   C10       1.0  0.33500  0.36790  0.12270  1.0000
  C   C11       1.0  0.34782  0.37721  0.13419  1.0000
  C   C12       1.0  0.37322  0.39764  0.13372  1.0000
  C   C13       1.0  0.38600  0.40819  0.12186  1.0000
  H   H15       1.0  0.33732  0.37177  0.10205  1.0000
  H   H16       1.0  0.31541  0.35198  0.12298  1.0000
  H   H17       1.0  0.38338  0.40486  0.14248  1.0000
  H   H18       1.0  0.40602  0.42353  0.12161  1.0000
  C   C14       1.0  0.20100  0.38182  0.04817  1.0000
  C   C15       1.0  0.22211  0.37569  0.04214  1.0000
  C   C16       1.0  0.24987  0.38748  0.04562  1.0000
  C   C17       1.0  0.25667  0.40565  0.05511  1.0000
  C   C18       1.0  0.23547  0.41123  0.06134  1.0000
  C   C19       1.0  0.20778  0.39928  0.05795  1.0000
  H   H19       1.0  0.21703  0.36209  0.03460  1.0000
  H   H20       1.0  0.26601  0.38314  0.04070  1.0000
  H   H21       1.0  0.24055  0.42521  0.06871  1.0000
  H   H22       1.0  0.19175  0.40383  0.06282  1.0000
  C   C20       1.0  0.98773  0.31207  0.00482  1.0000
  C   C21       1.0  0.09941  0.40126  0.10648  1.0000
  C   C22       1.0  0.09530  0.42538  0.10485  1.0000
  C   C23       1.0  0.09657  0.44067  0.11544  1.0000
  C   C24       1.0  0.10274  0.43236  0.12767  1.0000
  C   C25       1.0  0.10755  0.40858  0.12921  1.0000
  C   C26       1.0  0.10547  0.39296  0.11871  1.0000
  H   H23       1.0  0.09034  0.43189  0.09552  1.0000
  C   C27       1.0  0.46734  0.44449  0.01517  1.0000
  H   H24       1.0  0.11219  0.40190  0.13856  1.0000
  H   H25       1.0  0.10852  0.37427  0.12008  1.0000
  H   H26       1.0  0.43725  0.35802  0.08176  1.0000
  C   C28       1.0  0.21925  0.46887  0.01858  1.0000
  H   H27       1.0  0.34211  0.08122  0.00018  1.0000
  H   H28       1.0  0.20375  0.46988  0.01135  1.0000
  H   H29       1.0  0.36556  0.35399  0.99773  1.0000
  H   H30       1.0  0.25201  0.37600  0.12814  1.0000
  C   C29       1.0  0.26773  0.42924  0.18274  1.0000
  C   C30       1.0  0.01176  0.33669  0.02740  1.0000
  C   C31       1.0  0.02805  0.33061  0.01831  1.0000
  C   C32       1.0  0.01603  0.31811  0.00719  1.0000
  S   S21       1.0  0.12377  0.46917  0.04003  1.0000
  H   H31       1.0  0.04982  0.33501  0.01996  1.0000
  H   H32       1.0  0.32177  0.01069  0.01165  1.0000
  H   H33       1.0  0.35775  0.36254  0.02017  1.0000
  N   N2        1.0  0.26838  0.39557  0.14520  1.0000
  H   H34       1.0  0.17534  0.42588  0.04007  1.0000
  C   C33       1.0  0.40420  0.32183  0.01258  1.0000
  C   C34       1.0  0.39947  0.32650  0.02533  1.0000
  C   C35       1.0  0.38281  0.34131  0.02818  1.0000
  C   C36       1.0  0.37091  0.35142  0.01812  1.0000
  C   C37       1.0  0.37531  0.34645  0.00540  1.0000
  H   H35       1.0  0.21939  0.36787  0.18596  1.0000
  H   H36       1.0  0.39876  0.35962  0.10365  1.0000
  S   S22       1.0  0.11109  0.41186  0.17469  1.0000
  H   H37       1.0  0.25154  0.42590  0.14016  1.0000
  H   H38       1.0  0.11186  0.46653  0.06714  1.0000
  H   H39       1.0  0.04194  0.37611  0.08243  1.0000
  S   S23       1.0  0.30338  0.44608  0.18343  1.0000
  S   S24       1.0  0.31333  0.37693  0.18242  1.0000
  H   H40       1.0  0.28778  0.38093  0.13079  1.0000
  H   H41       1.0  0.41226  0.46800  0.16261  1.0000
  N   N3        1.0  0.01374  0.33642  0.08319  1.0000
  H   H42       1.0  0.03518  0.32825  0.06734  1.0000
  H   H43       1.0  0.27754  0.40808  0.12539  1.0000
  Fe  Fe13      1.0  0.38881  0.42313  0.18235  1.0000
  H   H44       1.0  0.03446  0.34489  0.10107  1.0000
  C   C38       1.0  0.39884  0.34029  0.10061  1.0000
  C   C39       1.0  0.39489  0.31237  0.08296  1.0000
  C   C40       1.0  0.27152  0.38990  0.13178  1.0000
  H   H45       1.0  0.22627  0.39376  0.14314  1.0000
  H   H46       1.0  0.41403  0.43735  0.01958  1.0000
  N   N4        1.0  0.20620  0.45990  0.03130  1.0000
  S   S25       1.0  0.17556  0.38646  0.17777  1.0000
  S   S26       1.0  0.16620  0.44638  0.19022  1.0000
  C   C41       1.0  0.24659  0.40732  0.14618  1.0000
  H   H47       1.0  0.02126  0.36714  0.06843  1.0000
  H   H48       1.0  0.36929  0.04160  0.00987  1.0000
  N   N5        1.0  0.44437  0.41914  0.01669  1.0000
  H   H49       1.0  0.38807  0.00011  0.00695  1.0000
  H   H50       1.0  0.05514  0.33637  0.08157  1.0000
  H   H51       1.0  0.41896  0.33857  0.10342  1.0000
  H   H52       1.0  0.21829  0.45265  0.05036  1.0000
  H   H53       1.0  0.35027  0.32473  0.08860  1.0000
  H   H54       1.0  0.19371  0.41909  0.02714  1.0000
  C   C42       1.0  0.36606  0.04479  0.99950  1.0000
  S   S27       1.0  0.43260  0.44861  0.18530  1.0000
  H   H55       1.0  0.22938  0.45526  0.01523  1.0000
  Fe  Fe14      1.0  0.17390  0.47646  0.17400  1.0000
  C   C43       1.0  0.36755  0.34039  0.08352  1.0000
  H   H56       1.0  0.41703  0.37896  0.08246  1.0000
  C   C44       1.0  0.41659  0.35929  0.07972  1.0000
  H   H57       1.0  0.01381  0.48477  0.04056  1.0000
  H   H58       1.0  0.36365  0.33901  0.07307  1.0000
  H   H59       1.0  0.16802  0.43411  0.02404  1.0000
  H   H60       1.0  0.23672  0.44366  0.03801  1.0000
  H   H61       1.0  0.46917  0.45299  0.00518  1.0000
  H   H62       1.0  0.37837  0.29589  0.08802  1.0000
  H   H63       1.0  0.40039  0.40453  0.01454  1.0000
  C   C45       1.0  0.29475  0.41412  0.14955  1.0000
  H   H64       1.0  0.36662  0.35954  0.08627  1.0000
  H   H65       1.0  0.24083  0.35654  0.15038  1.0000
  C   C46       1.0  0.02112  0.36442  0.07904  1.0000
  H   H66       1.0  0.37999  0.06491  0.99641  1.0000
  C   C47       1.0  0.21094  0.40284  0.17994  1.0000
  H   H67       1.0  0.43230  0.38082  0.00924  1.0000
  H   H68       1.0  0.25863  0.37454  0.16351  1.0000
  S   S28       1.0  0.37723  0.37946  0.18163  1.0000
  H   H69       1.0  0.46881  0.39698  0.01030  1.0000
  H   H70       1.0  0.29336  0.41839  0.15972  1.0000
  H   H71       1.0  0.46199  0.40497  0.03287  1.0000
  C   C48       1.0  0.26076  0.37093  0.15330  1.0000
  C   C49       1.0  0.03413  0.32596  0.07797  1.0000
  H   H72       1.0  0.41357  0.35851  0.06919  1.0000
  H   H73       1.0  0.24431  0.47761  0.04107  1.0000
  H   H74       1.0  0.46431  0.45921  0.02145  1.0000
  H   H75       1.0  0.27669  0.36145  0.15272  1.0000
  C   C50       1.0  0.18492  0.43367  0.03056  1.0000
  C   C51       1.0  0.98341  0.33051  0.02507  1.0000
  Fe  Fe15      1.0  0.32942  0.42062  0.18296  1.0000
  N   N6        1.0  0.33700  0.04123  0.99676  1.0000
  H   H76       1.0  0.09256  0.33348  0.19230  1.0000
  H   H77       1.0  0.42527  0.38990  0.03167  1.0000
  H   H78       1.0  0.33127  0.05872  0.01392  1.0000
  C   C52       1.0  0.25639  0.40210  0.18545  1.0000
  H   H79       1.0  0.25902  0.46421  0.17694  1.0000
  H   H80       1.0  0.44991  0.40724  0.99795  1.0000
  C   C53       1.0  0.42619  0.48448  0.16729  1.0000
  H   H81       1.0  0.00629  0.37306  0.08285  1.0000
  C   C54       1.0  0.43981  0.48033  0.17830  1.0000
  C   C55       1.0  0.44281  0.40868  0.03008  1.0000
  H   H82       1.0  0.43976  0.42264  0.03678  1.0000
  C   C56       1.0  0.32896  0.06085  0.00340  1.0000
  H   H83       1.0  0.30715  0.05887  0.00153  1.0000
  H   H84       1.0  0.41856  0.43094  0.00331  1.0000
  C   C57       1.0  0.41820  0.42315  0.01335  1.0000
  H   H85       1.0  0.00854  0.31289  0.10079  1.0000
  C   C58       1.0  0.22805  0.38886  0.18395  1.0000
  C   C59       1.0  0.31940  0.01443  0.00124  1.0000
  H   H86       1.0  0.11730  0.36443  0.18679  1.0000
  C   C60       1.0  0.11587  0.48643  0.06334  1.0000
  H   H87       1.0  0.17759  0.48057  0.02860  1.0000
  H   H88       1.0  0.02881  0.31311  0.00037  1.0000
  C   C61       1.0  0.98614  0.32168  0.07838  1.0000
  H   H89       1.0  0.98587  0.32346  0.06772  1.0000
  H   H90       1.0  0.26928  0.39132  0.18887  1.0000
  H   H91       1.0  0.35867  0.47938  0.18965  1.0000
  H   H92       1.0  0.37284  0.03069  0.99436  1.0000
  H   H93       1.0  0.32491  0.99929  0.99623  1.0000
  H   H94       1.0  0.12877  0.33795  0.19156  1.0000
  S   S29       1.0  0.09819  0.44128  0.20757  1.0000
  S   S30       1.0  0.21986  0.22405  0.39293  1.0000
  H   H95       1.0  0.99139  0.13415  0.36471  1.0000
  S   S31       1.0  0.20693  0.01432  0.38248  1.0000
  S   S32       1.0  0.33807  0.35137  0.21484  1.0000
  C   C62       1.0  0.24536  0.99948  0.35738  1.0000
  Fe  Fe16      1.0  0.26096  0.22778  0.38442  1.0000
  S   S33       1.0  0.24352  0.19249  0.37269  1.0000
  S   S34       1.0  0.28492  0.27094  0.37804  1.0000
  H   H96       1.0  0.39924  0.36884  0.21063  1.0000
  S   S35       1.0  0.16616  0.18541  0.36968  1.0000
  H   H97       1.0  0.03809  0.39826  0.31299  1.0000
  C   C63       1.0  0.44928  0.39691  0.20041  1.0000
  C   C64       1.0  0.43005  0.41801  0.21556  1.0000
  N   N7        1.0  0.27323  0.01924  0.35554  1.0000
  C   C65       1.0  0.00425  0.35630  0.30178  1.0000
  Fe  Fe17      1.0  0.11506  0.39721  0.28137  1.0000
  S   S36       1.0  0.13392  0.43432  0.29157  1.0000
  S   S37       1.0  0.12957  0.39676  0.26082  1.0000
  Fe  Fe18      1.0  0.08594  0.36600  0.30636  1.0000
  S   S38       1.0  0.10290  0.40142  0.31801  1.0000
  S   S39       1.0  0.05763  0.32495  0.31391  1.0000
  Fe  Fe19      1.0  0.09275  0.42405  0.30127  1.0000
  S   S40       1.0  0.07071  0.45331  0.30315  1.0000
  Fe  Fe20      1.0  0.14254  0.40844  0.30719  1.0000
  S   S41       1.0  0.18319  0.42073  0.31735  1.0000
  S   S42       1.0  0.07287  0.38822  0.29010  1.0000
  S   S43       1.0  0.12654  0.37176  0.29655  1.0000
  Fe  Fe21      1.0  0.37025  0.39138  0.28580  1.0000
  S   S44       1.0  0.35987  0.42763  0.28831  1.0000
  S   S45       1.0  0.39349  0.38995  0.26765  1.0000
  Fe  Fe22      1.0  0.34634  0.36682  0.31249  1.0000
  S   S46       1.0  0.33426  0.40168  0.31675  1.0000
  S   S47       1.0  0.33960  0.32850  0.32466  1.0000
  Fe  Fe23      1.0  0.31964  0.40001  0.29648  1.0000
  S   S48       1.0  0.28045  0.40200  0.28759  1.0000
  Fe  Fe24      1.0  0.37600  0.42653  0.30814  1.0000
  S   S49       1.0  0.40226  0.46379  0.31759  1.0000
  S   S50       1.0  0.32900  0.36363  0.29261  1.0000
  S   S51       1.0  0.38904  0.39176  0.30524  1.0000
  C   C66       1.0  0.20962  0.41346  0.30956  1.0000
  C   C67       1.0  0.23514  0.41801  0.31548  1.0000
  C   C68       1.0  0.25700  0.41393  0.30900  1.0000
  C   C69       1.0  0.25343  0.40569  0.29651  1.0000
  C   C70       1.0  0.22792  0.40114  0.29064  1.0000
  C   C71       1.0  0.20601  0.40475  0.29718  1.0000
  H   H98       1.0  0.23804  0.42480  0.32506  1.0000
  H   H99       1.0  0.27668  0.41760  0.31356  1.0000
  H   H100      1.0  0.22506  0.39480  0.28098  1.0000
  H   H101      1.0  0.18650  0.40129  0.29250  1.0000
  C   C72       1.0  0.09682  0.36955  0.20958  1.0000
  H   H102      1.0  0.02037  0.14025  0.38349  1.0000
  C   C73       1.0  0.04413  0.31221  0.35274  1.0000
  H   H103      1.0  0.19610  0.45078  0.29222  1.0000
  H   H104      1.0  0.27490  0.03214  0.37463  1.0000
  H   H105      1.0  0.14940  0.39263  0.20218  1.0000
  C   C74       1.0  0.02382  0.12163  0.38169  1.0000
  C   C75       1.0  0.03083  0.28480  0.35431  1.0000
  C   C76       1.0  0.02675  0.27010  0.34346  1.0000
  C   C77       1.0  0.03549  0.28267  0.33127  1.0000
  C   C78       1.0  0.04896  0.31003  0.32971  1.0000
  C   C79       1.0  0.05336  0.32473  0.34057  1.0000
  H   H106      1.0  0.02809  0.38645  0.32919  1.0000
  H   H107      1.0  0.16084  0.36579  0.20629  1.0000
  H   H108      1.0  0.06361  0.34575  0.33961  1.0000
  H   H109      1.0  0.02831  0.11351  0.39108  1.0000
  C   C80       1.0  0.08918  0.18341  0.37896  1.0000
  C   C81       1.0  0.11332  0.18572  0.37208  1.0000
  C   C82       1.0  0.13612  0.18262  0.37840  1.0000
  H   H110      1.0  0.07174  0.18593  0.37405  1.0000
  H   H111      1.0  0.11437  0.18999  0.36186  1.0000
  C   C83       1.0  0.29797  0.28608  0.36270  1.0000
  C   C84       1.0  0.30231  0.31297  0.36021  1.0000
  C   C85       1.0  0.31399  0.32611  0.34847  1.0000
  C   C86       1.0  0.32208  0.31263  0.33914  1.0000
  C   C87       1.0  0.31740  0.28567  0.34159  1.0000
  C   C88       1.0  0.30518  0.27241  0.35320  1.0000
  H   H112      1.0  0.29686  0.32382  0.36746  1.0000
  H   H113      1.0  0.31742  0.34681  0.34679  1.0000
  H   H114      1.0  0.32372  0.27502  0.33452  1.0000
  H   H115      1.0  0.30232  0.25184  0.35497  1.0000
  H   H116      1.0  0.12757  0.48017  0.30987  1.0000
  H   H117      1.0  0.31137  0.39315  0.26826  1.0000
  H   H118      1.0  0.98992  0.34435  0.33360  1.0000
  C   C89       1.0  0.27695  0.04015  0.36455  1.0000
  S   S52       1.0  0.01837  0.27033  0.36987  1.0000
  H   H119      1.0  0.11400  0.33939  0.22626  1.0000
  C   C90       1.0  0.35219  0.36288  0.22966  1.0000
  C   C91       1.0  0.35027  0.34466  0.23993  1.0000
  C   C92       1.0  0.36197  0.35297  0.25176  1.0000
  C   C93       1.0  0.37564  0.37964  0.25345  1.0000
  C   C94       1.0  0.37749  0.39792  0.24321  1.0000
  C   C95       1.0  0.36551  0.38961  0.23140  1.0000
  H   H120      1.0  0.34011  0.32393  0.23868  1.0000
  H   H121      1.0  0.36099  0.33866  0.25951  1.0000
  H   H122      1.0  0.38832  0.41856  0.24441  1.0000
  H   H123      1.0  0.36691  0.40389  0.22365  1.0000
  C   C96       1.0  0.29408  0.00655  0.35795  1.0000
  N   N8        1.0  0.99965  0.10306  0.37560  1.0000
  C   C97       1.0  0.10824  0.43129  0.22269  1.0000
  C   C98       1.0  0.13305  0.42654  0.22418  1.0000
  C   C99       1.0  0.13947  0.41665  0.23602  1.0000
  C   C100      1.0  0.12153  0.41189  0.24662  1.0000
  C   C101      1.0  0.09720  0.41765  0.24531  1.0000
  C   C102      1.0  0.09057  0.42720  0.23338  1.0000
  H   H124      1.0  0.14716  0.43009  0.21619  1.0000
  H   H125      1.0  0.15848  0.41256  0.23697  1.0000
  H   H126      1.0  0.08312  0.41402  0.25336  1.0000
  H   H127      1.0  0.07135  0.43091  0.23239  1.0000
  H   H128      1.0  0.31541  0.02073  0.35654  1.0000
  C   C103      1.0  0.21115  0.06632  0.38147  1.0000
  H   H129      1.0  0.29719  0.04577  0.34059  1.0000
  H   H130      1.0  0.44611  0.39701  0.35409  1.0000
  H   H131      1.0  0.47125  0.38170  0.22138  1.0000
  Fe  Fe25      1.0  0.24886  0.16827  0.39011  1.0000
  Fe  Fe26      1.0  0.02378  0.18634  0.39279  1.0000
  H   H132      1.0  0.03174  0.27104  0.32296  1.0000
  C   C104      1.0  0.22413  0.09329  0.38332  1.0000
  H   H133      1.0  0.26767  0.35561  0.23596  1.0000
  H   H134      1.0  0.04748  0.32387  0.36102  1.0000
  H   H135      1.0  0.01199  0.37393  0.29506  1.0000
  C   C105      1.0  0.11170  0.33337  0.21620  1.0000
  H   H136      1.0  0.27165  0.40396  0.26031  1.0000
  H   H137      1.0  0.30233  0.37830  0.23421  1.0000
  H   H138      1.0  0.19067  0.47227  0.27981  1.0000
  S   S53       1.0  0.01093  0.19059  0.37249  1.0000
  H   H139      1.0  0.42377  0.41850  0.22565  1.0000
  C   C106      1.0  0.46321  0.39805  0.22245  1.0000
  N   N9        1.0  0.11680  0.35630  0.20708  1.0000
  H   H140      1.0  0.00488  0.32768  0.32319  1.0000
  H   H141      1.0  0.21464  0.10726  0.37989  1.0000
  Fe  Fe27      1.0  0.20285  0.18801  0.38202  1.0000
  C   C107      1.0  0.28779  0.36314  0.24083  1.0000
  H   H142      1.0  0.99044  0.39699  0.30901  1.0000
  H   H143      1.0  0.29760  0.05568  0.36340  1.0000
  H   H144      1.0  0.45680  0.39735  0.23264  1.0000
  N   N10       1.0  0.41809  0.40972  0.34252  1.0000
  C   C108      1.0  0.38857  0.39993  0.33926  1.0000
  C   C109      1.0  0.42470  0.43509  0.34854  1.0000
  C   C110      1.0  0.43509  0.41346  0.33079  1.0000
  H   H145      1.0  0.17963  0.47215  0.30877  1.0000
  H   H146      1.0  0.38342  0.41424  0.33265  1.0000
  C   C111      1.0  0.42396  0.39040  0.35148  1.0000
  H   H147      1.0  0.38280  0.38093  0.33454  1.0000
  H   H148      1.0  0.44682  0.44314  0.35112  1.0000
  H   H149      1.0  0.42058  0.45010  0.34195  1.0000
  C   C112      1.0  0.27639  0.03072  0.34230  1.0000
  H   H150      1.0  0.45750  0.42119  0.33286  1.0000
  H   H151      1.0  0.43098  0.42777  0.32377  1.0000
  H   H152      1.0  0.43078  0.39472  0.32600  1.0000
  H   H153      1.0  0.14865  0.38112  0.21859  1.0000
  C   C113      1.0  0.00508  0.07871  0.37325  1.0000
  C   C114      1.0  0.13467  0.17716  0.39160  1.0000
  H   H154      1.0  0.29148  0.99019  0.35155  1.0000
  H   H155      1.0  0.44618  0.43725  0.21284  1.0000
  C   C115      1.0  0.02912  0.38018  0.31935  1.0000
  H   H156      1.0  0.12647  0.32294  0.21459  1.0000
  H   H157      1.0  0.45717  0.38072  0.19870  1.0000
  N   N11       1.0  0.00178  0.36366  0.31497  1.0000
  H   H158      1.0  0.09791  0.37552  0.21962  1.0000
  H   H159      1.0  0.29249  0.99786  0.36790  1.0000
  H   H160      1.0  0.42390  0.35369  0.21536  1.0000
  H   H161      1.0  0.41012  0.36928  0.22690  1.0000
  H   H162      1.0  0.19164  0.05975  0.37663  1.0000
  Fe  Fe28      1.0  0.00456  0.22762  0.37836  1.0000
  H   H163      1.0  0.29588  0.34664  0.24209  1.0000
  H   H164      1.0  0.98718  0.06434  0.36865  1.0000
  H   H165      1.0  0.04274  0.12689  0.37559  1.0000
  C   C116      1.0  0.22322  0.04785  0.38580  1.0000
  H   H166      1.0  0.00908  0.06909  0.38233  1.0000
  H   H167      1.0  0.26108  0.04969  0.36323  1.0000
  N   N12       1.0  0.21484  0.25074  0.34698  1.0000
  C   C117      1.0  0.18812  0.25474  0.34841  1.0000
  C   C118      1.0  0.21065  0.22627  0.34045  1.0000
  C   C119      1.0  0.22626  0.24856  0.35973  1.0000
  C   C120      1.0  0.23436  0.27321  0.33945  1.0000
  H   H168      1.0  0.17304  0.23798  0.35408  1.0000
  H   H169      1.0  0.17878  0.25648  0.33897  1.0000
  H   H170      1.0  0.19047  0.27286  0.35345  1.0000
  H   H171      1.0  0.23038  0.22252  0.33932  1.0000
  H   H172      1.0  0.19619  0.20893  0.34599  1.0000
  H   H173      1.0  0.20188  0.22704  0.33080  1.0000
  H   H174      1.0  0.21166  0.23241  0.36580  1.0000
  H   H175      1.0  0.23073  0.26694  0.36486  1.0000
  H   H176      1.0  0.24578  0.24435  0.35907  1.0000
  H   H177      1.0  0.23824  0.29193  0.34422  1.0000
  H   H178      1.0  0.22644  0.27559  0.32975  1.0000
  H   H179      1.0  0.25473  0.27071  0.33827  1.0000
  N   N13       1.0  0.28502  0.37386  0.25321  1.0000
  C   C121      1.0  0.31232  0.38392  0.25918  1.0000
  C   C122      1.0  0.26605  0.35290  0.26173  1.0000
  H   H180      1.0  0.10078  0.38765  0.20325  1.0000
  C   C123      1.0  0.27398  0.39550  0.25112  1.0000
  H   H181      1.0  0.41209  0.43317  0.35736  1.0000
  H   H182      1.0  0.32749  0.39908  0.25285  1.0000
  H   H183      1.0  0.32064  0.36791  0.26151  1.0000
  H   H184      1.0  0.27389  0.33636  0.26359  1.0000
  H   H185      1.0  0.26359  0.36031  0.27118  1.0000
  H   H186      1.0  0.24518  0.34488  0.25758  1.0000
  Fe  Fe29      1.0  0.34606  0.37817  0.19683  1.0000
  H   H187      1.0  0.44536  0.45925  0.30062  1.0000
  H   H188      1.0  0.41154  0.38719  0.36046  1.0000
  H   H189      1.0  0.28794  0.41172  0.24481  1.0000
  H   H190      1.0  0.22407  0.46906  0.28171  1.0000
  H   H191      1.0  0.25336  0.38866  0.24665  1.0000
  H   H192      1.0  0.07526  0.35663  0.20799  1.0000
  C   C124      1.0  0.99118  0.33964  0.32349  1.0000
  N   N14       1.0  0.43998  0.39594  0.21380  1.0000
  S   S54       1.0  0.26807  0.13615  0.39085  1.0000
  C   C125      1.0  0.14514  0.37473  0.20866  1.0000
  H   H193      1.0  0.01888  0.34534  0.30121  1.0000
  C   C126      1.0  0.41737  0.37085  0.21681  1.0000
  H   H194      1.0  0.27366  0.01539  0.33529  1.0000
  H   H195      1.0  0.41889  0.37100  0.34721  1.0000
  C   C127      1.0  0.45271  0.47843  0.30450  1.0000
  H   H196      1.0  0.37508  0.39667  0.34788  1.0000
  H   H197      1.0  0.48056  0.41683  0.22045  1.0000
  H   H198      1.0  0.41195  0.41655  0.20948  1.0000
  S   S55       1.0  0.35966  0.42156  0.19833  1.0000
  C   C128      1.0  0.20583  0.47008  0.28696  1.0000
  H   H199      1.0  0.01640  0.24907  0.34442  1.0000
  H   H200      1.0  0.04388  0.36935  0.31949  1.0000
  H   H201      1.0  0.22600  0.46952  0.31073  1.0000
  H   H202      1.0  0.98410  0.34347  0.29822  1.0000
  H   H203      1.0  0.26088  0.04039  0.34019  1.0000
  H   H204      1.0  0.22900  0.00827  0.35563  1.0000
  C   C129      1.0  0.08766  0.17754  0.39215  1.0000
  H   H205      1.0  0.02342  0.08272  0.36688  1.0000
  H   H206      1.0  0.09047  0.31906  0.21530  1.0000
  C   C130      1.0  0.43558  0.48577  0.31265  1.0000
  C   C131      1.0  0.24972  0.10219  0.38927  1.0000
  H   H207      1.0  0.46591  0.41586  0.19771  1.0000
  C   C132      1.0  0.99445  0.11518  0.36333  1.0000
  H   H208      1.0  0.24222  0.99095  0.36734  1.0000
  H   H209      1.0  0.01200  0.11931  0.35647  1.0000
  H   H210      1.0  0.99637  0.31069  0.39074  1.0000
  C   C133      1.0  0.24846  0.05666  0.39205  1.0000
  C   C134      1.0  0.98266  0.37857  0.31523  1.0000
  C   C135      1.0  0.11361  0.34755  0.19388  1.0000
  H   H211      1.0  0.43218  0.39527  0.19366  1.0000
  H   H212      1.0  0.29124  0.99599  0.46168  1.0000
  S   S56       1.0  0.24627  0.02531  0.50962  1.0000
  Fe  Fe30      1.0  0.23375  0.17908  0.50075  1.0000
  S   S57       1.0  0.18827  0.16144  0.49825  1.0000
  S   S58       1.0  0.26086  0.18506  0.48301  1.0000
  Fe  Fe31      1.0  0.22784  0.17372  0.53051  1.0000
  S   S59       1.0  0.18180  0.15548  0.52972  1.0000
  S   S60       1.0  0.25047  0.17209  0.54910  1.0000
  Fe  Fe32      1.0  0.18941  0.13247  0.51395  1.0000
  S   S61       1.0  0.16580  0.08951  0.51230  1.0000
  Fe  Fe33      1.0  0.18559  0.18643  0.51406  1.0000
  S   S62       1.0  0.15578  0.20788  0.51141  1.0000
  S   S63       1.0  0.23517  0.14837  0.51569  1.0000
  S   S64       1.0  0.23141  0.20666  0.51569  1.0000
  Fe  Fe34      1.0  0.00607  0.15605  0.50789  1.0000
  S   S65       1.0  0.03402  0.13284  0.50518  1.0000
  S   S66       1.0  0.02352  0.19965  0.50871  1.0000
  Fe  Fe35      1.0  0.22738  0.19779  0.40870  1.0000
  C   C136      1.0  0.11041  0.17435  0.39843  1.0000
  S   S67       1.0  0.21369  0.20390  0.42856  1.0000
  H   H213      1.0  0.25649  0.09237  0.56353  1.0000
  H   H214      1.0  0.20703  0.10379  0.45106  1.0000
  H   H215      1.0  0.01710  0.28925  0.41481  1.0000
  H   H216      1.0  0.01066  0.23265  0.43074  1.0000
  N   N15       1.0  0.18983  0.11109  0.46849  1.0000
  H   H217      1.0  0.27198  0.24777  0.44021  1.0000
  H   H218      1.0  0.04325  0.20334  0.46253  1.0000
  H   H219      1.0  0.19528  0.07603  0.46240  1.0000
  H   H220      1.0  0.27888  0.00203  0.49602  1.0000
  H   H221      1.0  0.04883  0.14038  0.47529  1.0000
  H   H222      1.0  0.17264  0.07979  0.48285  1.0000
  H   H223      1.0  0.24461  0.11978  0.56180  1.0000
  H   H224      1.0  0.28793  0.04870  0.48981  1.0000
  C   C137      1.0  0.00274  0.15890  0.45747  1.0000
  C   C138      1.0  0.24769  0.19030  0.46789  1.0000
  C   C139      1.0  0.22501  0.19868  0.46678  1.0000
  C   C140      1.0  0.21486  0.20262  0.45466  1.0000
  C   C141      1.0  0.22701  0.19789  0.44352  1.0000
  C   C142      1.0  0.24956  0.18926  0.44460  1.0000
  C   C143      1.0  0.26003  0.18577  0.45674  1.0000
  H   H225      1.0  0.21548  0.20249  0.47527  1.0000
  H   H226      1.0  0.19748  0.20940  0.45391  1.0000
  H   H227      1.0  0.25907  0.18549  0.43610  1.0000
  H   H228      1.0  0.27764  0.17934  0.45752  1.0000
  C   C144      1.0  0.12352  0.18600  0.50736  1.0000
  C   C145      1.0  0.11619  0.15913  0.51063  1.0000
  C   C146      1.0  0.08883  0.14247  0.50936  1.0000
  C   C147      1.0  0.06894  0.15263  0.50468  1.0000
  C   C148      1.0  0.07686  0.17904  0.50047  1.0000
  C   C149      1.0  0.10401  0.19580  0.50195  1.0000
  H   H229      1.0  0.13121  0.15138  0.51474  1.0000
  H   H230      1.0  0.08290  0.12194  0.51248  1.0000
  H   H231      1.0  0.06207  0.18669  0.49616  1.0000
  H   H232      1.0  0.10978  0.21648  0.49918  1.0000
  C   C150      1.0  0.18726  0.07102  0.51028  1.0000
  C   C151      1.0  0.21454  0.08331  0.50613  1.0000
  C   C152      1.0  0.23246  0.06904  0.50578  1.0000
  C   C153      1.0  0.22292  0.04221  0.50926  1.0000
  C   C154      1.0  0.19523  0.02951  0.51275  1.0000
  C   C155      1.0  0.17741  0.04397  0.51332  1.0000
  H   H233      1.0  0.22190  0.10381  0.50315  1.0000
  H   H234      1.0  0.25378  0.07885  0.50289  1.0000
  H   H235      1.0  0.18764  0.00871  0.51529  1.0000
  H   H236      1.0  0.15617  0.03428  0.51638  1.0000
  H   H237      1.0  0.29019  0.29645  0.40561  1.0000
  C   C156      1.0  0.21577  0.19914  0.57772  1.0000
  C   C157      1.0  0.22181  0.19241  0.56556  1.0000
  C   C158      1.0  0.24089  0.17961  0.56426  1.0000
  C   C159      1.0  0.25328  0.17302  0.57529  1.0000
  C   C160      1.0  0.24683  0.17929  0.58748  1.0000
  H   H238      1.0  0.20167  0.20980  0.57855  1.0000
  H   H239      1.0  0.21233  0.19781  0.55715  1.0000
  H   H240      1.0  0.26827  0.16336  0.57440  1.0000
  H   H241      1.0  0.06326  0.18861  0.47228  1.0000
  H   H242      1.0  0.04036  0.14366  0.44584  1.0000
  H   H243      1.0  0.25323  0.02688  0.46650  1.0000
  H   H244      1.0  0.31537  0.28331  0.41210  1.0000
  H   H245      1.0  0.24578  0.28801  0.41745  1.0000
  H   H246      1.0  0.31098  0.00348  0.48898  1.0000
  N   N16       1.0  0.07839  0.19928  0.54132  1.0000
  C   C161      1.0  0.07450  0.20745  0.55417  1.0000
  C   C162      1.0  0.05453  0.17605  0.53831  1.0000
  C   C163      1.0  0.10382  0.19263  0.54100  1.0000
  C   C164      1.0  0.08074  0.22101  0.53176  1.0000
  H   H247      1.0  0.07185  0.19131  0.56159  1.0000
  H   H248      1.0  0.05582  0.21318  0.55464  1.0000
  H   H249      1.0  0.09234  0.22469  0.55681  1.0000
  H   H250      1.0  0.05656  0.16963  0.52857  1.0000
  H   H251      1.0  0.05231  0.15909  0.54518  1.0000
  H   H252      1.0  0.03496  0.18027  0.53864  1.0000
  H   H253      1.0  0.12248  0.20995  0.54266  1.0000
  H   H254      1.0  0.10685  0.18565  0.53157  1.0000
  H   H255      1.0  0.10314  0.17675  0.54828  1.0000
  H   H256      1.0  0.08348  0.21546  0.52195  1.0000
  H   H257      1.0  0.09869  0.23880  0.53363  1.0000
  H   H258      1.0  0.06194  0.22664  0.53179  1.0000
  C   C165      1.0  0.30003  0.01620  0.46500  1.0000
  H   H259      1.0  0.18878  0.08963  0.54997  1.0000
  H   H260      1.0  0.23766  0.26549  0.43136  1.0000
  C   C166      1.0  0.29289  0.27953  0.41123  1.0000
  C   C167      1.0  0.28231  0.25181  0.43064  1.0000
  H   H261      1.0  0.19926  0.14492  0.45537  1.0000
  Fe  Fe36      1.0  0.98949  0.19948  0.49527  1.0000
  H   H262      1.0  0.30440  0.25431  0.43204  1.0000
  C   C168      1.0  0.04210  0.18586  0.46884  1.0000
  S   S68       1.0  0.02074  0.22449  0.39823  1.0000
  C   C169      1.0  0.24927  0.27054  0.42210  1.0000
  N   N17       1.0  0.27892  0.27505  0.42385  1.0000
  C   C170      1.0  0.18351  0.13379  0.46273  1.0000
  H   H263      1.0  0.05073  0.17875  0.44433  1.0000
  H   H264      1.0  0.24933  0.10182  0.52849  1.0000
  H   H265      1.0  0.18311  0.14774  0.47005  1.0000
  C   C171      1.0  0.29116  0.29825  0.43144  1.0000
  H   H266      1.0  0.00361  0.17507  0.45031  1.0000
  S   S69       1.0  0.05739  0.17292  0.40108  1.0000
  H   H267      1.0  0.15212  0.17476  0.39656  1.0000
  C   C172      1.0  0.00336  0.21613  0.56920  1.0000
  C   C173      1.0  0.29825  0.04601  0.48095  1.0000
  Fe  Fe37      1.0  0.99378  0.19459  0.52494  1.0000
  N   N18       1.0  0.03048  0.16130  0.46215  1.0000
  H   H268      1.0  0.17080  0.08629  0.45334  1.0000
  H   H269      1.0  0.16314  0.12759  0.45802  1.0000
  C   C174      1.0  0.99748  0.22407  0.43896  1.0000
  H   H270      1.0  0.21676  0.13343  0.48260  1.0000
  C   C175      1.0  0.00772  0.22950  0.45135  1.0000
  H   H271      1.0  0.25792  0.04273  0.39555  1.0000
  H   H272      1.0  0.16666  0.10955  0.48569  1.0000
  C   C176      1.0  0.00268  0.27566  0.40833  1.0000
  C   C177      1.0  0.19078  0.09350  0.45838  1.0000
  H   H273      1.0  0.31348  0.30206  0.43305  1.0000
  H   H274      1.0  0.26079  0.12771  0.53933  1.0000
  C   C178      1.0  0.02847  0.13872  0.47111  1.0000
  H   H275      1.0  0.98883  0.15975  0.46539  1.0000
  C   C179      1.0  0.22828  0.19268  0.58873  1.0000
  C   C180      1.0  0.25633  0.01336  0.47423  1.0000
  C   C181      1.0  0.99623  0.20135  0.55832  1.0000
  H   H276      1.0  0.27276  0.10037  0.54095  1.0000
  H   H277      1.0  0.28915  0.31620  0.42656  1.0000
  H   H278      1.0  0.06971  0.16339  0.45440  1.0000
  C   C182      1.0  0.98552  0.30927  0.40008  1.0000
  H   H279      1.0  0.23970  0.25387  0.41594  1.0000
  C   C183      1.0  0.21685  0.12043  0.47478  1.0000
  H   H280      1.0  0.22127  0.08818  0.56738  1.0000
  H   H281      1.0  0.02873  0.24236  0.45255  1.0000
  H   H282      1.0  0.27302  0.23390  0.42522  1.0000
  C   C184      1.0  0.16823  0.09669  0.47805  1.0000
  H   H283      1.0  0.29634  0.06067  0.47351  1.0000
  H   H284      1.0  0.29790  0.02975  0.45703  1.0000
  H   H285      1.0  0.14758  0.08896  0.47365  1.0000
  H   H286      1.0  0.23359  0.13201  0.46794  1.0000
  N   N19       1.0  0.28590  0.01896  0.47678  1.0000
  H   H287      1.0  0.22255  0.10384  0.47903  1.0000
  N   N20       1.0  0.23088  0.09197  0.54726  1.0000
  C   C185      1.0  0.22319  0.06341  0.54596  1.0000
  C   C186      1.0  0.20718  0.10022  0.54384  1.0000
  C   C187      1.0  0.25448  0.10606  0.53863  1.0000
  C   C188      1.0  0.23864  0.09828  0.56059  1.0000
  H   H288      1.0  0.24064  0.05646  0.54834  1.0000
  H   H289      1.0  0.21709  0.05813  0.53600  1.0000
  H   H290      1.0  0.20546  0.05209  0.55234  1.0000
  H   H291      1.0  0.21206  0.12159  0.54490  1.0000
  H   H292      1.0  0.20116  0.09636  0.53377  1.0000
  C   C189      1.0  0.04863  0.16177  0.45121  1.0000
  S   S70       1.0  0.27002  0.20420  0.40126  1.0000
  H   H293      1.0  0.02920  0.18594  0.47731  1.0000
  C   C190      1.0  0.99093  0.21854  0.46218  1.0000
  H   H294      1.0  0.99285  0.14010  0.45282  1.0000
  H   H295      1.0  0.28436  0.26213  0.40539  1.0000
  S   S71       1.0  0.00439  0.22667  0.47755  1.0000
  H   H296      1.0  0.01424  0.13739  0.47927  1.0000
  H   H297      1.0  0.10934  0.16979  0.40862  1.0000
  S   S72       1.0  0.00689  0.21680  0.54297  1.0000
  H   H298      1.0  0.01588  0.23670  0.56814  1.0000
  S   S73       1.0  0.20665  0.16105  0.39841  1.0000
  H   H299      1.0  0.24504  0.01545  0.48289  1.0000
  H   H300      1.0  0.01405  0.27644  0.39921  1.0000
  H   H301      1.0  0.28084  0.29544  0.44099  1.0000
  H   H302      1.0  0.28155  0.09036  0.39821  1.0000
  H   H303      1.0  0.16168  0.17643  0.59294  1.0000
  H   H304      1.0  0.24629  0.99299  0.47123  1.0000
  H   H305      1.0  0.32241  0.02025  0.46652  1.0000
  C   C191      1.0  0.28895  0.00023  0.48694  1.0000
  H   H306      1.0  0.25901  0.99076  0.57280  1.0000
  H   H307      1.0  0.13035  0.18168  0.58833  1.0000
  H   H308      1.0  0.32052  0.05082  0.48305  1.0000
  C   C192      1.0  0.99372  0.20465  0.58145  1.0000
  H   H309      1.0  0.02057  0.11982  0.46637  1.0000
  H   H310      1.0  0.99874  0.21635  0.58973  1.0000
  H   H311      1.0  0.99735  0.25549  0.41283  1.0000
  H   H312      1.0  0.99966  0.32391  0.40625  1.0000
  C   C193      1.0  0.26178  0.08370  0.39360  1.0000
  Fe  Fe38      1.0  0.02145  0.18873  0.63726  1.0000
  C   C194      1.0  0.45866  0.27257  0.78849  1.0000
  S   S74       1.0  0.06843  0.20746  0.63736  1.0000
  H   H313      1.0  0.39198  0.22531  0.69794  1.0000
  N   N21       1.0  0.22693  0.24180  0.67723  1.0000
  H   H314      1.0  0.40627  0.01365  0.78383  1.0000
  H   H315      1.0  0.38115  0.07676  0.78710  1.0000
  Fe  Fe39      1.0  0.20165  0.17141  0.64884  1.0000
  S   S75       1.0  0.22621  0.21110  0.64018  1.0000
  S   S76       1.0  0.16008  0.16243  0.65873  1.0000
  Fe  Fe40      1.0  0.24446  0.14808  0.64076  1.0000
  S   S77       1.0  0.27171  0.18629  0.63126  1.0000
  S   S78       1.0  0.25962  0.11394  0.63988  1.0000
  Fe  Fe41      1.0  0.26323  0.20400  0.64907  1.0000
  S   S79       1.0  0.29777  0.23660  0.65845  1.0000
  Fe  Fe42      1.0  0.23228  0.18932  0.62336  1.0000
  C   C195      1.0  0.27128  0.02741  0.66339  1.0000
  S   S80       1.0  0.23806  0.16546  0.65890  1.0000
  S   S81       1.0  0.20571  0.14984  0.63173  1.0000
  S   S82       1.0  0.99228  0.17947  0.65425  1.0000
  Fe  Fe43      1.0  0.38617  0.04326  0.70977  1.0000
  S   S83       1.0  0.42394  0.05773  0.69708  1.0000
  S   S84       1.0  0.34206  0.02058  0.70337  1.0000
  Fe  Fe44      1.0  0.41809  0.07328  0.73264  1.0000
  S   S85       1.0  0.45752  0.09041  0.72115  1.0000
  S   S86       1.0  0.42074  0.08879  0.75255  1.0000
  Fe  Fe45      1.0  0.43096  0.09696  0.70532  1.0000
  S   S87       1.0  0.44115  0.13270  0.69160  1.0000
  Fe  Fe46      1.0  0.44723  0.04991  0.71420  1.0000
  S   S88       1.0  0.39222  0.08313  0.71716  1.0000
  S   S89       1.0  0.40880  0.03221  0.72651  1.0000
  Fe  Fe47      1.0  0.43969  0.27379  0.74255  1.0000
  H   H316      1.0  0.27059  0.25606  0.68044  1.0000
  S   S90       1.0  0.45120  0.26543  0.76292  1.0000
  Fe  Fe48      1.0  0.40197  0.27032  0.71912  1.0000
  S   S91       1.0  0.43769  0.29358  0.70629  1.0000
  S   S92       1.0  0.35777  0.24858  0.71260  1.0000
  Fe  Fe49      1.0  0.45909  0.26787  0.71572  1.0000
  H   H317      1.0  0.25581  0.06945  0.66491  1.0000
  Fe  Fe50      1.0  0.45380  0.31963  0.72271  1.0000
  H   H318      1.0  0.25244  0.27574  0.68664  1.0000
  S   S93       1.0  0.42316  0.24353  0.72791  1.0000
  S   S94       1.0  0.41572  0.29883  0.73493  1.0000
  C   C196      1.0  0.45627  0.16516  0.69629  1.0000
  C   C197      1.0  0.35623  0.18825  0.68418  1.0000
  H   H319      1.0  0.35988  0.15265  0.70242  1.0000
  H   H320      1.0  0.20147  0.26202  0.68459  1.0000
  C   C198      1.0  0.45880  0.20023  0.71033  1.0000
  C   C199      1.0  0.44995  0.17324  0.70800  1.0000
  H   H321      1.0  0.18285  0.23136  0.67778  1.0000
  H   H322      1.0  0.17056  0.16861  0.61546  1.0000
  C   C200      1.0  0.47580  0.05036  0.74672  1.0000
  H   H323      1.0  0.43745  0.15882  0.71506  1.0000
  H   H324      1.0  0.35891  0.20857  0.68042  1.0000
  H   H325      1.0  0.45346  0.20648  0.71925  1.0000
  H   H326      1.0  0.09550  0.18065  0.60525  1.0000
  H   H327      1.0  0.47360  0.05908  0.77152  1.0000
  H   H328      1.0  0.20769  0.20375  0.66981  1.0000
  C   C201      1.0  0.14817  0.16325  0.61755  1.0000
  C   C202      1.0  0.23472  0.08233  0.64092  1.0000
  C   C203      1.0  0.23890  0.06288  0.63386  1.0000
  C   C204      1.0  0.22216  0.03658  0.63600  1.0000
  C   C205      1.0  0.20164  0.02942  0.64550  1.0000
  C   C206      1.0  0.19652  0.04900  0.65218  1.0000
  C   C207      1.0  0.21293  0.07552  0.64982  1.0000
  H   H329      1.0  0.25545  0.06813  0.62682  1.0000
  H   H330      1.0  0.22534  0.02186  0.63035  1.0000
  H   H331      1.0  0.18046  0.04361  0.65945  1.0000
  H   H332      1.0  0.20962  0.09048  0.65532  1.0000
  C   C208      1.0  0.31524  0.23789  0.67328  1.0000
  C   C209      1.0  0.34076  0.25800  0.67474  1.0000
  C   C210      1.0  0.35448  0.26110  0.68655  1.0000
  C   C211      1.0  0.34244  0.24456  0.69721  1.0000
  C   C212      1.0  0.31696  0.22436  0.69575  1.0000
  C   C213      1.0  0.30364  0.22076  0.68384  1.0000
  H   H333      1.0  0.34988  0.27152  0.66669  1.0000
  H   H334      1.0  0.37392  0.27685  0.68750  1.0000
  H   H335      1.0  0.30740  0.21144  0.70392  1.0000
  H   H336      1.0  0.28406  0.20519  0.68294  1.0000
  H   H337      1.0  0.47901  0.05654  0.73643  1.0000
  C   C214      1.0  0.42720  0.05059  0.79211  1.0000
  C   C215      1.0  0.23013  0.25571  0.66451  1.0000
  C   C216      1.0  0.40466  0.19576  0.68117  1.0000
  C   C217      1.0  0.09317  0.19471  0.64399  1.0000
  C   C218      1.0  0.08589  0.16964  0.65005  1.0000
  C   C219      1.0  0.10656  0.16005  0.65462  1.0000
  C   C220      1.0  0.13464  0.17513  0.65290  1.0000
  C   C221      1.0  0.14189  0.20019  0.64685  1.0000
  C   C222      1.0  0.12124  0.20999  0.64256  1.0000
  H   H338      1.0  0.06437  0.15767  0.65122  1.0000
  H   H339      1.0  0.10075  0.14072  0.65939  1.0000
  H   H340      1.0  0.16338  0.21212  0.64559  1.0000
  H   H341      1.0  0.12701  0.22949  0.63797  1.0000
  N   N22       1.0  0.13549  0.17756  0.60858  1.0000
  C   C223      1.0  0.43672  0.08896  0.77741  1.0000
  C   C224      1.0  0.42405  0.07318  0.76741  1.0000
  C   C225      1.0  0.41359  0.04592  0.76971  1.0000
  C   C226      1.0  0.41506  0.03470  0.78204  1.0000
  H   H342      1.0  0.44507  0.11006  0.77569  1.0000
  H   H343      1.0  0.40363  0.03353  0.76211  1.0000
  S   S95       1.0  0.99941  0.21266  0.62634  1.0000
  H   H344      1.0  0.09490  0.14849  0.61079  1.0000
  C   C227      1.0  0.44237  0.27417  0.77792  1.0000
  C   C228      1.0  0.42006  0.28277  0.77961  1.0000
  H   H345      1.0  0.10228  0.17428  0.62160  1.0000
  S   S96       1.0  0.18382  0.99606  0.64970  1.0000
  H   H346      1.0  0.40696  0.28356  0.77164  1.0000
  C   C229      1.0  0.43863  0.07773  0.78962  1.0000
  H   H347      1.0  0.44764  0.34707  0.74764  1.0000
  H   H348      1.0  0.31510  0.05829  0.64951  1.0000
  H   H349      1.0  0.32338  0.04216  0.67140  1.0000
  C   C230      1.0  0.14889  0.20612  0.60974  1.0000
  C   C231      1.0  0.27229  0.06836  0.67156  1.0000
  H   H350      1.0  0.26124  0.01611  0.67229  1.0000
  H   H351      1.0  0.24911  0.25572  0.65946  1.0000
  H   H352      1.0  0.31586  0.08886  0.65560  1.0000
  H   H353      1.0  0.47068  0.32818  0.77936  1.0000
  H   H354      1.0  0.33835  0.18208  0.69097  1.0000
  H   H355      1.0  0.30155  0.04313  0.68445  1.0000
  C   C232      1.0  0.13934  0.17101  0.59540  1.0000
  H   H356      1.0  0.21228  0.24627  0.65833  1.0000
  H   H357      1.0  0.40653  0.20369  0.70638  1.0000
  C   C233      1.0  0.34655  0.99880  0.68024  1.0000
  C   C234      1.0  0.31067  0.05317  0.67515  1.0000
  H   H358      1.0  0.19837  0.23150  0.69313  1.0000
  H   H359      1.0  0.36084  0.09723  0.78380  1.0000
  H   H360      1.0  0.26203  0.05830  0.68066  1.0000
  C   C235      1.0  0.30234  0.06841  0.65400  1.0000
  H   H361      1.0  0.13949  0.21756  0.60331  1.0000
  H   H362      1.0  0.24452  0.21388  0.67116  1.0000
  N   N23       1.0  0.28915  0.05434  0.66603  1.0000
  H   H363      1.0  0.14602  0.16779  0.62760  1.0000
  H   H364      1.0  0.43454  0.35033  0.76305  1.0000
  S   S97       1.0  0.22052  0.20236  0.60375  1.0000
  H   H365      1.0  0.28321  0.01630  0.65904  1.0000
  H   H366      1.0  0.35068  0.17534  0.67599  1.0000
  H   H367      1.0  0.40840  0.21615  0.67725  1.0000
  H   H368      1.0  0.13860  0.14163  0.61699  1.0000
  C   C236      1.0  0.38793  0.20449  0.70125  1.0000
  H   H369      1.0  0.32492  0.07308  0.67720  1.0000
  H   H370      1.0  0.39677  0.29607  0.79304  1.0000
  H   H371      1.0  0.17128  0.21267  0.60732  1.0000
  C   C237      1.0  0.25092  0.25519  0.68511  1.0000
  H   H372      1.0  0.45545  0.05133  0.74957  1.0000
  C   C238      1.0  0.30051  0.99078  0.68832  1.0000
  H   H373      1.0  0.28671  0.06983  0.64694  1.0000
  C   C239      1.0  0.44894  0.34267  0.75807  1.0000
  C   C240      1.0  0.37710  0.15982  0.69529  1.0000
  C   C241      1.0  0.10575  0.16988  0.61164  1.0000
  H   H374      1.0  0.28497  0.08887  0.67352  1.0000
  H   H375      1.0  0.23177  0.27653  0.66522  1.0000
  H   H376      1.0  0.40088  0.18272  0.67303  1.0000
  H   H377      1.0  0.22295  0.20325  0.68517  1.0000
  H   H378      1.0  0.37064  0.19902  0.70836  1.0000
  S   S98       1.0  0.99865  0.15131  0.62783  1.0000
  N   N24       1.0  0.38146  0.18706  0.69047  1.0000
  C   C242      1.0  0.22543  0.21447  0.67579  1.0000
  H   H379      1.0  0.25457  0.02755  0.65668  1.0000
  H   H380      1.0  0.42403  0.19551  0.68570  1.0000
  H   H381      1.0  0.24976  0.24479  0.69465  1.0000
  H   H382      1.0  0.39582  0.15822  0.70003  1.0000
  H   H383      1.0  0.37243  0.14610  0.68742  1.0000
  C   C243      1.0  0.20130  0.24172  0.68347  1.0000
  H   H384      1.0  0.14711  0.21170  0.61963  1.0000
  H   H385      1.0  0.36867  0.00725  0.68120  1.0000
  H   H386      1.0  0.46418  0.35793  0.78161  1.0000
  C   C244      1.0  0.32924  0.00202  0.68976  1.0000
  H   H387      1.0  0.28690  0.99292  0.69565  1.0000
  C   C245      1.0  0.41424  0.28974  0.79176  1.0000
  H   H388      1.0  0.47442  0.02944  0.74765  1.0000
  H   H389      1.0  0.44117  0.32096  0.75975  1.0000
  H   H390      1.0  0.25675  0.17435  0.59585  1.0000
  H   H391      1.0  0.31008  0.99270  0.61172  1.0000
  C   C246      1.0  0.47249  0.18396  0.68725  1.0000
  C   C247      1.0  0.47454  0.21898  0.70107  1.0000
  S   S99       1.0  0.47370  0.36440  0.72179  1.0000
  H   H392      1.0  0.47743  0.17788  0.67819  1.0000
  H   H393      1.0  0.47468  0.39266  0.76371  1.0000
  H   H394      1.0  0.47587  0.26582  0.78730  1.0000
  S   S100      1.0  0.47789  0.29569  0.73089  1.0000
  H   H395      1.0  0.32201  0.98787  0.62760  1.0000
  C   C248      1.0  0.47792  0.34955  0.77659  1.0000
  S   S101      1.0  0.47835  0.02853  0.71489  1.0000
  C   C249      1.0  0.36468  0.08318  0.79105  1.0000
  H   H396      1.0  0.34568  0.06553  0.79202  1.0000
  N   N25       1.0  0.47745  0.35427  0.76258  1.0000
  H   H397      1.0  0.47937  0.09658  0.75575  1.0000
  C   C250      1.0  0.48193  0.21064  0.68970  1.0000
  H   H398      1.0  0.12953  0.14961  0.59416  1.0000
  H   H399      1.0  0.47990  0.29864  0.68727  1.0000
  N   N26       1.0  0.37264  0.09518  0.80344  1.0000
  S   S102      1.0  0.43955  0.32799  0.95788  1.0000
  Fe  Fe51      1.0  0.45589  0.26895  0.97363  1.0000
  S   S103      1.0  0.41234  0.26715  0.96995  1.0000
  N   N27       1.0  0.43495  0.21806  0.90262  1.0000
  Fe  Fe52      1.0  0.42891  0.28763  0.95092  1.0000
  S   S104      1.0  0.40518  0.27444  0.93284  1.0000
  Fe  Fe53      1.0  0.42563  0.30797  0.97732  1.0000
  H   H400      1.0  0.40428  0.12823  0.81081  1.0000
  H   H401      1.0  0.41515  0.11388  0.79781  1.0000
  H   H402      1.0  0.39538  0.19053  0.90864  1.0000
  S   S105      1.0  0.43401  0.02301  0.95971  1.0000
  Fe  Fe54      1.0  0.42298  0.08289  0.97463  1.0000
  S   S106      1.0  0.39179  0.05483  0.96252  1.0000
  S   S107      1.0  0.40748  0.11409  0.98200  1.0000
  Fe  Fe55      1.0  0.40116  0.02256  0.97397  1.0000
  C   C251      1.0  0.32681  0.30916  0.94561  1.0000
  Fe  Fe56      1.0  0.42753  0.05807  0.94956  1.0000
  S   S108      1.0  0.42841  0.07320  0.92871  1.0000
  S   S109      1.0  0.42997  0.05038  0.98692  1.0000
  S   S110      1.0  0.45849  0.08762  0.96130  1.0000
  Fe  Fe57      1.0  0.45791  0.31499  0.86279  1.0000
  H   H403      1.0  0.33088  0.08542  0.81020  1.0000
  Fe  Fe58      1.0  0.46786  0.26599  0.85562  1.0000
  Fe  Fe59      1.0  0.44784  0.29657  0.83527  1.0000
  C   C252      1.0  0.45291  0.27961  0.80060  1.0000
  S   S111      1.0  0.42240  0.29684  0.81748  1.0000
  H   H404      1.0  0.35443  0.33265  0.96615  1.0000
  H   H405      1.0  0.42132  0.21701  0.88317  1.0000
  H   H406      1.0  0.33939  0.03004  0.97758  1.0000
  C   C253      1.0  0.36581  0.33718  0.95682  1.0000
  S   S112      1.0  0.43030  0.27779  0.85467  1.0000
  H   H407      1.0  0.42428  0.18200  0.91424  1.0000
  Fe  Fe60      1.0  0.44649  0.06235  0.85464  1.0000
  H   H408      1.0  0.38803  0.34208  0.95909  1.0000
  S   S113      1.0  0.44384  0.03717  0.87308  1.0000
  Fe  Fe61      1.0  0.43895  0.06045  0.82523  1.0000
  S   S114      1.0  0.45334  0.10409  0.82276  1.0000
  S   S115      1.0  0.42711  0.03610  0.80770  1.0000
  N   N28       1.0  0.35623  0.31480  0.94850  1.0000
  Fe  Fe62      1.0  0.42750  0.10226  0.84003  1.0000
  S   S116      1.0  0.40121  0.12765  0.83805  1.0000
  H   H409      1.0  0.35318  0.27419  0.94909  1.0000
  S   S117      1.0  0.41028  0.05831  0.84176  1.0000
  S   S118      1.0  0.46204  0.10648  0.85382  1.0000
  H   H410      1.0  0.42885  0.13445  0.86206  1.0000
  H   H411      1.0  0.37066  0.33888  0.93119  1.0000
  S   S119      1.0  0.47400  0.23739  0.97953  1.0000
  C   C254      1.0  0.43721  0.23440  0.91367  1.0000
  S   S120      1.0  0.39624  0.32571  0.98630  1.0000
  H   H412      1.0  0.39404  0.13370  0.79483  1.0000
  H   H413      1.0  0.31897  0.29225  0.93941  1.0000
  C   C255      1.0  0.44645  0.20076  0.85889  1.0000
  C   C256      1.0  0.43161  0.20278  0.84794  1.0000
  C   C257      1.0  0.41628  0.18004  0.84188  1.0000
  C   C258      1.0  0.41604  0.15545  0.84675  1.0000
  C   C259      1.0  0.42987  0.15348  0.85802  1.0000
  H   H414      1.0  0.43172  0.00885  0.89761  1.0000
  H   H415      1.0  0.43253  0.22185  0.84393  1.0000
  H   H416      1.0  0.40551  0.18161  0.83317  1.0000
  C   C260      1.0  0.37263  0.32130  0.93647  1.0000
  H   H417      1.0  0.31391  0.30419  0.95451  1.0000
  C   C261      1.0  0.43193  0.06220  0.91337  1.0000
  C   C262      1.0  0.42975  0.03631  0.91142  1.0000
  C   C263      1.0  0.43347  0.02892  0.89905  1.0000
  C   C264      1.0  0.43883  0.04716  0.88847  1.0000
  C   C265      1.0  0.44056  0.07292  0.89042  1.0000
  C   C266      1.0  0.43720  0.08037  0.90279  1.0000
  H   H418      1.0  0.42469  0.02191  0.91938  1.0000
  C   C267      1.0  0.44508  0.17610  0.86409  1.0000
  S   S121      1.0  0.47350  0.05982  0.83822  1.0000
  H   H419      1.0  0.00041  0.48403  0.93642  1.0000
  C   C268      1.0  0.45500  0.20327  0.97908  1.0000
  C   C269      1.0  0.42620  0.19348  0.98002  1.0000
  C   C270      1.0  0.41194  0.16616  0.98071  1.0000
  C   C271      1.0  0.42618  0.14834  0.98010  1.0000
  C   C272      1.0  0.45491  0.15816  0.97874  1.0000
  H   H420      1.0  0.47950  0.00792  0.94427  1.0000
  H   H421      1.0  0.47675  0.23765  0.89604  1.0000
  S   S122      1.0  0.46811  0.30826  0.98268  1.0000
  C   C273      1.0  0.39761  0.11879  0.80163  1.0000
  C   C274      1.0  0.46253  0.21769  0.89918  1.0000
  C   C275      1.0  0.41905  0.29126  0.91818  1.0000
  C   C276      1.0  0.40688  0.28124  0.90670  1.0000
  C   C277      1.0  0.41754  0.29418  0.89487  1.0000
  C   C278      1.0  0.43987  0.31778  0.89446  1.0000
  C   C279      1.0  0.45186  0.32790  0.90597  1.0000
  C   C280      1.0  0.44177  0.31450  0.91777  1.0000
  H   H422      1.0  0.38902  0.26348  0.90696  1.0000
  H   H423      1.0  0.40779  0.28650  0.88609  1.0000
  H   H424      1.0  0.39584  0.07048  0.80927  1.0000
  H   H425      1.0  0.45133  0.32241  0.92655  1.0000
  C   C281      1.0  0.33386  0.04488  0.98284  1.0000
  H   H426      1.0  0.44881  0.09014  0.79711  1.0000
  C   C282      1.0  0.35000  0.10276  0.80856  1.0000
  H   H427      1.0  0.34507  0.11717  0.80192  1.0000
  H   H428      1.0  0.41497  0.20691  0.98065  1.0000
  H   H429      1.0  0.36318  0.35512  0.95227  1.0000
  H   H430      1.0  0.43755  0.24931  0.88859  1.0000
  C   C283      1.0  0.41640  0.19099  0.90599  1.0000
  H   H431      1.0  0.39493  0.32539  0.93829  1.0000
  H   H432      1.0  0.46616  0.14470  0.97836  1.0000
  H   H433      1.0  0.45041  0.25516  0.91135  1.0000
  H   H434      1.0  0.46124  0.01508  0.93084  1.0000
  H   H435      1.0  0.44622  0.22704  0.92207  1.0000
  C   C284      1.0  0.42370  0.22912  0.89162  1.0000
  H   H436      1.0  0.45639  0.17445  0.87260  1.0000
  S   S123      1.0  0.47114  0.28644  0.95406  1.0000
  H   H437      1.0  0.35562  0.11199  0.81789  1.0000
  H   H438      1.0  0.44455  0.08714  0.88239  1.0000
  H   H439      1.0  0.34751  0.06469  0.97909  1.0000
  H   H440      1.0  0.38158  0.29522  0.95747  1.0000
  S   S124      1.0  0.47172  0.33524  0.84344  1.0000
  C   C285      1.0  0.46924  0.18546  0.97841  1.0000
  H   H441      1.0  0.43865  0.10037  0.90417  1.0000
  S   S125      1.0  0.46865  0.22878  0.86563  1.0000
  H   H442      1.0  0.38975  0.15880  0.98182  1.0000
  C   C286      1.0  0.37830  0.07603  0.81258  1.0000
  S   S126      1.0  0.45137  0.33617  0.87986  1.0000
  H   H443      1.0  0.34780  0.28596  0.96430  1.0000
  C   C287      1.0  0.35969  0.29146  0.95513  1.0000
  H   H444      1.0  0.40314  0.23022  0.89392  1.0000
  H   H445      1.0  0.36021  0.05764  0.81392  1.0000
  Fe  Fe63      1.0  0.48073  0.32529  0.96272  1.0000
  H   H446      1.0  0.41424  0.17812  0.89784  1.0000
  H   H447      1.0  0.41667  0.23451  0.91677  1.0000
  H   H448      1.0  0.36609  0.30473  0.93000  1.0000
  H   H449      1.0  0.46903  0.34613  0.90581  1.0000
  H   H450      1.0  0.32341  0.32633  0.94057  1.0000
  Fe  Fe64      1.0  0.46241  0.05238  0.97229  1.0000
  C   C288      1.0  0.43057  0.28812  0.80233  1.0000
  H   H451      1.0  0.38363  0.08415  0.82212  1.0000
  H   H452      1.0  0.31230  0.04283  0.98038  1.0000
  H   H453      1.0  0.47206  0.21022  0.90735  1.0000
  H   H454      1.0  0.46561  0.27821  0.80861  1.0000
  H   H455      1.0  0.46140  0.20486  0.89113  1.0000
  H   H456      1.0  0.46991  0.17655  0.83488  1.0000
  H   H457      1.0  0.47520  0.06161  0.93586  1.0000
  C   C289      1.0  0.48175  0.01488  0.93400  1.0000
  Fe  Fe65      1.0  0.08075  0.61468  0.04759  1.0000
  S   S127      1.0  0.12231  0.60958  0.04754  1.0000
  S   S128      1.0  0.06018  0.60329  0.02822  1.0000
  Fe  Fe66      1.0  0.09026  0.63387  0.07486  1.0000
  S   S129      1.0  0.13190  0.63002  0.07627  1.0000
  S   S130      1.0  0.07781  0.64929  0.09255  1.0000
  Fe  Fe67      1.0  0.13895  0.64875  0.05640  1.0000
  S   S131      1.0  0.18094  0.67734  0.04932  1.0000
  Fe  Fe68      1.0  0.11148  0.59172  0.06740  1.0000
  S   S132      1.0  0.11529  0.55463  0.07663  1.0000
  S   S133      1.0  0.09827  0.65518  0.05530  1.0000
  S   S134      1.0  0.06903  0.59421  0.06710  1.0000
  Fe  Fe69      1.0  0.32025  0.88469  0.04578  1.0000
  S   S135      1.0  0.30988  0.84741  0.03537  1.0000
  S   S136      1.0  0.33673  0.92730  0.03719  1.0000
  Fe  Fe70      1.0  0.31857  0.85450  0.07231  1.0000
  S   S137      1.0  0.30957  0.81600  0.06330  1.0000
  S   S138      1.0  0.32936  0.85392  0.09338  1.0000
  Fe  Fe71      1.0  0.34085  0.83847  0.04835  1.0000
  S   S139      1.0  0.37500  0.82546  0.04102  1.0000
  Fe  Fe72      1.0  0.27931  0.82830  0.05151  1.0000
  S   S140      1.0  0.23397  0.80198  0.05134  1.0000
  S   S141      1.0  0.35212  0.87612  0.05808  1.0000
  S   S142      1.0  0.28724  0.86650  0.06114  1.0000
  Fe  Fe73      1.0  0.33637  0.81877  0.17169  1.0000
  S   S143      1.0  0.33031  0.85762  0.16886  1.0000
  C   C290      1.0  0.12876  0.70032  0.02898  1.0000
  Fe  Fe74      1.0  0.28265  0.79421  0.18632  1.0000
  S   S144      1.0  0.27156  0.83061  0.18429  1.0000
  H   H458      1.0  0.28197  0.71625  0.15136  1.0000
  Fe  Fe75      1.0  0.28706  0.83343  0.16392  1.0000
  S   S145      1.0  0.26442  0.84118  0.14634  1.0000
  H   H459      1.0  0.37417  0.97791  0.02844  1.0000
  S   S146      1.0  0.29400  0.79488  0.16567  1.0000
  H   H460      1.0  0.37422  0.49017  0.17418  1.0000
  Fe  Fe76      1.0  0.10680  0.61249  0.16264  1.0000
  S   S147      1.0  0.14700  0.64542  0.15956  1.0000
  S   S148      1.0  0.08699  0.58969  0.14555  1.0000
  C   C291      1.0  0.39439  0.87594  0.18644  1.0000
  H   H461      1.0  0.10626  0.69149  0.03112  1.0000
  Fe  Fe77      1.0  0.13192  0.66386  0.17519  1.0000
  H   H462      1.0  0.17264  0.77666  0.14941  1.0000
  Fe  Fe78      1.0  0.16227  0.62512  0.17539  1.0000
  S   S149      1.0  0.20497  0.62342  0.17534  1.0000
  S   S150      1.0  0.09010  0.63224  0.17739  1.0000
  S   S151      1.0  0.12334  0.59074  0.17758  1.0000
  C   C292      1.0  0.20655  0.59180  0.17493  1.0000
  N   N29       1.0  0.40339  0.90062  0.02154  1.0000
  H   H463      1.0  0.42044  0.51320  0.15362  1.0000
  H   H464      1.0  0.45756  0.81260  0.09421  1.0000
  C   C293      1.0  0.37299  0.98055  0.00781  1.0000
  S   S152      1.0  0.32588  0.81413  0.19257  1.0000
  C   C294      1.0  0.23330  0.56300  0.17763  1.0000
  C   C295      1.0  0.45793  0.55689  0.04803  1.0000
  N   N30       1.0  0.46019  0.54375  0.08857  1.0000
  N   N31       1.0  0.25385  0.69879  0.16705  1.0000
  H   H465      1.0  0.46753  0.82723  0.17525  1.0000
  C   C296      1.0  0.22391  0.69042  0.16975  1.0000
  C   C297      1.0  0.17214  0.72328  0.18027  1.0000
  C   C298      1.0  0.19256  0.74409  0.17380  1.0000
  C   C299      1.0  0.21823  0.75564  0.17941  1.0000
  C   C300      1.0  0.34187  0.94234  0.99828  1.0000
  H   H466      1.0  0.45446  0.84285  0.08786  1.0000
  H   H467      1.0  0.18894  0.75037  0.16424  1.0000
  H   H468      1.0  0.23423  0.77132  0.17429  1.0000
  H   H469      1.0  0.25845  0.66697  0.17882  1.0000
  C   C301      1.0  0.23146  0.58808  0.17773  1.0000
  H   H470      1.0  0.21608  0.70700  0.16835  1.0000
  C   C302      1.0  0.39792  0.81042  0.17312  1.0000
  C   C303      1.0  0.42570  0.81978  0.16936  1.0000
  H   H471      1.0  0.43159  0.82836  0.15978  1.0000
  C   C304      1.0  0.00263  0.58925  0.02934  1.0000
  H   H472      1.0  0.26297  0.73695  0.17430  1.0000
  H   H473      1.0  0.42575  0.52714  0.07639  1.0000
  C   C305      1.0  0.31030  0.85042  0.10780  1.0000
  C   C306      1.0  0.28376  0.85189  0.10820  1.0000
  C   C307      1.0  0.26971  0.84893  0.12004  1.0000
  C   C308      1.0  0.28208  0.84449  0.13151  1.0000
  C   C309      1.0  0.30841  0.84272  0.13104  1.0000
  C   C310      1.0  0.32241  0.84575  0.11927  1.0000
  H   H474      1.0  0.27440  0.85587  0.09945  1.0000
  H   H475      1.0  0.24944  0.85053  0.12031  1.0000
  H   H476      1.0  0.31822  0.83931  0.13976  1.0000
  H   H477      1.0  0.34291  0.84461  0.11907  1.0000
  C   C311      1.0  0.45822  0.86396  0.05975  1.0000
  C   C312      1.0  0.43394  0.86482  0.06528  1.0000
  C   C313      1.0  0.40829  0.85160  0.06003  1.0000
  C   C314      1.0  0.40669  0.83825  0.04889  1.0000
  C   C315      1.0  0.43092  0.83668  0.04353  1.0000
  H   H478      1.0  0.09842  0.68191  0.00843  1.0000
  H   H479      1.0  0.43494  0.87585  0.07366  1.0000
  H   H480      1.0  0.38978  0.85195  0.06459  1.0000
  H   H481      1.0  0.42982  0.82604  0.03501  1.0000
  H   H482      1.0  0.39119  0.85696  0.18203  1.0000
  C   C316      1.0  0.19567  0.71183  0.05075  1.0000
  C   C317      1.0  0.22333  0.72479  0.04695  1.0000
  C   C318      1.0  0.23554  0.75229  0.04726  1.0000
  C   C319      1.0  0.21999  0.76723  0.05113  1.0000
  C   C320      1.0  0.19235  0.75427  0.05499  1.0000
  C   C321      1.0  0.18034  0.72671  0.05496  1.0000
  H   H483      1.0  0.23540  0.71350  0.04367  1.0000
  H   H484      1.0  0.25681  0.76196  0.04425  1.0000
  H   H485      1.0  0.18016  0.76563  0.05804  1.0000
  H   H486      1.0  0.15913  0.71706  0.05805  1.0000
  C   C322      1.0  0.08165  0.63304  0.10719  1.0000
  C   C323      1.0  0.07921  0.60655  0.10775  1.0000
  C   C324      1.0  0.08059  0.59349  0.11957  1.0000
  C   C325      1.0  0.08555  0.60699  0.13087  1.0000
  C   C326      1.0  0.08875  0.63367  0.13027  1.0000
  C   C327      1.0  0.08633  0.64651  0.11850  1.0000
  H   H487      1.0  0.07540  0.59591  0.09912  1.0000
  H   H488      1.0  0.07758  0.57280  0.11993  1.0000
  H   H489      1.0  0.09237  0.64425  0.13892  1.0000
  H   H490      1.0  0.08810  0.66696  0.11816  1.0000
  H   H491      1.0  0.47298  0.51837  0.10160  1.0000
  H   H492      1.0  0.21876  0.68224  0.17976  1.0000
  C   C328      1.0  0.11439  0.50570  0.07140  1.0000
  C   C329      1.0  0.11925  0.53146  0.06652  1.0000
  C   C330      1.0  0.12610  0.53804  0.05360  1.0000
  C   C331      1.0  0.12785  0.51883  0.04556  1.0000
  H   H493      1.0  0.10910  0.50055  0.08140  1.0000
  H   H494      1.0  0.13018  0.55792  0.04981  1.0000
  H   H495      1.0  0.13322  0.52397  0.03557  1.0000
  C   C332      1.0  0.43010  0.54135  0.04991  1.0000
  C   C333      1.0  0.44603  0.81907  0.17810  1.0000
  H   H496      1.0  0.41549  0.55023  0.05292  1.0000
  C   C334      1.0  0.02597  0.59063  0.02220  1.0000
  C   C335      1.0  0.02227  0.58152  0.00977  1.0000
  C   C336      1.0  0.46927  0.83366  0.09176  1.0000
  C   C337      1.0  0.18535  0.54524  0.17177  1.0000
  C   C338      1.0  0.43100  0.51005  0.16215  1.0000
  S   S153      1.0  0.45362  0.56338  0.16195  1.0000
  C   C339      1.0  0.34604  0.94208  0.02147  1.0000
  C   C340      1.0  0.33468  0.92930  0.01048  1.0000
  C   C341      1.0  0.99573  0.57138  0.00448  1.0000
  H   H497      1.0  0.12705  0.52917  0.18864  1.0000
  H   H498      1.0  0.31972  0.90964  0.01138  1.0000
  C   C342      1.0  0.45410  0.51937  0.09677  1.0000
  H   H499      1.0  0.29150  0.72545  0.17434  1.0000
  H   H500      1.0  0.36803  0.86548  0.02421  1.0000
  C   C343      1.0  0.12250  0.49298  0.05040  1.0000
  H   H501      1.0  0.39963  0.50243  0.04949  1.0000
  H   H502      1.0  0.03213  0.55528  0.04752  1.0000
  N   N32       1.0  0.36808  0.52053  0.18478  1.0000
  H   H503      1.0  0.39851  0.93755  0.01648  1.0000
  C   C344      1.0  0.21023  0.54155  0.17474  1.0000
  H   H504      1.0  0.43880  0.56235  0.07588  1.0000
  H   H505      1.0  0.24853  0.69473  0.14686  1.0000
  H   H506      1.0  0.02537  0.50249  0.02548  1.0000
  C   C345      1.0  0.34109  0.51714  0.17891  1.0000
  H   H507      1.0  0.38572  0.56095  0.17779  1.0000
  H   H508      1.0  0.12671  0.68313  0.99824  1.0000
  C   C346      1.0  0.13073  0.66006  0.02115  1.0000
  C   C347      1.0  0.48085  0.54460  0.07870  1.0000
  N   N33       1.0  0.12299  0.53530  0.12903  1.0000
  C   C348      1.0  0.09259  0.52515  0.13017  1.0000
  C   C349      1.0  0.13486  0.53372  0.14178  1.0000
  C   C350      1.0  0.13238  0.56291  0.12394  1.0000
  C   C351      1.0  0.13203  0.51934  0.12026  1.0000
  H   H509      1.0  0.08288  0.52603  0.12074  1.0000
  H   H510      1.0  0.08506  0.53684  0.13670  1.0000
  H   H511      1.0  0.12817  0.51306  0.14585  1.0000
  H   H512      1.0  0.15779  0.54124  0.14135  1.0000
  H   H513      1.0  0.12828  0.54551  0.14862  1.0000
  H   H514      1.0  0.15520  0.57118  0.12289  1.0000
  H   H515      1.0  0.12605  0.57556  0.13037  1.0000
  H   H516      1.0  0.12353  0.56485  0.11438  1.0000
  H   H517      1.0  0.15486  0.52647  0.11914  1.0000
  H   H518      1.0  0.12325  0.51994  0.11057  1.0000
  H   H519      1.0  0.12545  0.49842  0.12386  1.0000
  N   N34       1.0  0.13680  0.68836  0.01804  1.0000
  C   C352      1.0  0.12100  0.69177  0.00671  1.0000
  H   H520      1.0  0.13969  0.69732  0.03777  1.0000
  H   H521      1.0  0.26406  0.71208  0.18599  1.0000
  C   C353      1.0  0.16664  0.70123  0.01536  1.0000
  H   H522      1.0  0.43855  0.51805  0.10433  1.0000
  C   C354      1.0  0.36099  0.96807  0.99684  1.0000
  C   C355      1.0  0.46807  0.71217  0.18963  1.0000
  C   C356      1.0  0.47660  0.54540  0.04391  1.0000
  H   H523      1.0  0.04008  0.58241  0.00412  1.0000
  H   H524      1.0  0.32410  0.50151  0.18420  1.0000
  H   H525      1.0  0.00526  0.52370  0.04899  1.0000
  C   C357      1.0  0.46748  0.51857  0.04166  1.0000
  H   H526      1.0  0.17354  0.69262  0.00721  1.0000
  H   H527      1.0  0.33609  0.53550  0.17884  1.0000
  H   H528      1.0  0.45152  0.82526  0.11620  1.0000
  H   H529      1.0  0.14284  0.65679  0.02946  1.0000
  N   N35       1.0  0.18277  0.81405  0.15774  1.0000
  H   H530      1.0  0.01551  0.54003  0.03354  1.0000
  C   C358      1.0  0.20595  0.81118  0.16524  1.0000
  C   C359      1.0  0.16297  0.78782  0.15522  1.0000
  C   C360      1.0  0.16879  0.82849  0.16505  1.0000
  H   H531      1.0  0.44323  0.89644  0.02025  1.0000
  H   H532      1.0  0.20871  0.49842  0.03655  1.0000
  H   H533      1.0  0.06206  0.54689  0.02491  1.0000
  H   H534      1.0  0.19882  0.80026  0.17459  1.0000
  H   H535      1.0  0.21711  0.80051  0.15998  1.0000
  H   H536      1.0  0.22141  0.83063  0.16720  1.0000
  H   H537      1.0  0.07833  0.55937  0.03944  1.0000
  C   C361      1.0  0.43471  0.54435  0.08233  1.0000
  H   H538      1.0  0.15511  0.77575  0.16425  1.0000
  H   H539      1.0  0.16046  0.81781  0.17434  1.0000
  H   H540      1.0  0.15125  0.83119  0.15967  1.0000
  H   H541      1.0  0.18325  0.84832  0.16717  1.0000
  N   N36       1.0  0.24856  0.77605  0.09050  1.0000
  C   C362      1.0  0.22708  0.76146  0.10007  1.0000
  C   C363      1.0  0.24202  0.79874  0.08488  1.0000
  C   C364      1.0  0.24935  0.75850  0.08034  1.0000
  C   C365      1.0  0.27565  0.78544  0.09674  1.0000
  H   H542      1.0  0.20634  0.75430  0.09567  1.0000
  H   H543      1.0  0.22603  0.77407  0.10793  1.0000
  H   H544      1.0  0.23121  0.74404  0.10440  1.0000
  H   H545      1.0  0.25803  0.81050  0.07777  1.0000
  H   H546      1.0  0.22208  0.79238  0.07976  1.0000
  H   H547      1.0  0.24080  0.81220  0.09229  1.0000
  H   H548      1.0  0.22882  0.75000  0.07590  1.0000
  H   H549      1.0  0.25556  0.74182  0.08407  1.0000
  H   H550      1.0  0.26412  0.76918  0.07254  1.0000
  H   H551      1.0  0.29223  0.79744  0.08992  1.0000
  H   H552      1.0  0.28179  0.76891  0.10072  1.0000
  H   H553      1.0  0.27551  0.79806  0.10471  1.0000
  H   H554      1.0  0.24932  0.60456  0.18007  1.0000
  C   C366      1.0  0.18354  0.57042  0.17181  1.0000
  H   H555      1.0  0.40885  0.92281  0.00350  1.0000
  C   C367      1.0  0.47120  0.56675  0.09642  1.0000
  S   S154      1.0  0.37316  0.81381  0.16243  1.0000
  C   C368      1.0  0.37439  0.88507  0.01900  1.0000
  H   H556      1.0  0.37376  0.87770  0.18775  1.0000
  C   C369      1.0  0.06818  0.54099  0.03448  1.0000
  H   H557      1.0  0.42798  0.91732  0.03761  1.0000
  H   H558      1.0  0.44881  0.74288  0.17418  1.0000
  Fe  Fe79      1.0  0.31579  0.85086  0.18947  1.0000
  C   C370      1.0  0.36516  0.96782  0.02003  1.0000
  H   H559      1.0  0.47536  0.84849  0.04473  1.0000
  C   C371      1.0  0.44950  0.53152  0.16799  1.0000
  H   H560      1.0  0.08485  0.50431  0.13400  1.0000
  H   H561      1.0  0.06320  0.53538  0.05988  1.0000
  C   C372      1.0  0.26879  0.71914  0.17580  1.0000
  H   H562      1.0  0.41871  0.54410  0.08944  1.0000
  H   H563      1.0  0.44937  0.89263  0.19007  1.0000
  C   C373      1.0  0.40638  0.90573  0.03525  1.0000
  H   H564      1.0  0.00499  0.59617  0.03890  1.0000
  C   C374      1.0  0.39035  0.79937  0.18549  1.0000
  H   H565      1.0  0.06797  0.50664  0.05422  1.0000
  C   C375      1.0  0.43980  0.50293  0.04378  1.0000
  H   H566      1.0  0.37095  0.88176  0.00866  1.0000
  H   H567      1.0  0.28574  0.68164  0.16721  1.0000
  H   H568      1.0  0.44994  0.70087  0.18405  1.0000
  H   H569      1.0  0.40050  0.88707  0.04124  1.0000
  H   H570      1.0  0.39291  0.91667  0.03827  1.0000
  C   C376      1.0  0.43849  0.80861  0.19056  1.0000
  H   H571      1.0  0.41990  0.88195  0.00771  1.0000
  H   H572      1.0  0.47641  0.58544  0.09044  1.0000
  H   H573      1.0  0.17907  0.69897  0.02376  1.0000
  H   H574      1.0  0.43504  0.85767  0.19184  1.0000
  C   C377      1.0  0.42127  0.88577  0.01804  1.0000
  H   H575      1.0  0.14482  0.78921  0.14988  1.0000
  H   H576      1.0  0.39160  0.53780  0.16765  1.0000
  C   C378      1.0  0.45669  0.84940  0.04900  1.0000
  H   H577      1.0  0.34067  0.51138  0.16887  1.0000
  H   H578      1.0  0.16773  0.52886  0.16920  1.0000
  C   C379      1.0  0.41143  0.92584  0.01390  1.0000
  N   N37       1.0  0.46763  0.73853  0.19212  1.0000
  S   S155      1.0  0.14113  0.70746  0.17271  1.0000
  C   C380      1.0  0.45859  0.50176  0.18405  1.0000
  C   C381      1.0  0.42111  0.51430  0.04802  1.0000
  H   H579      1.0  0.47392  0.85600  0.12164  1.0000
  H   H580      1.0  0.36015  0.89498  0.02217  1.0000
  C   C382      1.0  0.46326  0.52736  0.17896  1.0000
  H   H581      1.0  0.16461  0.57334  0.16916  1.0000
  S   S156      1.0  0.46901  0.59034  0.05131  1.0000
  H   H582      1.0  0.43328  0.93797  0.01549  1.0000
  H   H583      1.0  0.25271  0.72686  0.15201  1.0000
  C   C383      1.0  0.46357  0.84592  0.11307  1.0000
  H   H584      1.0  0.17206  0.72266  0.01307  1.0000
  H   H585      1.0  0.44868  0.85554  0.10972  1.0000
  H   H586      1.0  0.45611  0.56696  0.10391  1.0000
  H   H587      1.0  0.17668  0.83146  0.13954  1.0000
  H   H588      1.0  0.44579  0.50165  0.09110  1.0000
  H   H589      1.0  0.08393  0.53164  0.03303  1.0000
  H   H590      1.0  0.25258  0.56017  0.17986  1.0000
  H   H591      1.0  0.25258  0.66040  0.16233  1.0000
  H   H592      1.0  0.13388  0.72185  0.02720  1.0000
  H   H593      1.0  0.41514  0.86635  0.02344  1.0000
  N   N38       1.0  0.04413  0.52321  0.04190  1.0000
  C   C384      1.0  0.17726  0.71429  0.19244  1.0000
  H   H594      1.0  0.04731  0.48839  0.03427  1.0000
  H   H595      1.0  0.46673  0.77310  0.18142  1.0000
  C   C385      1.0  0.46720  0.75316  0.17986  1.0000
  S   S157      1.0  0.21332  0.51048  0.17485  1.0000
  H   H596      1.0  0.12479  0.71289  0.00419  1.0000
  C   C386      1.0  0.05299  0.51718  0.05476  1.0000
  C   C387      1.0  0.03210  0.49862  0.03526  1.0000
  H   H597      1.0  0.20446  0.81856  0.13982  1.0000
  H   H598      1.0  0.21198  0.67489  0.16339  1.0000
  H   H599      1.0  0.41037  0.54560  0.18213  1.0000
  C   C388      1.0  0.38979  0.54215  0.17779  1.0000
  H   H600      1.0  0.13587  0.65015  0.01303  1.0000
  C   C389      1.0  0.19348  0.82881  0.14550  1.0000
  C   C390      1.0  0.02332  0.53607  0.04307  1.0000
  C   C391      1.0  0.22355  0.74614  0.19142  1.0000
  C   C392      1.0  0.26318  0.67602  0.16892  1.0000
  S   S158      1.0  0.15145  0.64675  0.19079  1.0000
  C   C393      1.0  0.25954  0.70963  0.15371  1.0000
  H   H601      1.0  0.20873  0.84861  0.14706  1.0000
  H   H602      1.0  0.40615  0.89188  0.17939  1.0000
  H   H603      1.0  0.10854  0.64984  0.02363  1.0000
  Fe  Fe80      1.0  0.11106  0.61378  0.19211  1.0000
  H   H604      1.0  0.47715  0.54386  0.18366  1.0000
  H   H605      1.0  0.36886  0.79164  0.18835  1.0000
  H   H606      1.0  0.03529  0.50454  0.06081  1.0000
  C   C394      1.0  0.37424  0.49598  0.18419  1.0000
  H   H607      1.0  0.47311  0.52787  0.07238  1.0000
  H   H608      1.0  0.99337  0.56468  0.99488  1.0000
  H   H609      1.0  0.39486  0.49808  0.18817  1.0000
  H   H610      1.0  0.46915  0.49865  0.19258  1.0000
  H   H611      1.0  0.48197  0.50995  0.03822  1.0000
  H   H612      1.0  0.23526  0.48873  0.01875  1.0000
  S   S159      1.0  0.33129  0.88055  0.20466  1.0000
  S   S160      1.0  0.09921  0.59201  0.21151  1.0000
  Fe  Fe81      1.0  0.25320  0.94660  0.38372  1.0000
  S   S161      1.0  0.20905  0.94289  0.38036  1.0000
  S   S162      1.0  0.28461  0.94082  0.36998  1.0000
  C   C395      1.0  0.17223  0.70792  0.25700  1.0000
  H   H613      1.0  0.19161  0.70533  0.26046  1.0000
  H   H614      1.0  0.13093  0.81867  0.34442  1.0000
  Fe  Fe82      1.0  0.03921  0.73503  0.37910  1.0000
  S   S163      1.0  0.01167  0.75839  0.37455  1.0000
  S   S164      1.0  0.06281  0.73168  0.36124  1.0000
  Fe  Fe83      1.0  0.31093  0.81864  0.30718  1.0000
  S   S165      1.0  0.28295  0.83685  0.29753  1.0000
  S   S166      1.0  0.29406  0.77816  0.31702  1.0000
  Fe  Fe84      1.0  0.36124  0.86643  0.30100  1.0000
  S   S167      1.0  0.33668  0.88857  0.29065  1.0000
  S   S168      1.0  0.40714  0.88569  0.30431  1.0000
  Fe  Fe85      1.0  0.30638  0.87359  0.30719  1.0000
  S   S169      1.0  0.27862  0.89482  0.31471  1.0000
  Fe  Fe86      1.0  0.31494  0.85015  0.28176  1.0000
  S   S170      1.0  0.29568  0.83982  0.26229  1.0000
  S   S171      1.0  0.33242  0.85428  0.31810  1.0000
  S   S172      1.0  0.34162  0.82920  0.29092  1.0000
  Fe  Fe87      1.0  0.12998  0.60963  0.29985  1.0000
  S   S173      1.0  0.08637  0.60882  0.29819  1.0000
  S   S174      1.0  0.14312  0.57442  0.30518  1.0000
  Fe  Fe88      1.0  0.15369  0.66972  0.29533  1.0000
  S   S175      1.0  0.11137  0.67263  0.29404  1.0000
  S   S176      1.0  0.18874  0.70626  0.28846  1.0000
  Fe  Fe89      1.0  0.09985  0.64324  0.31085  1.0000
  S   S177      1.0  0.07305  0.63911  0.32878  1.0000
  Fe  Fe90      1.0  0.10225  0.63830  0.28159  1.0000
  S   S178      1.0  0.08247  0.64297  0.26264  1.0000
  S   S179      1.0  0.14314  0.64294  0.31309  1.0000
  S   S180      1.0  0.14484  0.63646  0.28228  1.0000
  H   H615      1.0  0.13909  0.56422  0.21868  1.0000
  C   C396      1.0  0.09525  0.53317  0.29999  1.0000
  C   C397      1.0  0.12269  0.54099  0.30390  1.0000
  C   C398      1.0  0.13421  0.52171  0.30743  1.0000
  H   H616      1.0  0.14951  0.65423  0.23935  1.0000
  H   H617      1.0  0.08617  0.54779  0.29711  1.0000
  H   H618      1.0  0.15528  0.52762  0.31061  1.0000
  H   H619      1.0  0.11507  0.49683  0.19642  1.0000
  H   H620      1.0  0.20730  0.71817  0.20722  1.0000
  C   C399      1.0  0.07946  0.50627  0.29980  1.0000
  C   C400      1.0  0.26469  0.75771  0.30929  1.0000
  C   C401      1.0  0.25901  0.76438  0.29679  1.0000
  C   C402      1.0  0.23565  0.74831  0.29065  1.0000
  C   C403      1.0  0.21761  0.72543  0.29691  1.0000
  C   C404      1.0  0.22323  0.71855  0.30941  1.0000
  C   C405      1.0  0.24684  0.73463  0.31557  1.0000
  H   H621      1.0  0.27285  0.78175  0.29175  1.0000
  H   H622      1.0  0.23160  0.75367  0.28095  1.0000
  H   H623      1.0  0.20948  0.70089  0.31430  1.0000
  H   H624      1.0  0.25114  0.72932  0.32522  1.0000
  C   C406      1.0  0.43091  0.86876  0.30451  1.0000
  C   C407      1.0  0.45736  0.88080  0.30939  1.0000
  H   H625      1.0  0.18753  0.72567  0.23269  1.0000
  H   H626      1.0  0.44773  0.87609  0.20555  1.0000
  C   C408      1.0  0.44317  0.83042  0.30064  1.0000
  C   C409      1.0  0.42397  0.84360  0.30002  1.0000
  H   H627      1.0  0.46284  0.90022  0.31295  1.0000
  H   H628      1.0  0.12013  0.68960  0.24884  1.0000
  H   H629      1.0  0.43760  0.81087  0.29722  1.0000
  H   H630      1.0  0.40382  0.83431  0.29606  1.0000
  C   C410      1.0  0.06529  0.70539  0.35253  1.0000
  C   C411      1.0  0.05159  0.67902  0.35636  1.0000
  C   C412      1.0  0.05408  0.65901  0.34895  1.0000
  C   C413      1.0  0.07043  0.66507  0.33771  1.0000
  C   C414      1.0  0.08411  0.69142  0.33391  1.0000
  C   C415      1.0  0.08148  0.71141  0.34127  1.0000
  H   H631      1.0  0.03940  0.67403  0.36509  1.0000
  H   H632      1.0  0.04350  0.63868  0.35200  1.0000
  H   H633      1.0  0.09672  0.69640  0.32530  1.0000
  H   H634      1.0  0.09215  0.73170  0.33818  1.0000
  C   C416      1.0  0.28135  0.92635  0.35496  1.0000
  C   C417      1.0  0.25830  0.92274  0.34725  1.0000
  C   C418      1.0  0.25766  0.91287  0.33501  1.0000
  C   C419      1.0  0.27975  0.90601  0.33044  1.0000
  C   C420      1.0  0.30253  0.90920  0.33825  1.0000
  C   C421      1.0  0.30342  0.91957  0.35036  1.0000
  H   H635      1.0  0.24121  0.92795  0.35061  1.0000
  H   H636      1.0  0.23996  0.91055  0.32904  1.0000
  H   H637      1.0  0.31977  0.90423  0.33487  1.0000
  H   H638      1.0  0.32143  0.92243  0.35619  1.0000
  H   H639      1.0  0.14819  0.51083  0.22058  1.0000
  C   C422      1.0  0.41156  0.90250  0.20438  1.0000
  H   H640      1.0  0.42360  0.72516  0.19465  1.0000
  C   C423      1.0  0.11861  0.49486  0.30699  1.0000
  C   C424      1.0  0.44568  0.51081  0.31762  1.0000
  C   C425      1.0  0.15758  0.66566  0.24788  1.0000
  C   C426      1.0  0.09642  0.60762  0.22555  1.0000
  C   C427      1.0  0.08721  0.62902  0.22520  1.0000
  C   C428      1.0  0.08260  0.63932  0.23666  1.0000
  C   C429      1.0  0.08814  0.62901  0.24853  1.0000
  C   C430      1.0  0.09821  0.60816  0.24885  1.0000
  C   C431      1.0  0.10189  0.59725  0.23741  1.0000
  H   H641      1.0  0.08250  0.63689  0.21613  1.0000
  H   H642      1.0  0.07453  0.65526  0.23633  1.0000
  H   H643      1.0  0.10242  0.59998  0.25794  1.0000
  H   H644      1.0  0.10876  0.58054  0.23778  1.0000
  C   C432      1.0  0.32253  0.86881  0.22074  1.0000
  C   C433      1.0  0.33574  0.88421  0.23081  1.0000
  C   C434      1.0  0.32858  0.87531  0.24366  1.0000
  C   C435      1.0  0.30782  0.85110  0.24650  1.0000
  C   C436      1.0  0.29472  0.83580  0.23641  1.0000
  C   C437      1.0  0.30224  0.84442  0.22362  1.0000
  H   H645      1.0  0.35142  0.90314  0.22868  1.0000
  H   H646      1.0  0.33867  0.88737  0.25134  1.0000
  H   H647      1.0  0.27861  0.81709  0.23849  1.0000
  H   H648      1.0  0.29191  0.83234  0.21599  1.0000
  H   H649      1.0  0.15673  0.70046  0.26494  1.0000
  H   H650      1.0  0.48052  0.91272  0.27466  1.0000
  C   C438      1.0  0.13646  0.69750  0.24128  1.0000
  H   H651      1.0  0.09179  0.54053  0.20064  1.0000
  C   C439      1.0  0.10144  0.54683  0.33944  1.0000
  N   N39       1.0  0.16245  0.69390  0.24527  1.0000
  H   H652      1.0  0.47994  0.54745  0.31843  1.0000
  C   C440      1.0  0.12579  0.88178  0.39213  1.0000
  N   N40       1.0  0.21355  0.49161  0.29581  1.0000
  H   H653      1.0  0.11309  0.54676  0.34837  1.0000
  H   H654      1.0  0.08986  0.53623  0.21768  1.0000
  H   H655      1.0  0.42242  0.90432  0.21365  1.0000
  H   H656      1.0  0.08391  0.79948  0.35419  1.0000
  H   H657      1.0  0.14532  0.78366  0.36500  1.0000
  N   N41       1.0  0.12198  0.80979  0.36448  1.0000
  C   C441      1.0  0.09291  0.80817  0.36325  1.0000
  H   H658      1.0  0.12053  0.80894  0.38497  1.0000
  C   C442      1.0  0.13280  0.82107  0.37672  1.0000
  C   C443      1.0  0.13851  0.82671  0.35380  1.0000
  C   C444      1.0  0.47665  0.86769  0.30992  1.0000
  H   H659      1.0  0.20985  0.52018  0.28158  1.0000
  Fe  Fe91      1.0  0.03301  0.78370  0.39027  1.0000
  C   C445      1.0  0.47249  0.52835  0.31447  1.0000
  C   C446      1.0  0.09503  0.52815  0.20889  1.0000
  S   S181      1.0  0.26417  0.98523  0.39301  1.0000
  H   H660      1.0  0.24376  0.51805  0.28282  1.0000
  H   H661      1.0  0.14084  0.56819  0.20166  1.0000
  C   C447      1.0  0.47973  0.49573  0.30159  1.0000
  H   H662      1.0  0.46834  0.70049  0.19865  1.0000
  H   H663      1.0  0.25297  0.48768  0.29970  1.0000
  H   H664      1.0  0.47517  0.88223  0.28353  1.0000
  H   H665      1.0  0.13183  0.59431  0.32950  1.0000
  S   S182      1.0  0.46370  0.80959  0.20184  1.0000
  C   C448      1.0  0.18344  0.70441  0.23498  1.0000
  C   C449      1.0  0.07519  0.57073  0.34891  1.0000
  H   H666      1.0  0.08330  0.52837  0.33962  1.0000
  N   N42       1.0  0.24801  0.88216  0.27281  1.0000
  C   C450      1.0  0.23643  0.85524  0.27871  1.0000
  C   C451      1.0  0.23181  0.89797  0.27713  1.0000
  C   C452      1.0  0.24699  0.88118  0.25874  1.0000
  C   C453      1.0  0.27692  0.89428  0.27670  1.0000
  H   H667      1.0  0.24813  0.84270  0.27563  1.0000
  H   H668      1.0  0.21460  0.84548  0.27602  1.0000
  H   H669      1.0  0.23716  0.85522  0.28933  1.0000
  H   H670      1.0  0.23992  0.91840  0.27284  1.0000
  H   H671      1.0  0.20978  0.88931  0.27450  1.0000
  H   H672      1.0  0.23262  0.89919  0.28772  1.0000
  H   H673      1.0  0.25591  0.90110  0.25395  1.0000
  H   H674      1.0  0.22550  0.87217  0.25542  1.0000
  H   H675      1.0  0.25902  0.86922  0.25528  1.0000
  H   H676      1.0  0.28623  0.91479  0.27265  1.0000
  H   H677      1.0  0.28988  0.88319  0.27338  1.0000
  H   H678      1.0  0.27862  0.89473  0.28728  1.0000
  H   H679      1.0  0.12301  0.51955  0.22937  1.0000
  C   C454      1.0  0.07768  0.56935  0.32605  1.0000
  H   H680      1.0  0.05930  0.55119  0.32580  1.0000
  H   H681      1.0  0.17638  0.72935  0.25549  1.0000
  H   H682      1.0  0.12980  0.59567  0.34650  1.0000
  H   H683      1.0  0.42325  0.91961  0.19791  1.0000
  N   N43       1.0  0.37551  0.80105  0.33146  1.0000
  C   C455      1.0  0.39423  0.82865  0.33129  1.0000
  C   C456      1.0  0.36838  0.79348  0.31824  1.0000
  C   C457      1.0  0.35003  0.79815  0.33871  1.0000
  C   C458      1.0  0.38936  0.78386  0.33757  1.0000
  H   H684      1.0  0.39901  0.83549  0.34111  1.0000
  H   H685      1.0  0.38512  0.84212  0.32612  1.0000
  H   H686      1.0  0.41420  0.83127  0.32644  1.0000
  H   H687      1.0  0.35824  0.80630  0.31333  1.0000
  H   H688      1.0  0.38696  0.79495  0.31250  1.0000
  H   H689      1.0  0.35361  0.77300  0.31800  1.0000
  H   H690      1.0  0.35442  0.80347  0.34877  1.0000
  H   H691      1.0  0.33518  0.77766  0.33878  1.0000
  H   H692      1.0  0.33911  0.81088  0.33433  1.0000
  H   H693      1.0  0.37580  0.76289  0.33783  1.0000
  H   H694      1.0  0.39514  0.78908  0.34755  1.0000
  H   H695      1.0  0.40863  0.78557  0.33227  1.0000
  C   C459      1.0  0.20308  0.72553  0.19795  1.0000
  H   H696      1.0  0.40315  0.85567  0.21689  1.0000
  C   C460      1.0  0.23435  0.48823  0.30481  1.0000
  C   C461      1.0  0.12370  0.78324  0.36416  1.0000
  H   H697      1.0  0.43270  0.51672  0.32396  1.0000
  H   H698      1.0  0.99537  0.73267  0.35043  1.0000
  C   C462      1.0  0.46960  0.84242  0.30555  1.0000
  H   H699      1.0  0.06875  0.58837  0.34799  1.0000
  H   H700      1.0  0.11145  0.76999  0.37212  1.0000
  H   H701      1.0  0.23114  0.53373  0.29480  1.0000
  H   H702      1.0  0.09072  0.82782  0.36359  1.0000
  C   C463      1.0  0.14303  0.55530  0.20992  1.0000
  H   H703      1.0  0.44166  0.75528  0.20183  1.0000
  H   H704      1.0  0.05822  0.50035  0.29683  1.0000
  H   H705      1.0  0.07984  0.79563  0.37115  1.0000
  H   H706      1.0  0.40480  0.79011  0.20383  1.0000
  H   H707      1.0  0.16483  0.55607  0.20997  1.0000
  N   N44       1.0  0.40883  0.87744  0.19872  1.0000
  H   H708      1.0  0.07042  0.58638  0.32478  1.0000
  N   N45       1.0  0.09302  0.57023  0.33802  1.0000
  H   H709      1.0  0.12841  0.68709  0.23247  1.0000
  H   H710      1.0  0.01012  0.69928  0.34092  1.0000
  H   H711      1.0  0.17666  0.69401  0.22604  1.0000
  H   H712      1.0  0.20339  0.70219  0.23773  1.0000
  C   C464      1.0  0.09909  0.86911  0.38757  1.0000
  H   H713      1.0  0.08608  0.57144  0.35813  1.0000
  H   H714      1.0  0.14214  0.65733  0.25574  1.0000
  N   N46       1.0  0.12365  0.52816  0.20910  1.0000
  H   H715      1.0  0.15083  0.51686  0.19706  1.0000
  H   H716      1.0  0.17675  0.66213  0.25087  1.0000
  H   H717      1.0  0.11542  0.77394  0.35511  1.0000
  H   H718      1.0  0.24187  0.98300  0.35099  1.0000
  H   H719      1.0  0.13928  0.71859  0.23932  1.0000
  H   H720      1.0  0.15461  0.82244  0.37806  1.0000
  H   H721      1.0  0.05613  0.55311  0.34947  1.0000
  C   C465      1.0  0.11781  0.59414  0.33758  1.0000
  H   H722      1.0  0.36271  0.54530  0.19907  1.0000
  H   H723      1.0  0.11501  0.54620  0.33131  1.0000
  H   H724      1.0  0.09088  0.56989  0.31763  1.0000
  H   H725      1.0  0.11222  0.61218  0.33629  1.0000
  H   H726      1.0  0.13757  0.84689  0.35378  1.0000
  S   S183      1.0  0.25623  0.75884  0.19797  1.0000
  C   C466      1.0  0.36724  0.52684  0.19826  1.0000
  Fe  Fe92      1.0  0.21967  0.98060  0.39077  1.0000
  H   H727      1.0  0.16060  0.82849  0.35446  1.0000
  H   H728      1.0  0.09083  0.87878  0.38015  1.0000
  H   H729      1.0  0.13203  0.84119  0.37724  1.0000
  H   H730      1.0  0.07988  0.50798  0.20818  1.0000
  C   C467      1.0  0.08323  0.84386  0.39247  1.0000
  S   S184      1.0  0.05068  0.82754  0.38602  1.0000
  H   H731      1.0  0.13802  0.90114  0.38824  1.0000
  H   H732      1.0  0.17260  0.49331  0.29653  1.0000
  C   C468      1.0  0.22512  0.51702  0.28842  1.0000
  C   C469      1.0  0.12701  0.51177  0.22027  1.0000
  H   H733      1.0  0.19380  0.50706  0.30979  1.0000
  H   H734      1.0  0.11241  0.49123  0.21998  1.0000
  C   C470      1.0  0.44273  0.73581  0.19976  1.0000
  C   C471      1.0  0.43647  0.87596  0.19648  1.0000
  H   H735      1.0  0.35103  0.51088  0.20380  1.0000
  H   H736      1.0  0.16127  0.69871  0.19760  1.0000
  H   H737      1.0  0.24103  0.50436  0.31149  1.0000
  H   H738      1.0  0.39097  0.90409  0.20624  1.0000
  C   C472      1.0  0.12943  0.51730  0.19728  1.0000
  C   C473      1.0  0.41065  0.79831  0.19420  1.0000
  H   H739      1.0  0.44248  0.72500  0.20911  1.0000
  H   H740      1.0  0.38997  0.83615  0.20351  1.0000
  C   C474      1.0  0.18883  0.49106  0.30304  1.0000
  H   H741      1.0  0.00551  0.69925  0.36452  1.0000
  H   H742      1.0  0.38732  0.52945  0.20296  1.0000
  C   C475      1.0  0.39280  0.85536  0.20755  1.0000
  H   H743      1.0  0.47430  0.88300  0.26647  1.0000
  H   H744      1.0  0.37186  0.85597  0.20949  1.0000
  C   C476      1.0  0.09112  0.48700  0.30320  1.0000
  C   C477      1.0  0.98801  0.68652  0.34069  1.0000
  H   H745      1.0  0.98751  0.66584  0.34114  1.0000
  Fe  Fe93      1.0  0.98312  0.73306  0.38982  1.0000
  C   C478      1.0  0.98387  0.68591  0.36360  1.0000
  H   H746      1.0  0.98389  0.66543  0.36451  1.0000
  Fe  Fe94      1.0  0.21682  0.93269  0.52905  1.0000
  H   H747      1.0  0.25521  0.90436  0.43102  1.0000
  H   H748      1.0  0.07772  0.77007  0.46378  1.0000
  Fe  Fe95      1.0  0.23212  0.93438  0.50036  1.0000
  S   S185      1.0  0.20776  0.95991  0.49455  1.0000
  S   S186      1.0  0.25580  0.92156  0.48556  1.0000
  H   H749      1.0  0.12862  0.83451  0.41415  1.0000
  Fe  Fe96      1.0  0.17573  0.93370  0.50827  1.0000
  S   S187      1.0  0.13069  0.91791  0.50359  1.0000
  C   C479      1.0  0.24715  0.97000  0.57336  1.0000
  S   S188      1.0  0.19890  0.90643  0.51305  1.0000
  Fe  Fe97      1.0  0.05103  0.77442  0.51021  1.0000
  S   S189      1.0  0.03343  0.73024  0.51109  1.0000
  S   S190      1.0  0.09581  0.79526  0.50556  1.0000
  H   H750      1.0  0.10292  0.79705  0.45515  1.0000
  H   H751      1.0  0.24485  0.96732  0.55284  1.0000
  Fe  Fe98      1.0  0.00835  0.73551  0.52774  1.0000
  H   H752      1.0  0.21771  0.84250  0.45026  1.0000
  Fe  Fe99      1.0  0.00165  0.73706  0.49798  1.0000
  C   C480      1.0  0.04012  0.73450  0.57612  1.0000
  S   S191      1.0  0.02856  0.77928  0.52771  1.0000
  S   S192      1.0  0.02071  0.78079  0.49624  1.0000
  Fe  Fe100     1.0  0.25061  0.96193  0.41167  1.0000
  S   S193      1.0  0.20668  0.95989  0.41015  1.0000
  H   H753      1.0  0.22799  0.95928  0.44595  1.0000
  H   H754      1.0  0.09185  0.83682  0.44850  1.0000
  H   H755      1.0  0.22319  0.84529  0.42661  1.0000
  Fe  Fe101     1.0  0.02979  0.73741  0.40826  1.0000
  H   H756      1.0  0.02389  0.80116  0.46416  1.0000
  S   S194      1.0  0.04595  0.72978  0.42774  1.0000
  H   H757      1.0  0.10374  0.84250  0.52938  1.0000
  H   H758      1.0  0.05876  0.83860  0.45245  1.0000
  S   S195      1.0  0.17022  0.88348  0.40739  1.0000
  H   H759      1.0  0.12400  0.89390  0.54282  1.0000
  H   H760      1.0  0.06157  0.81683  0.44065  1.0000
  C   C481      1.0  0.22470  0.92970  0.58598  1.0000
  C   C482      1.0  0.24364  0.95324  0.45071  1.0000
  H   H761      1.0  0.20587  0.89550  0.57522  1.0000
  S   S196      1.0  0.27686  0.97360  0.42919  1.0000
  H   H762      1.0  0.07270  0.77712  0.44721  1.0000
  H   H763      1.0  0.10682  0.82154  0.54257  1.0000
  S   S197      1.0  0.24402  0.92390  0.40270  1.0000
  C   C483      1.0  0.02696  0.72569  0.44220  1.0000
  C   C484      1.0  0.03982  0.72312  0.45378  1.0000
  C   C485      1.0  0.02596  0.72092  0.46555  1.0000
  C   C486      1.0  0.14339  0.85948  0.55556  1.0000
  H   H764      1.0  0.07415  0.79973  0.47998  1.0000
  H   H765      1.0  0.06066  0.72286  0.45365  1.0000
  H   H766      1.0  0.03609  0.71894  0.47440  1.0000
  C   C487      1.0  0.25990  0.93533  0.46973  1.0000
  C   C488      1.0  0.28460  0.93876  0.46323  1.0000
  C   C489      1.0  0.28910  0.94985  0.45070  1.0000
  C   C490      1.0  0.26862  0.95689  0.44432  1.0000
  C   C491      1.0  0.02248  0.72314  0.58666  1.0000
  C   C492      1.0  0.23933  0.94256  0.46345  1.0000
  H   H767      1.0  0.30059  0.93323  0.46800  1.0000
  H   H768      1.0  0.30865  0.95309  0.44594  1.0000
  H   H769      1.0  0.27935  0.97958  0.48426  1.0000
  C   C493      1.0  0.98566  0.72255  0.45424  1.0000
  C   C494      1.0  0.11950  0.88399  0.50177  1.0000
  C   C495      1.0  0.09224  0.86845  0.50489  1.0000
  C   C496      1.0  0.08434  0.84098  0.50544  1.0000
  C   C497      1.0  0.10385  0.82915  0.50300  1.0000
  C   C498      1.0  0.13056  0.84466  0.49907  1.0000
  C   C499      1.0  0.13829  0.87205  0.49834  1.0000
  H   H770      1.0  0.07756  0.87764  0.50744  1.0000
  H   H771      1.0  0.06358  0.82906  0.50839  1.0000
  H   H772      1.0  0.14554  0.83553  0.49694  1.0000
  H   H773      1.0  0.15893  0.88394  0.49528  1.0000
  C   C500      1.0  0.13657  0.86925  0.40167  1.0000
  H   H774      1.0  0.21995  0.87295  0.41746  1.0000
  H   H775      1.0  0.04414  0.74003  0.55552  1.0000
  H   H776      1.0  0.03210  0.77282  0.46929  1.0000
  C   C501      1.0  0.03590  0.78859  0.46158  1.0000
  S   S198      1.0  0.19119  0.95818  0.52512  1.0000
  H   H777      1.0  0.17997  0.88409  0.43525  1.0000
  H   H778      1.0  0.18444  0.84595  0.44852  1.0000
  H   H779      1.0  0.19007  0.84911  0.42485  1.0000
  C   C502      1.0  0.23993  0.95656  0.58537  1.0000
  C   C503      1.0  0.99981  0.72547  0.44247  1.0000
  C   C504      1.0  0.08043  0.78629  0.45638  1.0000
  C   C505      1.0  0.22433  0.92983  0.56264  1.0000
  C   C506      1.0  0.13902  0.88743  0.53761  1.0000
  C   C507      1.0  0.09388  0.83162  0.40217  1.0000
  S   S199      1.0  0.21524  0.91211  0.54866  1.0000
  N   N47       1.0  0.06562  0.80383  0.46005  1.0000
  H   H780      1.0  0.12873  0.86532  0.56139  1.0000
  C   C508      1.0  0.06964  0.82497  0.44997  1.0000
  Fe  Fe102     1.0  0.20043  0.92282  0.40004  1.0000
  C   C509      1.0  0.15718  0.85276  0.53444  1.0000
  C   C510      1.0  0.07642  0.81531  0.47227  1.0000
  H   H781      1.0  0.15605  0.83235  0.53717  1.0000
  H   H782      1.0  0.15330  0.85372  0.52400  1.0000
  H   H783      1.0  0.06161  0.74536  0.57768  1.0000
  C   C511      1.0  0.12045  0.84426  0.40673  1.0000
  C   C512      1.0  0.03027  0.73153  0.56353  1.0000
  H   H784      1.0  0.14230  0.83944  0.55904  1.0000
  C   C513      1.0  0.21718  0.91636  0.57466  1.0000
  C   C514      1.0  0.24700  0.88931  0.43903  1.0000
  H   H785      1.0  0.15995  0.90177  0.53917  1.0000
  H   H786      1.0  0.16452  0.87312  0.55749  1.0000
  H   H787      1.0  0.25134  0.89963  0.44806  1.0000
  H   H788      1.0  0.09321  0.84737  0.54499  1.0000
  S   S200      1.0  0.00164  0.76084  0.40531  1.0000
  C   C515      1.0  0.99876  0.72053  0.46583  1.0000
  H   H789      1.0  0.13478  0.88898  0.52725  1.0000
  H   H790      1.0  0.17870  0.86596  0.53598  1.0000
  S   S201      1.0  0.99029  0.70950  0.54565  1.0000
  H   H791      1.0  0.22010  0.93983  0.46838  1.0000
  H   H792      1.0  0.21030  0.90860  0.42855  1.0000
  H   H793      1.0  0.09872  0.82728  0.47151  1.0000
  C   C516      1.0  0.00280  0.71650  0.56134  1.0000
  S   S202      1.0  0.25294  0.95788  0.51686  1.0000
  H   H794      1.0  0.20468  0.90514  0.44553  1.0000
  C   C517      1.0  0.23912  0.95678  0.56203  1.0000
  H   H795      1.0  0.02716  0.77894  0.45266  1.0000
  C   C518      1.0  0.10899  0.84216  0.53964  1.0000
  C   C519      1.0  0.99478  0.70888  0.58449  1.0000
  Fe  Fe103     1.0  0.99618  0.78088  0.51370  1.0000
  H   H796      1.0  0.21023  0.86793  0.45807  1.0000
  H   H797      1.0  0.06530  0.82814  0.47558  1.0000
  N   N48       1.0  0.13713  0.86045  0.54182  1.0000
  H   H798      1.0  0.98962  0.72723  0.43361  1.0000
  H   H799      1.0  0.25905  0.87582  0.43913  1.0000
  N   N49       1.0  0.21718  0.87505  0.43778  1.0000
  C   C520      1.0  0.21242  0.85986  0.42620  1.0000
  C   C521      1.0  0.20691  0.85701  0.44915  1.0000
  C   C522      1.0  0.20240  0.89404  0.43677  1.0000
  H   H800      1.0  0.08164  0.81240  0.40617  1.0000
  Fe  Fe104     1.0  0.22594  0.98160  0.51183  1.0000
  C   C523      1.0  0.98511  0.70529  0.57188  1.0000
  S   S203      1.0  0.06213  0.76197  0.39404  1.0000
  S   S204      1.0  0.00958  0.70791  0.39370  1.0000
  Fe  Fe105     1.0  0.23298  0.95728  0.61887  1.0000
  S   S205      1.0  0.18884  0.94725  0.62465  1.0000
  H   H801      1.0  0.07837  0.70286  0.69300  1.0000
  Fe  Fe106     1.0  0.25048  0.94716  0.64600  1.0000
  H   H802      1.0  0.09784  0.88707  0.63384  1.0000
  H   H803      1.0  0.06459  0.71379  0.66517  1.0000
  Fe  Fe107     1.0  0.19351  0.91270  0.63607  1.0000
  S   S206      1.0  0.15649  0.87693  0.63117  1.0000
  H   H804      1.0  0.35738  0.95549  0.60669  1.0000
  S   S207      1.0  0.23734  0.92167  0.62907  1.0000
  H   H805      1.0  0.07182  0.68530  0.67142  1.0000
  Fe  Fe108     1.0  0.02946  0.74990  0.64631  1.0000
  S   S208      1.0  0.03127  0.71233  0.63923  1.0000
  S   S209      1.0  0.06670  0.77453  0.65730  1.0000
  H   H806      1.0  0.08156  0.72718  0.62015  1.0000
  C   C524      1.0  0.33521  0.98430  0.66954  1.0000
  Fe  Fe109     1.0  0.20449  0.96950  0.64200  1.0000
  H   H807      1.0  0.02877  0.72701  0.67540  1.0000
  H   H808      1.0  0.07517  0.89338  0.65358  1.0000
  S   S210      1.0  0.03656  0.72543  0.60223  1.0000
  C   C525      1.0  0.13021  0.91530  0.65167  1.0000
  S   S211      1.0  0.01435  0.76160  0.62775  1.0000
  H   H809      1.0  0.01419  0.65479  0.68119  1.0000
  N   N50       1.0  0.04135  0.69475  0.68208  1.0000
  H   H810      1.0  0.13326  0.77478  0.59819  1.0000
  H   H811      1.0  0.00820  0.70685  0.68841  1.0000
  H   H812      1.0  0.30982  0.92886  0.60056  1.0000
  H   H813      1.0  0.32678  0.92256  0.62246  1.0000
  H   H814      1.0  0.05175  0.71207  0.70017  1.0000
  C   C526      1.0  0.06166  0.71099  0.69091  1.0000
  H   H815      1.0  0.26708  0.96794  0.67668  1.0000
  H   H816      1.0  0.00463  0.69510  0.67264  1.0000
  H   H817      1.0  0.30267  0.95840  0.59624  1.0000
  C   C527      1.0  0.13105  0.84999  0.63931  1.0000
  C   C528      1.0  0.13450  0.84073  0.65168  1.0000
  C   C529      1.0  0.11435  0.81794  0.65723  1.0000
  C   C530      1.0  0.09046  0.80442  0.65054  1.0000
  C   C531      1.0  0.08663  0.81431  0.63837  1.0000
  C   C532      1.0  0.10693  0.83676  0.63275  1.0000
  H   H818      1.0  0.15301  0.85063  0.65683  1.0000
  H   H819      1.0  0.11751  0.81052  0.66668  1.0000
  H   H820      1.0  0.06822  0.80442  0.63318  1.0000
  H   H821      1.0  0.10396  0.84384  0.62321  1.0000
  C   C533      1.0  0.02865  0.66782  0.68788  1.0000
  C   C534      1.0  0.34888  0.97016  0.61022  1.0000
  H   H822      1.0  0.28817  0.96871  0.62287  1.0000
  H   H823      1.0  0.04441  0.65872  0.69040  1.0000
  Fe  Fe110     1.0  0.01336  0.72288  0.62099  1.0000
  H   H824      1.0  0.11598  0.72738  0.61744  1.0000
  C   C535      1.0  0.30648  0.97324  0.66807  1.0000
  C   C536      1.0  0.05523  0.69381  0.66992  1.0000
  C   C537      1.0  0.01980  0.70647  0.67955  1.0000
  Fe  Fe111     1.0  0.98763  0.69356  0.64680  1.0000
  S   S212      1.0  0.20695  0.93482  0.65401  1.0000
  H   H825      1.0  0.12488  0.91393  0.62626  1.0000
  H   H826      1.0  0.06743  0.92014  0.64564  1.0000
  H   H827      1.0  0.09881  0.76162  0.63596  1.0000
  S   S213      1.0  0.25159  0.97371  0.59934  1.0000
  N   N51       1.0  0.11174  0.76553  0.61626  1.0000
  H   H828      1.0  0.07147  0.73147  0.68679  1.0000
  H   H829      1.0  0.14996  0.92014  0.64630  1.0000
  C   C538      1.0  0.28919  0.97668  0.67752  1.0000
  H   H830      1.0  0.09003  0.91373  0.62578  1.0000
  H   H831      1.0  0.08609  0.92498  0.66032  1.0000
  N   N52       1.0  0.10970  0.92255  0.64393  1.0000
  H   H832      1.0  0.01661  0.66747  0.69672  1.0000
  H   H833      1.0  0.08528  0.77365  0.60197  1.0000
  H   H834      1.0  0.07157  0.76869  0.61788  1.0000
  C   C539      1.0  0.10533  0.90874  0.63192  1.0000
  H   H835      1.0  0.13970  0.95764  0.63541  1.0000
  H   H836      1.0  0.04034  0.68144  0.66312  1.0000
  H   H837      1.0  0.09572  0.73287  0.60432  1.0000
  H   H838      1.0  0.14588  0.79938  0.60967  1.0000
  H   H839      1.0  0.13480  0.92597  0.66063  1.0000
  S   S214      1.0  0.29314  0.95464  0.65453  1.0000
  H   H840      1.0  0.12309  0.89385  0.65427  1.0000
  C   C540      1.0  0.30271  0.94423  0.60434  1.0000
  C   C541      1.0  0.11991  0.95121  0.64094  1.0000
  S   S215      1.0  0.98681  0.73072  0.65504  1.0000
  H   H841      1.0  0.13291  0.76088  0.63345  1.0000
  C   C542      1.0  0.09096  0.77728  0.61213  1.0000
  C   C543      1.0  0.10091  0.73701  0.61449  1.0000
  H   H842      1.0  0.09853  0.79884  0.61310  1.0000
  H   H843      1.0  0.12663  0.79134  0.63155  1.0000
  C   C544      1.0  0.11782  0.77001  0.62990  1.0000
  H   H844      1.0  0.33174  0.94764  0.63369  1.0000
  H   H845      1.0  0.21911  0.91912  0.59517  1.0000
  C   C545      1.0  0.31912  0.93815  0.62550  1.0000
  C   C546      1.0  0.08341  0.91492  0.65119  1.0000
  H   H846      1.0  0.28081  0.93464  0.60750  1.0000
  N   N53       1.0  0.32015  0.95754  0.61487  1.0000
  H   H847      1.0  0.29773  0.92841  0.62930  1.0000
  H   H848      1.0  0.10495  0.95754  0.63518  1.0000
  H   H849      1.0  0.34885  0.98160  0.66238  1.0000
  C   C547      1.0  0.30981  0.97771  0.61946  1.0000
  S   S216      1.0  0.24832  0.98307  0.63529  1.0000
  H   H850      1.0  0.36251  0.98046  0.61795  1.0000
  C   C548      1.0  0.13723  0.77782  0.60853  1.0000
  H   H851      1.0  0.15339  0.76944  0.61138  1.0000
  H   H852      1.0  0.12396  0.96234  0.64978  1.0000
  H   H853      1.0  0.35030  0.98494  0.60222  1.0000
  S   S217      1.0  0.36762  0.98420  0.98125  1.0000
  H   H854      1.0  0.33230  0.93248  0.98990  1.0000
  H   H855      1.0  0.98531  0.52208  0.94001  1.0000
  H   H856      1.0  0.99020  0.50965  0.91795  1.0000
  C   C549      1.0  0.58525  0.06143  0.00186  1.0000
  C   C550      1.0  0.57562  0.01482  0.00120  1.0000
  H   H857      1.0  0.56287  0.39237  0.99529  1.0000
  H   H858      1.0  0.61717  0.02403  0.01789  1.0000
  C   C551      1.0  0.61547  0.04148  0.01234  1.0000
  H   H859      1.0  0.55356  0.01086  0.99891  1.0000
  H   H860      1.0  0.94971  0.31402  0.01219  1.0000
  H   H861      1.0  0.97984  0.30043  0.08130  1.0000
  H   H862      1.0  0.57725  0.99678  0.00616  1.0000
  C   C552      1.0  0.95663  0.22542  0.00956  1.0000
  H   H863      1.0  0.89483  0.18250  0.00072  1.0000
  H   H864      1.0  0.62857  0.04440  0.00360  1.0000
  N   N54       1.0  0.58655  0.03775  0.00909  1.0000
  H   H865      1.0  0.59342  0.07919  0.00747  1.0000
  C   C553      1.0  0.97151  0.31857  0.01380  1.0000
  H   H866      1.0  0.67074  0.00988  0.01137  1.0000
  H   H867      1.0  0.96919  0.24627  0.00684  1.0000
  C   C554      1.0  0.56983  0.03320  0.02095  1.0000
  H   H868      1.0  0.92610  0.17596  0.00408  1.0000
  H   H869      1.0  0.89499  0.22808  0.99949  1.0000
  H   H870      1.0  0.97022  0.32918  0.08202  1.0000
  H   H871      1.0  0.54789  0.03043  0.01885  1.0000
  H   H872      1.0  0.56369  0.05927  0.99920  1.0000
  H   H873      1.0  0.48742  0.44231  0.01770  1.0000
  H   H874      1.0  0.57763  0.05005  0.02719  1.0000
  H   H875      1.0  0.90866  0.23206  0.01533  1.0000
  N   N55       1.0  0.93075  0.21686  0.00231  1.0000
  H   H876      1.0  0.97054  0.33506  0.03201  1.0000
  H   H877      1.0  0.96962  0.21334  0.00769  1.0000
  H   H878      1.0  0.95250  0.22414  0.02002  1.0000
  H   H879      1.0  0.62465  0.05886  0.01811  1.0000
  H   H880      1.0  0.57026  0.01533  0.02657  1.0000
  H   H881      1.0  0.90908  0.18671  0.01644  1.0000
  H   H882      1.0  0.92626  0.25464  0.00252  1.0000
  C   C555      1.0  0.91441  0.23361  0.00504  1.0000
  C   C556      1.0  0.91452  0.18925  0.00607  1.0000
  C   C557      1.0  0.65248  0.99270  0.01298  1.0000
  C   C558      1.0  0.97523  0.09679  0.38412  1.0000
  C   C559      1.0  0.90999  0.10888  0.37730  1.0000
  H   H883      1.0  0.85941  0.05162  0.36984  1.0000
  S   S218      1.0  0.96035  0.20608  0.38464  1.0000
  C   C560      1.0  0.87164  0.06726  0.37559  1.0000
  C   C561      1.0  0.90345  0.10837  0.39026  1.0000
  Fe  Fe112     1.0  0.96766  0.16888  0.38031  1.0000
  S   S219      1.0  0.93796  0.13487  0.36986  1.0000
  C   C562      1.0  0.89406  0.08813  0.37002  1.0000
  H   H884      1.0  0.89887  0.08830  0.35999  1.0000
  H   H885      1.0  0.97815  0.08725  0.39341  1.0000
  H   H886      1.0  0.97544  0.10239  0.35877  1.0000
  H   H887      1.0  0.96977  0.26367  0.38825  1.0000
  H   H888      1.0  0.97034  0.32688  0.32064  1.0000
  Fe  Fe113     1.0  0.80379  0.00228  0.39163  1.0000
  H   H889      1.0  0.95632  0.08352  0.37968  1.0000
  H   H890      1.0  0.98015  0.38424  0.32507  1.0000
  H   H891      1.0  0.96189  0.36687  0.31181  1.0000
  S   S220      1.0  0.75879  0.99808  0.39067  1.0000
  C   C563      1.0  0.86485  0.06698  0.38851  1.0000
  H   H892      1.0  0.97085  0.11478  0.38627  1.0000
  H   H893      1.0  0.81404  0.02658  0.42035  1.0000
  S   S221      1.0  0.78880  0.01286  0.51223  1.0000
  H   H894      1.0  0.82126  0.99112  0.55043  1.0000
  H   H895      1.0  0.80731  0.09081  0.42445  1.0000
  H   H896      1.0  0.87533  0.06858  0.55700  1.0000
  N   N56       1.0  0.78903  0.04874  0.42604  1.0000
  H   H897      1.0  0.78080  0.00725  0.42649  1.0000
  C   C564      1.0  0.77084  0.04862  0.43691  1.0000
  C   C565      1.0  0.81338  0.07306  0.42558  1.0000
  Fe  Fe114     1.0  0.94798  0.15553  0.51129  1.0000
  S   S222      1.0  0.90326  0.13343  0.51554  1.0000
  H   H898      1.0  0.97487  0.16308  0.55162  1.0000
  H   H899      1.0  0.76381  0.06582  0.43614  1.0000
  S   S223      1.0  0.86330  0.01004  0.51177  1.0000
  S   S224      1.0  0.95493  0.20496  0.42199  1.0000
  N   N57       1.0  0.97764  0.28244  0.40609  1.0000
  H   H900      1.0  0.75520  0.02909  0.41404  1.0000
  C   C566      1.0  0.88500  0.17554  0.55669  1.0000
  H   H901      1.0  0.94035  0.26849  0.39534  1.0000
  H   H902      1.0  0.93947  0.20019  0.55807  1.0000
  C   C567      1.0  0.77369  0.04733  0.41402  1.0000
  H   H903      1.0  0.95055  0.19371  0.46878  1.0000
  C   C568      1.0  0.95318  0.19758  0.44813  1.0000
  H   H904      1.0  0.84980  0.06330  0.54477  1.0000
  C   C569      1.0  0.86758  0.01785  0.56280  1.0000
  C   C570      1.0  0.87481  0.04438  0.51305  1.0000
  C   C571      1.0  0.85694  0.05667  0.51726  1.0000
  C   C572      1.0  0.86590  0.08396  0.51794  1.0000
  C   C573      1.0  0.89305  0.09926  0.51463  1.0000
  C   C574      1.0  0.91144  0.08709  0.51085  1.0000
  C   C575      1.0  0.90229  0.05965  0.51006  1.0000
  H   H905      1.0  0.83629  0.04527  0.52019  1.0000
  H   H906      1.0  0.85166  0.09323  0.52097  1.0000
  H   H907      1.0  0.93256  0.09878  0.50837  1.0000
  H   H908      1.0  0.91640  0.05029  0.50694  1.0000
  C   C576      1.0  0.96375  0.20210  0.46052  1.0000
  H   H909      1.0  0.88337  0.01581  0.55613  1.0000
  H   H910      1.0  0.97653  0.29474  0.42518  1.0000
  C   C577      1.0  0.97659  0.17835  0.58286  1.0000
  S   S225      1.0  0.74176  0.99749  0.48165  1.0000
  H   H911      1.0  0.80728  0.02458  0.43718  1.0000
  H   H912      1.0  0.91545  0.12414  0.39599  1.0000
  H   H913      1.0  0.83767  0.04487  0.57262  1.0000
  H   H914      1.0  0.78142  0.04898  0.44621  1.0000
  Fe  Fe115     1.0  0.97733  0.20094  0.40405  1.0000
  N   N58       1.0  0.90564  0.17896  0.54641  1.0000
  H   H915      1.0  0.87606  0.08765  0.40580  1.0000
  H   H916      1.0  0.82567  0.07450  0.43442  1.0000
  H   H917      1.0  0.87544  0.16534  0.53182  1.0000
  C   C578      1.0  0.93020  0.20217  0.54863  1.0000
  H   H918      1.0  0.92999  0.15769  0.53909  1.0000
  C   C579      1.0  0.79819  0.02582  0.42763  1.0000
  H   H919      1.0  0.87909  0.05329  0.54268  1.0000
  H   H920      1.0  0.81229  0.03811  0.56022  1.0000
  C   C580      1.0  0.75845  0.99688  0.57283  1.0000
  H   H921      1.0  0.78675  0.04722  0.40562  1.0000
  H   H922      1.0  0.93178  0.18575  0.44694  1.0000
  H   H923      1.0  0.90880  0.18534  0.52599  1.0000
  H   H924      1.0  0.82726  0.07373  0.41735  1.0000
  C   C581      1.0  0.86386  0.05463  0.54987  1.0000
  C   C582      1.0  0.89371  0.18272  0.53393  1.0000
  H   H925      1.0  0.89595  0.13766  0.54414  1.0000
  C   C583      1.0  0.91368  0.15535  0.54642  1.0000
  S   S226      1.0  0.96140  0.19948  0.51168  1.0000
  H   H926      1.0  0.87848  0.19302  0.55697  1.0000
  H   H927      1.0  0.76651  0.06432  0.41245  1.0000
  H   H928      1.0  0.75212  0.03067  0.43732  1.0000
  H   H929      1.0  0.92173  0.15125  0.55584  1.0000
  C   C584      1.0  0.83399  0.01069  0.54611  1.0000
  H   H930      1.0  0.88724  0.20027  0.53354  1.0000
  S   S227      1.0  0.83625  0.04196  0.39612  1.0000
  H   H931      1.0  0.89345  0.17268  0.56624  1.0000
  H   H932      1.0  0.92509  0.22047  0.54844  1.0000
  H   H933      1.0  0.94650  0.20502  0.54121  1.0000
  S   S228      1.0  0.76113  0.00131  0.54663  1.0000
  C   C585      1.0  0.97006  0.16350  0.57201  1.0000
  H   H934      1.0  0.76254  0.01781  0.57221  1.0000
  N   N59       1.0  0.84834  0.02858  0.55599  1.0000
  H   H935      1.0  0.86624  0.15814  0.55532  1.0000
  C   C586      1.0  0.82780  0.03104  0.56515  1.0000
  H   H936      1.0  0.94403  0.28567  0.41712  1.0000
  H   H937      1.0  0.81979  0.01849  0.54056  1.0000
  S   S229      1.0  0.98134  0.16236  0.40009  1.0000
  C   C587      1.0  0.96993  0.20855  0.43730  1.0000
  H   H938      1.0  0.85648  0.99807  0.56741  1.0000
  H   H939      1.0  0.95236  0.24334  0.40191  1.0000
  H   H940      1.0  0.81618  0.01175  0.57011  1.0000
  H   H941      1.0  0.75582  0.99382  0.59348  1.0000
  C   C588      1.0  0.95922  0.26371  0.39751  1.0000
  H   H942      1.0  0.70086  0.99580  0.46358  1.0000
  H   H943      1.0  0.95700  0.14309  0.57305  1.0000
  H   H944      1.0  0.84876  0.00776  0.53915  1.0000
  Fe  Fe116     1.0  0.81706  0.98960  0.51174  1.0000
  H   H945      1.0  0.87861  0.03073  0.57043  1.0000
  S   S230      1.0  0.97906  0.15077  0.52525  1.0000
  H   H946      1.0  0.96714  0.31509  0.39824  1.0000
  S   S231      1.0  0.97321  0.15584  0.49384  1.0000
  C   C589      1.0  0.96323  0.28096  0.41842  1.0000
  C   C590      1.0  0.88099  0.08762  0.39579  1.0000
  H   H947      1.0  0.95723  0.26083  0.42315  1.0000
  C   C591      1.0  0.98011  0.17482  0.55983  1.0000
  C   C592      1.0  0.71602  0.98958  0.45889  1.0000
  C   C593      1.0  0.73912  0.98854  0.46557  1.0000
  H   H948      1.0  0.54239  0.07753  0.75577  1.0000
  Fe  Fe117     1.0  0.81198  0.99139  0.63080  1.0000
  S   S232      1.0  0.84895  0.02551  0.62307  1.0000
  H   H949      1.0  0.89898  0.24822  0.68739  1.0000
  H   H950      1.0  0.90007  0.29335  0.68067  1.0000
  S   S233      1.0  0.94243  0.16479  0.63323  1.0000
  S   S234      1.0  0.94378  0.10545  0.65437  1.0000
  H   H951      1.0  0.96033  0.13682  0.67645  1.0000
  Fe  Fe118     1.0  0.90289  0.29671  0.74421  1.0000
  S   S235      1.0  0.86196  0.29917  0.73875  1.0000
  S   S236      1.0  0.91872  0.31679  0.76247  1.0000
  Fe  Fe119     1.0  0.90783  0.27090  0.71927  1.0000
  S   S237      1.0  0.86653  0.27116  0.71240  1.0000
  H   H952      1.0  0.91648  0.40506  0.76953  1.0000
  Fe  Fe120     1.0  0.88046  0.31235  0.71926  1.0000
  S   S238      1.0  0.87316  0.34625  0.70804  1.0000
  Fe  Fe121     1.0  0.85218  0.25806  0.73271  1.0000
  S   S239      1.0  0.81177  0.22966  0.74079  1.0000
  S   S240      1.0  0.92236  0.31292  0.72498  1.0000
  S   S241      1.0  0.89240  0.25477  0.73927  1.0000
  C   C594      1.0  0.92865  0.34243  0.67200  1.0000
  Fe  Fe122     1.0  0.67634  0.04137  0.71802  1.0000
  S   S242      1.0  0.67242  0.07681  0.70746  1.0000
  C   C595      1.0  0.50524  0.34986  0.69103  1.0000
  Fe  Fe123     1.0  0.68235  0.06711  0.74401  1.0000
  S   S243      1.0  0.67901  0.10435  0.73495  1.0000
  S   S244      1.0  0.69794  0.06692  0.76438  1.0000
  Fe  Fe124     1.0  0.64435  0.07753  0.72370  1.0000
  S   S245      1.0  0.60734  0.08997  0.71899  1.0000
  Fe  Fe125     1.0  0.70702  0.10011  0.71961  1.0000
  S   S246      1.0  0.74503  0.13049  0.71050  1.0000
  S   S247      1.0  0.64587  0.04032  0.73378  1.0000
  S   S248      1.0  0.71273  0.06456  0.72919  1.0000
  S   S249      1.0  0.67475  0.00491  0.70768  1.0000
  C   C596      1.0  0.57153  0.07226  0.71822  1.0000
  C   C597      1.0  0.55405  0.08572  0.71384  1.0000
  C   C598      1.0  0.52548  0.07262  0.71288  1.0000
  C   C599      1.0  0.51412  0.04576  0.71616  1.0000
  C   C600      1.0  0.53154  0.03225  0.72061  1.0000
  C   C601      1.0  0.56009  0.04550  0.72180  1.0000
  H   H953      1.0  0.56269  0.10646  0.71109  1.0000
  H   H954      1.0  0.51234  0.08324  0.70940  1.0000
  H   H955      1.0  0.52283  0.01150  0.72329  1.0000
  H   H956      1.0  0.57312  0.03511  0.72561  1.0000
  C   C602      1.0  0.56589  0.41652  0.72109  1.0000
  C   C603      1.0  0.55814  0.38896  0.72144  1.0000
  C   C604      1.0  0.53012  0.37273  0.72210  1.0000
  C   C605      1.0  0.50939  0.38387  0.72201  1.0000
  C   C606      1.0  0.51711  0.41137  0.72187  1.0000
  C   C607      1.0  0.54514  0.42760  0.72152  1.0000
  H   H957      1.0  0.57396  0.38013  0.72118  1.0000
  H   H958      1.0  0.52455  0.35164  0.72249  1.0000
  H   H959      1.0  0.98183  0.23037  0.67263  1.0000
  H   H960      1.0  0.55067  0.44872  0.72118  1.0000
  C   C608      1.0  0.88953  0.37931  0.71188  1.0000
  C   C609      1.0  0.91643  0.38814  0.71647  1.0000
  C   C610      1.0  0.92925  0.41475  0.71903  1.0000
  C   C611      1.0  0.91504  0.43259  0.71747  1.0000
  C   C612      1.0  0.88809  0.42374  0.71292  1.0000
  C   C613      1.0  0.87558  0.39730  0.70995  1.0000
  H   H961      1.0  0.92753  0.37460  0.71788  1.0000
  H   H962      1.0  0.95022  0.42154  0.72240  1.0000
  H   H963      1.0  0.87699  0.43732  0.71159  1.0000
  H   H964      1.0  0.85486  0.39072  0.70629  1.0000
  C   C614      1.0  0.79276  0.20332  0.73171  1.0000
  C   C615      1.0  0.80410  0.19708  0.72080  1.0000
  C   C616      1.0  0.78893  0.17505  0.71415  1.0000
  C   C617      1.0  0.76242  0.15917  0.71840  1.0000
  C   C618      1.0  0.75090  0.16572  0.72917  1.0000
  C   C619      1.0  0.76607  0.18772  0.73582  1.0000
  H   H965      1.0  0.82465  0.20904  0.71756  1.0000
  H   H966      1.0  0.79789  0.17009  0.70579  1.0000
  H   H967      1.0  0.73034  0.15381  0.73239  1.0000
  H   H968      1.0  0.75709  0.19269  0.74417  1.0000
  C   C620      1.0  0.94235  0.23241  0.66727  1.0000
  H   H969      1.0  0.79186  0.14507  0.73920  1.0000
  H   H970      1.0  0.50997  0.31058  0.70622  1.0000
  C   C621      1.0  0.93888  0.24710  0.69262  1.0000
  H   H971      1.0  0.72631  0.43187  0.71946  1.0000
  H   H972      1.0  0.64552  0.03275  0.68838  1.0000
  C   C622      1.0  0.87485  0.38164  0.74458  1.0000
  C   C623      1.0  0.96205  0.24168  0.68835  1.0000
  H   H973      1.0  0.51590  0.10806  0.75829  1.0000
  C   C624      1.0  0.69419  0.00548  0.69361  1.0000
  C   C625      1.0  0.70622  0.02854  0.68597  1.0000
  C   C626      1.0  0.71993  0.02793  0.67445  1.0000
  S   S250      1.0  0.93849  0.25727  0.70844  1.0000
  H   H974      1.0  0.70459  0.04678  0.68884  1.0000
  H   H975      1.0  0.72861  0.04581  0.66852  1.0000
  C   C627      1.0  0.87548  0.04688  0.63205  1.0000
  C   C628      1.0  0.89226  0.07077  0.62611  1.0000
  C   C629      1.0  0.91322  0.08874  0.63287  1.0000
  C   C630      1.0  0.91769  0.08295  0.64567  1.0000
  C   C631      1.0  0.90095  0.05903  0.65165  1.0000
  C   C632      1.0  0.87996  0.04098  0.64485  1.0000
  H   H976      1.0  0.88912  0.07543  0.61619  1.0000
  H   H977      1.0  0.92616  0.10694  0.62810  1.0000
  H   H978      1.0  0.90447  0.05428  0.66150  1.0000
  H   H979      1.0  0.86747  0.02241  0.64947  1.0000
  H   H980      1.0  0.68274  0.40154  0.71021  1.0000
  C   C633      1.0  0.91191  0.29872  0.77735  1.0000
  H   H981      1.0  0.95489  0.33526  0.70117  1.0000
  H   H982      1.0  0.62512  0.01469  0.70957  1.0000
  H   H983      1.0  0.94067  0.18023  0.66736  1.0000
  C   C634      1.0  0.68033  0.06527  0.77907  1.0000
  C   C635      1.0  0.65157  0.05563  0.78013  1.0000
  S   S251      1.0  0.64274  0.48082  0.74338  1.0000
  H   H984      1.0  0.63935  0.04958  0.77173  1.0000
  H   H985      1.0  0.80194  0.15281  0.76178  1.0000
  C   C636      1.0  0.91722  0.24474  0.68419  1.0000
  C   C637      1.0  0.91279  0.31200  0.78855  1.0000
  C   C638      1.0  0.91914  0.23777  0.67155  1.0000
  H   H986      1.0  0.66258  0.44708  0.71357  1.0000
  C   C639      1.0  0.96372  0.23418  0.67580  1.0000
  H   H987      1.0  0.90242  0.23632  0.66505  1.0000
  H   H988      1.0  0.75852  0.08239  0.76749  1.0000
  H   H989      1.0  0.55871  0.01136  0.69495  1.0000
  Fe  Fe126     1.0  0.96735  0.14413  0.64371  1.0000
  H   H990      1.0  0.86104  0.36009  0.76841  1.0000
  C   C640      1.0  0.92128  0.16576  0.69166  1.0000
  H   H991      1.0  0.71531  0.41454  0.73471  1.0000
  S   S252      1.0  0.48476  0.25305  0.70297  1.0000
  S   S253      1.0  0.73883  0.00501  0.65555  1.0000
  H   H992      1.0  0.91317  0.35915  0.74397  1.0000
  H   H993      1.0  0.64789  0.42612  0.73504  1.0000
  C   C641      1.0  0.69593  0.07275  0.79012  1.0000
  H   H994      1.0  0.49905  0.35823  0.78037  1.0000
  N   N60       1.0  0.49836  0.06723  0.75436  1.0000
  S   S254      1.0  0.86718  0.48200  0.73237  1.0000
  C   C642      1.0  0.52752  0.32006  0.69943  1.0000
  N   N61       1.0  0.81071  0.07032  0.64555  1.0000
  C   C643      1.0  0.81100  0.07127  0.63144  1.0000
  C   C644      1.0  0.80982  0.04413  0.65056  1.0000
  C   C645      1.0  0.78602  0.07526  0.65017  1.0000
  C   C646      1.0  0.83592  0.09039  0.65003  1.0000
  H   H995      1.0  0.81130  0.09064  0.62730  1.0000
  H   H996      1.0  0.79256  0.05593  0.62774  1.0000
  H   H997      1.0  0.82945  0.06776  0.62763  1.0000
  H   H998      1.0  0.80844  0.04212  0.66117  1.0000
  H   H999      1.0  0.79171  0.02856  0.64695  1.0000
  H   H1000     1.0  0.82816  0.03973  0.64750  1.0000
  H   H1001     1.0  0.78474  0.07402  0.66080  1.0000
  H   H1002     1.0  0.76674  0.06037  0.64684  1.0000
  H   H1003     1.0  0.78595  0.09495  0.64672  1.0000
  H   H1004     1.0  0.83641  0.09004  0.66064  1.0000
  H   H1005     1.0  0.83735  0.11045  0.64640  1.0000
  H   H1006     1.0  0.85481  0.08698  0.64665  1.0000
  H   H1007     1.0  0.93061  0.39408  0.74331  1.0000
  H   H1008     1.0  0.89554  0.31584  0.69163  1.0000
  S   S255      1.0  0.60151  0.43604  0.71936  1.0000
  H   H1009     1.0  0.49096  0.31615  0.67213  1.0000
  N   N62       1.0  0.77455  0.11683  0.75479  1.0000
  H   H1010     1.0  0.90431  0.16302  0.66766  1.0000
  H   H1011     1.0  0.97465  0.32991  0.67449  1.0000
  H   H1012     1.0  0.92746  0.14808  0.66156  1.0000
  C   C647      1.0  0.79590  0.13118  0.76371  1.0000
  H   H1013     1.0  0.91382  0.35192  0.67503  1.0000
  H   H1014     1.0  0.89869  0.23718  0.79096  1.0000
  H   H1015     1.0  0.90810  0.11324  0.69320  1.0000
  H   H1016     1.0  0.50926  0.39223  0.76233  1.0000
  H   H1017     1.0  0.78524  0.08182  0.75666  1.0000
  H   H1018     1.0  0.49721  0.35768  0.68245  1.0000
  H   H1019     1.0  0.96737  0.36191  0.68934  1.0000
  C   C648      1.0  0.71383  0.43088  0.72823  1.0000
  H   H1020     1.0  0.62380  0.03553  0.67536  1.0000
  H   H1021     1.0  0.85541  0.38329  0.74830  1.0000
  H   H1022     1.0  0.81484  0.12598  0.76284  1.0000
  Fe  Fe127     1.0  0.97517  0.17459  0.61783  1.0000
  H   H1023     1.0  0.97897  0.24350  0.69478  1.0000
  H   H1024     1.0  0.88546  0.12211  0.68222  1.0000
  N   N63       1.0  0.93585  0.32764  0.68287  1.0000
  H   H1025     1.0  0.86926  0.36387  0.73889  1.0000
  C   C649      1.0  0.62630  0.03682  0.68587  1.0000
  H   H1026     1.0  0.59539  0.42734  0.78791  1.0000
  N   N64       1.0  0.89381  0.38047  0.75500  1.0000
  H   H1027     1.0  0.88435  0.39899  0.73789  1.0000
  H   H1028     1.0  0.62957  0.05746  0.68811  1.0000
  H   H1029     1.0  0.67195  0.38544  0.72570  1.0000
  H   H1030     1.0  0.93268  0.37444  0.75730  1.0000
  H   H1031     1.0  0.51003  0.07061  0.77406  1.0000
  H   H1032     1.0  0.66938  0.41157  0.74399  1.0000
  C   C650      1.0  0.58696  0.44033  0.79310  1.0000
  H   H1033     1.0  0.93616  0.18622  0.69074  1.0000
  C   C651      1.0  0.91059  0.30717  0.68804  1.0000
  C   C652      1.0  0.72236  0.00444  0.67051  1.0000
  C   C653      1.0  0.68411  0.44919  0.71624  1.0000
  H   H1034     1.0  0.50264  0.10196  0.74246  1.0000
  H   H1035     1.0  0.94721  0.35816  0.66787  1.0000
  H   H1036     1.0  0.72394  0.44940  0.73310  1.0000
  H   H1037     1.0  0.51691  0.35020  0.75947  1.0000
  H   H1038     1.0  0.67930  0.44658  0.74185  1.0000
  H   H1039     1.0  0.48761  0.34090  0.69784  1.0000
  H   H1040     1.0  0.69608  0.45023  0.70731  1.0000
  H   H1041     1.0  0.89368  0.35634  0.77197  1.0000
  H   H1042     1.0  0.53619  0.35215  0.67017  1.0000
  H   H1043     1.0  0.52956  0.07318  0.73988  1.0000
  C   C654      1.0  0.67180  0.40230  0.71922  1.0000
  H   H1044     1.0  0.94617  0.30093  0.67112  1.0000
  H   H1045     1.0  0.97089  0.16884  0.68264  1.0000
  C   C655      1.0  0.87979  0.35811  0.76409  1.0000
  C   C656      1.0  0.95521  0.14875  0.68370  1.0000
  H   H1046     1.0  0.50733  0.29392  0.67867  1.0000
  C   C657      1.0  0.52491  0.06566  0.75000  1.0000
  H   H1047     1.0  0.78836  0.12655  0.77380  1.0000
  S   S256      1.0  0.96073  0.16365  0.59764  1.0000
  H   H1048     1.0  0.91091  0.10956  0.67642  1.0000
  H   H1049     1.0  0.48740  0.38686  0.74868  1.0000
  H   H1050     1.0  0.87343  0.33921  0.75929  1.0000
  C   C658      1.0  0.54238  0.34389  0.67915  1.0000
  Fe  Fe128     1.0  0.96869  0.20072  0.64285  1.0000
  H   H1051     1.0  0.57311  0.02406  0.67935  1.0000
  H   H1052     1.0  0.96123  0.30393  0.68661  1.0000
  H   H1053     1.0  0.58897  0.00658  0.71243  1.0000
  H   H1054     1.0  0.91888  0.32932  0.66423  1.0000
  H   H1055     1.0  0.57976  0.04517  0.69251  1.0000
  N   N65       1.0  0.92699  0.14936  0.68202  1.0000
  C   C659      1.0  0.78523  0.12356  0.74153  1.0000
  H   H1056     1.0  0.63287  0.48154  0.79300  1.0000
  H   H1057     1.0  0.81609  0.26777  0.78014  1.0000
  N   N66       1.0  0.51834  0.33071  0.68768  1.0000
  H   H1058     1.0  0.92282  0.15792  0.70155  1.0000
  H   H1059     1.0  0.76922  0.11386  0.73450  1.0000
  S   S257      1.0  0.93155  0.46540  0.72163  1.0000
  H   H1060     1.0  0.80328  0.11737  0.73987  1.0000
  C   C660      1.0  0.49916  0.09467  0.75267  1.0000
  H   H1061     1.0  0.74053  0.11858  0.76605  1.0000
  C   C661      1.0  0.76716  0.08828  0.75763  1.0000
  H   H1062     1.0  0.75106  0.07691  0.75105  1.0000
  C   C662      1.0  0.90228  0.25803  0.79031  1.0000
  H   H1063     1.0  0.73361  0.11449  0.74943  1.0000
  C   C663      1.0  0.74986  0.12433  0.75630  1.0000
  N   N67       1.0  0.60213  0.01825  0.69292  1.0000
  H   H1064     1.0  0.88380  0.40861  0.76580  1.0000
  C   C664      1.0  0.66965  0.42787  0.73705  1.0000
  N   N68       1.0  0.68487  0.42752  0.72519  1.0000
  H   H1065     1.0  0.64992  0.39937  0.71684  1.0000
  C   C665      1.0  0.59818  0.99125  0.68940  1.0000
  H   H1066     1.0  0.77612  0.21529  0.79135  1.0000
  H   H1067     1.0  0.90030  0.16700  0.69059  1.0000
  H   H1068     1.0  0.52467  0.04506  0.75055  1.0000
  H   H1069     1.0  0.75478  0.14583  0.75467  1.0000
  C   C666      1.0  0.92466  0.16060  0.66910  1.0000
  S   S258      1.0  0.94397  0.22424  0.65116  1.0000
  C   C667      1.0  0.49518  0.34196  0.75636  1.0000
  H   H1070     1.0  0.91544  0.29540  0.69611  1.0000
  C   C668      1.0  0.90633  0.27162  0.77825  1.0000
  H   H1071     1.0  0.90596  0.26127  0.76970  1.0000
  C   C669      1.0  0.60689  0.02005  0.70677  1.0000
  C   C670      1.0  0.90692  0.12237  0.68356  1.0000
  C   C671      1.0  0.91864  0.37693  0.74964  1.0000
  H   H1072     1.0  0.53644  0.30471  0.69734  1.0000
  H   H1073     1.0  0.61641  0.04468  0.79300  1.0000
  C   C672      1.0  0.90201  0.40521  0.76166  1.0000
  H   H1074     1.0  0.69311  0.46834  0.72063  1.0000
  H   H1075     1.0  0.50131  0.42028  0.72181  1.0000
  H   H1076     1.0  0.58673  0.45667  0.78622  1.0000
  H   H1077     1.0  0.49510  0.34505  0.74578  1.0000
  C   C673      1.0  0.63862  0.05284  0.79221  1.0000
  H   H1078     1.0  0.91748  0.33300  0.78796  1.0000
  H   H1079     1.0  0.61062  0.04033  0.70973  1.0000
  H   H1080     1.0  0.49428  0.22490  0.68256  1.0000
  H   H1081     1.0  0.84700  0.26010  0.78229  1.0000
  S   S259      1.0  0.77151  0.99560  0.62558  1.0000
  H   H1082     1.0  0.81653  0.23602  0.77653  1.0000
  H   H1083     1.0  0.93403  0.35477  0.69672  1.0000
  H   H1084     1.0  0.52003  0.36692  0.69565  1.0000
  H   H1085     1.0  0.48795  0.32036  0.75865  1.0000
  H   H1086     1.0  0.91259  0.42244  0.75498  1.0000
  C   C674      1.0  0.57734  0.02495  0.68976  1.0000
  C   C675      1.0  0.94863  0.34572  0.69296  1.0000
  H   H1087     1.0  0.49270  0.03755  0.76954  1.0000
  C   C676      1.0  0.82412  0.25193  0.78333  1.0000
  C   C677      1.0  0.48768  0.38279  0.75922  1.0000
  C   C678      1.0  0.49829  0.30900  0.68110  1.0000
  H   H1088     1.0  0.59456  0.98908  0.67899  1.0000
  H   H1089     1.0  0.95772  0.14012  0.69329  1.0000
  C   C679      1.0  0.49353  0.05823  0.76798  1.0000
  C   C680      1.0  0.95536  0.31513  0.67856  1.0000
  H   H1090     1.0  0.54333  0.33569  0.70445  1.0000
  H   H1091     1.0  0.55793  0.36040  0.68382  1.0000
  H   H1092     1.0  0.55277  0.32998  0.67646  1.0000
  Fe  Fe129     1.0  0.62348  0.47904  0.72409  1.0000
  H   H1093     1.0  0.71818  0.08005  0.78943  1.0000
  C   C681      1.0  0.78512  0.23177  0.79770  1.0000
  S   S260      1.0  0.51976  0.35659  0.95513  1.0000
  S   S261      1.0  0.49991  0.04331  0.97897  1.0000
  Fe  Fe130     1.0  0.64769  0.08284  0.96029  1.0000
  S   S262      1.0  0.65157  0.04412  0.95669  1.0000
  S   S263      1.0  0.61515  0.09641  0.95097  1.0000
  Fe  Fe131     1.0  0.70107  0.10085  0.97565  1.0000
  S   S264      1.0  0.70863  0.06275  0.97340  1.0000
  H   H1094     1.0  0.55639  0.21843  0.83076  1.0000
  Fe  Fe132     1.0  0.69627  0.06707  0.95289  1.0000
  S   S265      1.0  0.72216  0.06958  0.93515  1.0000
  Fe  Fe133     1.0  0.66270  0.04267  0.97762  1.0000
  S   S266      1.0  0.69139  0.10589  0.95510  1.0000
  Fe  Fe134     1.0  0.87675  0.25000  0.97426  1.0000
  S   S267      1.0  0.91959  0.25999  0.96590  1.0000
  H   H1095     1.0  0.80360  0.15195  0.85462  1.0000
  Fe  Fe135     1.0  0.88415  0.30824  0.97484  1.0000
  S   S268      1.0  0.92725  0.32117  0.96699  1.0000
  S   S269      1.0  0.86299  0.33788  0.97753  1.0000
  Fe  Fe136     1.0  0.90959  0.28983  0.95311  1.0000
  S   S270      1.0  0.92028  0.30487  0.93248  1.0000
  H   H1096     1.0  0.58348  0.09926  0.82595  1.0000
  S   S271      1.0  0.86606  0.27804  0.96039  1.0000
  H   H1097     1.0  0.60407  0.47644  0.81926  1.0000
  H   H1098     1.0  0.51103  0.40981  0.85808  1.0000
  Fe  Fe137     1.0  0.67253  0.06537  0.86467  1.0000
  S   S272      1.0  0.68975  0.10839  0.86739  1.0000
  S   S273      1.0  0.66416  0.03695  0.88205  1.0000
  Fe  Fe138     1.0  0.65829  0.07395  0.83628  1.0000
  S   S274      1.0  0.67286  0.11775  0.83747  1.0000
  S   S275      1.0  0.63720  0.05505  0.81836  1.0000
  Fe  Fe139     1.0  0.70839  0.11142  0.84784  1.0000
  S   S276      1.0  0.75232  0.13481  0.84259  1.0000
  Fe  Fe140     1.0  0.65246  0.10997  0.85691  1.0000
  S   S277      1.0  0.62475  0.12701  0.86705  1.0000
  S   S278      1.0  0.69472  0.06782  0.84589  1.0000
  S   S279      1.0  0.63439  0.06678  0.85486  1.0000
  S   S280      1.0  0.52853  0.13049  0.83069  1.0000
  Fe  Fe141     1.0  0.88628  0.27219  0.83361  1.0000
  S   S281      1.0  0.86339  0.30025  0.83058  1.0000
  S   S282      1.0  0.89643  0.25335  0.81644  1.0000
  Fe  Fe142     1.0  0.87715  0.26811  0.86319  1.0000
  S   S283      1.0  0.85306  0.29547  0.86189  1.0000
  S   S284      1.0  0.87770  0.24482  0.88187  1.0000
  Fe  Fe143     1.0  0.83298  0.27372  0.84484  1.0000
  S   S285      1.0  0.78734  0.25791  0.84130  1.0000
  Fe  Fe144     1.0  0.88621  0.31878  0.84780  1.0000
  S   S286      1.0  0.90747  0.36213  0.84878  1.0000
  S   S287      1.0  0.85467  0.24472  0.84710  1.0000
  S   S288      1.0  0.91177  0.29259  0.84995  1.0000
  S   S289      1.0  0.82872  0.42811  0.85111  1.0000
  C   C682      1.0  0.90292  0.27127  0.80151  1.0000
  H   H1099     1.0  0.60731  0.08226  0.82830  1.0000
  H   H1100     1.0  0.90878  0.30872  0.80914  1.0000
  C   C683      1.0  0.88432  0.37878  0.85073  1.0000
  C   C684      1.0  0.89371  0.40351  0.85581  1.0000
  C   C685      1.0  0.87608  0.41801  0.85662  1.0000
  C   C686      1.0  0.84932  0.40827  0.85196  1.0000
  C   C687      1.0  0.83964  0.38320  0.84719  1.0000
  C   C688      1.0  0.85708  0.36833  0.84667  1.0000
  H   H1101     1.0  0.91462  0.41138  0.85917  1.0000
  H   H1102     1.0  0.88319  0.43663  0.86094  1.0000
  H   H1103     1.0  0.81883  0.37547  0.84369  1.0000
  H   H1104     1.0  0.84971  0.34913  0.84281  1.0000
  C   C689      1.0  0.65427  0.06016  0.80328  1.0000
  H   H1105     1.0  0.88445  0.47709  0.82266  1.0000
  C   C690      1.0  0.80400  0.15695  0.93679  1.0000
  H   H1106     1.0  0.69527  0.07608  0.81059  1.0000
  H   H1107     1.0  0.93215  0.45684  0.80258  1.0000
  C   C691      1.0  0.75975  0.16877  0.84090  1.0000
  C   C692      1.0  0.78489  0.18441  0.83525  1.0000
  C   C693      1.0  0.79278  0.21176  0.83495  1.0000
  C   C694      1.0  0.77572  0.22368  0.84034  1.0000
  C   C695      1.0  0.74991  0.20805  0.84543  1.0000
  C   C696      1.0  0.74194  0.18054  0.84576  1.0000
  H   H1108     1.0  0.79859  0.17535  0.83138  1.0000
  H   H1109     1.0  0.81235  0.22362  0.83077  1.0000
  H   H1110     1.0  0.73652  0.21720  0.84951  1.0000
  H   H1111     1.0  0.72240  0.16849  0.85008  1.0000
  C   C697      1.0  0.59799  0.12932  0.85731  1.0000
  C   C698      1.0  0.60388  0.14233  0.84524  1.0000
  C   C699      1.0  0.58233  0.14339  0.83731  1.0000
  C   C700      1.0  0.55489  0.13069  0.84126  1.0000
  C   C701      1.0  0.54894  0.11777  0.85336  1.0000
  C   C702      1.0  0.57053  0.11737  0.86145  1.0000
  H   H1112     1.0  0.62507  0.15161  0.84203  1.0000
  H   H1113     1.0  0.58698  0.15341  0.82795  1.0000
  H   H1114     1.0  0.52774  0.10802  0.85646  1.0000
  H   H1115     1.0  0.56594  0.10728  0.87079  1.0000
  C   C703      1.0  0.56628  0.42924  0.84191  1.0000
  C   C704      1.0  0.54190  0.41293  0.83670  1.0000
  C   C705      1.0  0.53731  0.38614  0.83590  1.0000
  C   C706      1.0  0.55714  0.37564  0.84025  1.0000
  C   C707      1.0  0.58203  0.39216  0.84501  1.0000
  C   C708      1.0  0.58651  0.41895  0.84595  1.0000
  H   H1116     1.0  0.52633  0.42092  0.83347  1.0000
  H   H1117     1.0  0.51847  0.37364  0.83184  1.0000
  H   H1118     1.0  0.59742  0.38405  0.84837  1.0000
  H   H1119     1.0  0.60532  0.43143  0.85009  1.0000
  C   C709      1.0  0.88328  0.37153  0.97580  1.0000
  C   C710      1.0  0.87045  0.39052  0.97475  1.0000
  C   C711      1.0  0.88628  0.41735  0.97285  1.0000
  C   C712      1.0  0.91503  0.42522  0.97190  1.0000
  C   C713      1.0  0.92778  0.40626  0.97298  1.0000
  C   C714      1.0  0.91202  0.37961  0.97508  1.0000
  H   H1120     1.0  0.81723  0.13397  0.86594  1.0000
  H   H1121     1.0  0.87625  0.43187  0.97209  1.0000
  S   S290      1.0  0.48314  0.28126  0.83573  1.0000
  H   H1122     1.0  0.49203  0.16112  0.82834  1.0000
  C   C715      1.0  0.90718  0.28766  0.91867  1.0000
  C   C716      1.0  0.91174  0.30170  0.90675  1.0000
  C   C717      1.0  0.90219  0.28888  0.89547  1.0000
  C   C718      1.0  0.88846  0.26176  0.89597  1.0000
  C   C719      1.0  0.88372  0.24769  0.90790  1.0000
  C   C720      1.0  0.89280  0.26062  0.91924  1.0000
  H   H1123     1.0  0.92299  0.32259  0.90620  1.0000
  H   H1124     1.0  0.90607  0.29991  0.88634  1.0000
  H   H1125     1.0  0.87323  0.22669  0.90836  1.0000
  H   H1126     1.0  0.88931  0.24962  0.92836  1.0000
  C   C721      1.0  0.76257  0.15722  0.98228  1.0000
  C   C722      1.0  0.81947  0.18766  0.97952  1.0000
  H   H1127     1.0  0.61247  0.41501  0.80871  1.0000
  H   H1128     1.0  0.48922  0.22273  0.84077  1.0000
  N   N69       1.0  0.81553  0.24218  0.79664  1.0000
  H   H1129     1.0  0.53516  0.20428  0.85230  1.0000
  C   C723      1.0  0.70521  0.06132  0.92049  1.0000
  C   C724      1.0  0.67954  0.04139  0.92002  1.0000
  C   C725      1.0  0.66727  0.03404  0.90816  1.0000
  C   C726      1.0  0.68017  0.04701  0.89672  1.0000
  C   C727      1.0  0.70551  0.06743  0.89721  1.0000
  C   C728      1.0  0.71816  0.07428  0.90904  1.0000
  H   H1130     1.0  0.66957  0.03100  0.92875  1.0000
  H   H1131     1.0  0.64780  0.01807  0.90785  1.0000
  H   H1132     1.0  0.71575  0.07732  0.88844  1.0000
  H   H1133     1.0  0.73820  0.08941  0.90929  1.0000
  C   C729      1.0  0.53182  0.05888  0.97122  1.0000
  C   C730      1.0  0.55202  0.04713  0.97243  1.0000
  C   C731      1.0  0.57779  0.05884  0.96638  1.0000
  C   C732      1.0  0.58328  0.08219  0.95890  1.0000
  C   C733      1.0  0.56302  0.09389  0.95756  1.0000
  C   C734      1.0  0.53737  0.08239  0.96385  1.0000
  H   H1134     1.0  0.51073  0.08011  0.93834  1.0000
  H   H1135     1.0  0.59326  0.04958  0.96732  1.0000
  H   H1136     1.0  0.51116  0.03548  0.91257  1.0000
  H   H1137     1.0  0.52201  0.09180  0.96308  1.0000
  C   C735      1.0  0.58411  0.41570  0.97876  1.0000
  H   H1138     1.0  0.48487  0.18696  0.81922  1.0000
  C   C736      1.0  0.54240  0.37711  0.97792  1.0000
  C   C737      1.0  0.54314  0.37985  0.96456  1.0000
  C   C738      1.0  0.56409  0.40080  0.95838  1.0000
  C   C739      1.0  0.58427  0.41888  0.96544  1.0000
  H   H1139     1.0  0.60101  0.06528  0.90058  1.0000
  H   H1140     1.0  0.52610  0.36136  0.98281  1.0000
  H   H1141     1.0  0.56479  0.40308  0.94806  1.0000
  H   H1142     1.0  0.60031  0.43498  0.96057  1.0000
  S   S291      1.0  0.72684  0.13901  0.98441  1.0000
  H   H1143     1.0  0.53540  0.21054  0.81681  1.0000
  C   C740      1.0  0.53788  0.20369  0.82678  1.0000
  C   C741      1.0  0.77359  0.12133  0.95020  1.0000
  C   C742      1.0  0.92562  0.45888  0.82804  1.0000
  C   C743      1.0  0.51702  0.19021  0.84773  1.0000
  N   N70       1.0  0.90385  0.44918  0.81851  1.0000
  C   C744      1.0  0.54124  0.29075  0.96041  1.0000
  N   N71       1.0  0.50307  0.04117  0.93211  1.0000
  C   C745      1.0  0.60344  0.42831  0.81324  1.0000
  H   H1144     1.0  0.57572  0.29010  0.98802  1.0000
  C   C746      1.0  0.56560  0.28258  0.97895  1.0000
  N   N72       1.0  0.60357  0.45048  0.80440  1.0000
  H   H1145     1.0  0.78364  0.17168  0.95685  1.0000
  H   H1146     1.0  0.67402  0.13169  0.90473  1.0000
  C   C747      1.0  0.53442  0.30658  0.98069  1.0000
  H   H1147     1.0  0.91420  0.41468  0.81570  1.0000
  H   H1148     1.0  0.53658  0.02622  0.93155  1.0000
  S   S292      1.0  0.63589  0.00413  0.98850  1.0000
  N   N73       1.0  0.77552  0.14479  0.94187  1.0000
  H   H1149     1.0  0.75280  0.11241  0.95477  1.0000
  N   N74       1.0  0.56465  0.05764  0.82971  1.0000
  H   H1150     1.0  0.52136  0.39386  0.89775  1.0000
  C   C748      1.0  0.48891  0.18029  0.82901  1.0000
  C   C749      1.0  0.59162  0.46763  0.81093  1.0000
  H   H1151     1.0  0.58102  0.27828  0.97291  1.0000
  H   H1152     1.0  0.76276  0.47051  0.98429  1.0000
  H   H1153     1.0  0.95002  0.41223  0.97242  1.0000
  H   H1154     1.0  0.58727  0.01790  0.99198  1.0000
  H   H1155     1.0  0.53367  0.07581  0.82856  1.0000
  N   N75       1.0  0.68830  0.48296  0.90507  1.0000
  C   C750      1.0  0.52973  0.04018  0.93681  1.0000
  H   H1156     1.0  0.54390  0.31554  0.98962  1.0000
  C   C751      1.0  0.54642  0.42554  0.87721  1.0000
  H   H1157     1.0  0.94444  0.45446  0.82560  1.0000
  H   H1158     1.0  0.86618  0.20321  0.86510  1.0000
  H   H1159     1.0  0.84931  0.27176  0.80504  1.0000
  H   H1160     1.0  0.86294  0.17012  0.86213  1.0000
  H   H1161     1.0  0.78760  0.14238  0.87004  1.0000
  H   H1162     1.0  0.52343  0.27228  0.96247  1.0000
  H   H1163     1.0  0.92120  0.48369  0.80606  1.0000
  H   H1164     1.0  0.76087  0.12224  0.92548  1.0000
  H   H1165     1.0  0.56121  0.42338  0.88454  1.0000
  H   H1166     1.0  0.58906  0.08739  0.84172  1.0000
  N   N76       1.0  0.82626  0.17462  0.86971  1.0000
  C   C752      1.0  0.81209  0.19412  0.86897  1.0000
  C   C753      1.0  0.83332  0.17042  0.88313  1.0000
  C   C754      1.0  0.85175  0.18435  0.86179  1.0000
  C   C755      1.0  0.80790  0.14961  0.86493  1.0000
  H   H1167     1.0  0.79256  0.18731  0.87467  1.0000
  H   H1168     1.0  0.80673  0.19805  0.85901  1.0000
  H   H1169     1.0  0.82528  0.21326  0.87253  1.0000
  H   H1170     1.0  0.84434  0.15606  0.88405  1.0000
  H   H1171     1.0  0.84709  0.18909  0.88696  1.0000
  H   H1172     1.0  0.81454  0.16295  0.88934  1.0000
  H   H1173     1.0  0.84719  0.18787  0.85161  1.0000
  C   C756      1.0  0.50168  0.40625  0.86783  1.0000
  C   C757      1.0  0.77166  0.18480  0.98213  1.0000
  H   H1174     1.0  0.68880  0.48028  0.92565  1.0000
  C   C758      1.0  0.87938  0.45559  0.82212  1.0000
  N   N77       1.0  0.51300  0.19981  0.83467  1.0000
  Fe  Fe145     1.0  0.63203  0.47708  0.97787  1.0000
  S   S293      1.0  0.55049  0.34183  0.84037  1.0000
  H   H1175     1.0  0.89715  0.36961  0.94875  1.0000
  H   H1176     1.0  0.77722  0.10580  0.94472  1.0000
  H   H1177     1.0  0.49216  0.05401  0.94965  1.0000
  N   N78       1.0  0.52102  0.40221  0.87746  1.0000
  H   H1178     1.0  0.87050  0.38745  0.93363  1.0000
  Fe  Fe146     1.0  0.85314  0.47065  0.85326  1.0000
  H   H1179     1.0  0.87100  0.44633  0.83163  1.0000
  H   H1180     1.0  0.55900  0.06788  0.81007  1.0000
  H   H1181     1.0  0.54270  0.37522  0.88153  1.0000
  S   S294      1.0  0.69680  0.46439  0.86470  1.0000
  H   H1182     1.0  0.57038  0.45659  0.81462  1.0000
  S   S295      1.0  0.65612  0.08074  0.98123  1.0000
  C   C759      1.0  0.58707  0.08274  0.83150  1.0000
  H   H1183     1.0  0.55357  0.01704  0.83618  1.0000
  H   H1184     1.0  0.58990  0.03421  0.83431  1.0000
  H   H1185     1.0  0.92812  0.45160  0.92627  1.0000
  H   H1186     1.0  0.52829  0.03373  0.94713  1.0000
  Fe  Fe147     1.0  0.93297  0.29038  0.98070  1.0000
  H   H1187     1.0  0.54235  0.18513  0.82631  1.0000
  N   N79       1.0  0.63547  0.09964  0.90460  1.0000
  H   H1188     1.0  0.65205  0.07743  0.91781  1.0000
  H   H1189     1.0  0.74825  0.45640  0.86049  1.0000
  H   H1190     1.0  0.64500  0.47513  0.80842  1.0000
  H   H1191     1.0  0.51716  0.28811  0.98344  1.0000
  H   H1192     1.0  0.91082  0.35630  0.93606  1.0000
  S   S296      1.0  0.49431  0.30194  0.86478  1.0000
  H   H1193     1.0  0.58255  0.05037  0.81249  1.0000
  C   C760      1.0  0.56314  0.39475  0.98498  1.0000
  C   C761      1.0  0.57753  0.32657  0.96920  1.0000
  S   S297      1.0  0.61046  0.43713  0.98769  1.0000
  C   C762      1.0  0.53833  0.05969  0.83403  1.0000
  C   C763      1.0  0.68299  0.07050  0.80215  1.0000
  H   H1194     1.0  0.96512  0.48077  0.91202  1.0000
  H   H1195     1.0  0.84259  0.32278  0.95157  1.0000
  H   H1196     1.0  0.84653  0.35670  0.95176  1.0000
  H   H1197     1.0  0.97279  0.46279  0.94643  1.0000
  H   H1198     1.0  0.82360  0.33630  0.94056  1.0000
  C   C764      1.0  0.84380  0.34040  0.94531  1.0000
  H   H1199     1.0  0.89263  0.33546  0.94925  1.0000
  H   H1200     1.0  0.86261  0.30658  0.93368  1.0000
  C   C765      1.0  0.89302  0.35244  0.94276  1.0000
  H   H1201     1.0  0.84302  0.31937  0.92262  1.0000
  N   N80       1.0  0.86676  0.34686  0.93592  1.0000
  C   C766      1.0  0.79989  0.19997  0.98061  1.0000
  H   H1202     1.0  0.53323  0.30490  0.95509  1.0000
  H   H1203     1.0  0.84814  0.36663  0.92242  1.0000
  C   C767      1.0  0.86759  0.37021  0.92780  1.0000
  C   C768      1.0  0.86274  0.32440  0.92786  1.0000
  H   H1204     1.0  0.52534  0.32024  0.97576  1.0000
  H   H1205     1.0  0.77808  0.22430  0.80767  1.0000
  H   H1206     1.0  0.78893  0.12619  0.95795  1.0000
  H   H1207     1.0  0.74777  0.15490  0.95415  1.0000
  H   H1208     1.0  0.87973  0.32866  0.92066  1.0000
  C   C769      1.0  0.66277  0.11492  0.89891  1.0000
  H   H1209     1.0  0.88485  0.37561  0.92067  1.0000
  H   H1210     1.0  0.77554  0.12373  0.98159  1.0000
  H   H1211     1.0  0.54186  0.44368  0.87895  1.0000
  H   H1212     1.0  0.59348  0.32363  0.96298  1.0000
  S   S298      1.0  0.57062  0.46216  0.84375  1.0000
  C   C770      1.0  0.81041  0.16006  0.97982  1.0000
  H   H1213     1.0  0.62829  0.13387  0.91074  1.0000
  H   H1214     1.0  0.48251  0.38872  0.86761  1.0000
  H   H1215     1.0  0.91730  0.47880  0.92929  1.0000
  C   C771      1.0  0.57012  0.03627  0.83730  1.0000
  H   H1216     1.0  0.54624  0.05980  0.93579  1.0000
  C   C772      1.0  0.91423  0.46191  0.80583  1.0000
  N   N81       1.0  0.55477  0.30162  0.97231  1.0000
  H   H1217     1.0  0.94982  0.23981  0.98536  1.0000
  H   H1218     1.0  0.80650  0.22115  0.98052  1.0000
  C   C773      1.0  0.93143  0.46831  0.93249  1.0000
  H   H1219     1.0  0.61942  0.08385  0.88668  1.0000
  Fe  Fe148     1.0  0.50593  0.31880  0.84486  1.0000
  S   S299      1.0  0.89059  0.27915  0.98961  1.0000
  H   H1220     1.0  0.49150  0.19278  0.97775  1.0000
  H   H1221     1.0  0.92226  0.36545  0.97638  1.0000
  H   H1222     1.0  0.63399  0.06387  0.89629  1.0000
  H   H1223     1.0  0.61537  0.12414  0.89518  1.0000
  C   C774      1.0  0.90795  0.29829  0.80057  1.0000
  C   C775      1.0  0.61844  0.11659  0.90497  1.0000
  H   H1224     1.0  0.65269  0.44788  0.90494  1.0000
  H   H1225     1.0  0.52171  0.06927  0.91663  1.0000
  H   H1226     1.0  0.87988  0.41239  0.81096  1.0000
  H   H1227     1.0  0.91823  0.21335  0.98272  1.0000
  H   H1228     1.0  0.59774  0.10575  0.90926  1.0000
  H   H1229     1.0  0.81912  0.28056  0.80253  1.0000
  C   C776      1.0  0.93733  0.21923  0.98850  1.0000
  C   C777      1.0  0.62180  0.07718  0.89672  1.0000
  C   C778      1.0  0.63893  0.08993  0.91773  1.0000
  C   C779      1.0  0.56296  0.05201  0.81605  1.0000
  C   C780      1.0  0.63221  0.46567  0.80027  1.0000
  H   H1230     1.0  0.56520  0.42884  0.79588  1.0000
  S   S300      1.0  0.93574  0.45837  0.96897  1.0000
  C   C781      1.0  0.49500  0.06007  0.93930  1.0000
  H   H1231     1.0  0.64881  0.10635  0.92401  1.0000
  H   H1232     1.0  0.61880  0.07801  0.92231  1.0000
  H   H1233     1.0  0.67583  0.10248  0.89811  1.0000
  S   S301      1.0  0.85540  0.20564  0.97793  1.0000
  H   H1234     1.0  0.84823  0.38449  0.97543  1.0000
  H   H1235     1.0  0.84944  0.22836  0.79993  1.0000
  H   H1236     1.0  0.53888  0.06401  0.84430  1.0000
  H   H1237     1.0  0.48812  0.38137  0.89060  1.0000
  H   H1238     1.0  0.56735  0.11210  0.95186  1.0000
  H   H1239     1.0  0.66077  0.12305  0.88912  1.0000
  C   C782      1.0  0.89615  0.42041  0.81809  1.0000
  H   H1240     1.0  0.75674  0.19452  0.98321  1.0000
  H   H1241     1.0  0.53753  0.38114  0.86487  1.0000
  C   C783      1.0  0.75624  0.13695  0.93119  1.0000
  H   H1242     1.0  0.81904  0.16315  0.94467  1.0000
  H   H1243     1.0  0.61554  0.43533  0.82194  1.0000
  H   H1244     1.0  0.50930  0.36087  0.87475  1.0000
  H   H1245     1.0  0.80626  0.17475  0.93049  1.0000
  H   H1246     1.0  0.92491  0.46002  0.94238  1.0000
  H   H1247     1.0  0.56986  0.34118  0.96407  1.0000
  H   H1248     1.0  0.54620  0.03321  0.81435  1.0000
  C   C784      1.0  0.78215  0.14493  0.98114  1.0000
  H   H1249     1.0  0.57164  0.04001  0.84766  1.0000
  H   H1250     1.0  0.54870  0.26360  0.98138  1.0000
  C   C785      1.0  0.75263  0.47666  0.86269  1.0000
  H   H1251     1.0  0.52081  0.04115  0.83280  1.0000
  H   H1252     1.0  0.52552  0.24006  0.83976  1.0000
  H   H1253     1.0  0.91855  0.44960  0.83773  1.0000
  H   H1254     1.0  0.75712  0.15404  0.92465  1.0000
  H   H1255     1.0  0.81017  0.14300  0.93118  1.0000
  H   H1256     1.0  0.73460  0.12764  0.93475  1.0000
  H   H1257     1.0  0.76777  0.18109  0.94318  1.0000
  C   C786      1.0  0.76831  0.16392  0.94931  1.0000
  C   C787      1.0  0.50568  0.04956  0.91838  1.0000
  H   H1258     1.0  0.48602  0.05096  0.91462  1.0000
  H   H1259     1.0  0.68299  0.44324  0.91149  1.0000
  Fe  Fe149     1.0  0.48613  0.10361  0.83661  1.0000
  H   H1260     1.0  0.55717  0.42887  0.86779  1.0000
  H   H1261     1.0  0.54755  0.02869  0.97791  1.0000
  C   C788      1.0  0.67554  0.45433  0.90397  1.0000
  H   H1262     1.0  0.77611  0.24721  0.79505  1.0000
  C   C789      1.0  0.50792  0.39814  0.89027  1.0000
  H   H1263     1.0  0.55578  0.28625  0.95392  1.0000
  H   H1264     1.0  0.50320  0.41570  0.89294  1.0000
  C   C790      1.0  0.52799  0.37887  0.87455  1.0000
  H   H1265     1.0  0.82538  0.15030  0.97914  1.0000
  H   H1266     1.0  0.86253  0.44872  0.81514  1.0000
  H   H1267     1.0  0.58214  0.41627  0.81648  1.0000
  H   H1268     1.0  0.49874  0.18740  0.85398  1.0000
  C   C791      1.0  0.50818  0.22503  0.83517  1.0000
  S   S302      1.0  0.97341  0.29462  0.99105  1.0000
  H   H1269     1.0  0.49556  0.42342  0.86981  1.0000
  H   H1270     1.0  0.82037  0.21307  0.81027  1.0000
  H   H1271     1.0  0.52034  0.17099  0.84769  1.0000
  H   H1272     1.0  0.64239  0.45308  0.79591  1.0000
  H   H1273     1.0  0.88793  0.41038  0.82752  1.0000
  H   H1274     1.0  0.59762  0.06536  0.99283  1.0000
  H   H1275     1.0  0.97651  0.45465  0.93033  1.0000
  C   C792      1.0  0.97836  0.47123  0.93646  1.0000
  C   C793      1.0  0.82653  0.22108  0.80034  1.0000
  H   H1276     1.0  0.68039  0.44838  0.89450  1.0000
  H   H1277     1.0  0.89798  0.45616  0.79848  1.0000
  S   S303      1.0  0.65965  0.48570  0.96041  1.0000
  H   H1278     1.0  0.93176  0.48056  0.82868  1.0000
  C   C794      1.0  0.82639  0.26397  0.80523  1.0000
  H   H1279     1.0  0.72718  0.48090  0.91138  1.0000
  H   H1280     1.0  0.50554  0.23311  0.82546  1.0000
  H   H1281     1.0  0.59052  0.48408  0.80443  1.0000
  H   H1282     1.0  0.81973  0.25763  0.81531  1.0000
  H   H1283     1.0  0.58779  0.33571  0.97798  1.0000
  S   S304      1.0  0.64896  0.47952  0.83782  1.0000
  H   H1284     1.0  0.94944  0.20670  0.98604  1.0000
  H   H1285     1.0  0.48677  0.00009  0.92853  1.0000
  H   H1286     1.0  0.65842  0.48446  0.91901  1.0000
  Fe  Fe150     1.0  0.61420  0.48605  0.84812  1.0000
  C   C795      1.0  0.73106  0.48547  0.86569  1.0000
  H   H1287     1.0  0.72449  0.48516  0.89437  1.0000
  N   N82       1.0  0.96047  0.48603  0.93199  1.0000
  Fe  Fe151     1.0  0.67050  0.48661  0.85655  1.0000
  H   H1288     1.0  0.81911  0.20450  0.79395  1.0000
  Fe  Fe152     1.0  0.57474  0.61821  0.05030  1.0000
  S   S305      1.0  0.54769  0.64208  0.04454  1.0000
  S   S306      1.0  0.60848  0.60754  0.04027  1.0000
  Fe  Fe153     1.0  0.55137  0.60702  0.07775  1.0000
  S   S307      1.0  0.52252  0.62903  0.07408  1.0000
  S   S308      1.0  0.54838  0.58219  0.09608  1.0000
  Fe  Fe154     1.0  0.51425  0.60955  0.05548  1.0000
  H   H1289     1.0  0.59737  0.70924  0.12710  1.0000
  Fe  Fe155     1.0  0.55794  0.65998  0.06375  1.0000
  S   S309      1.0  0.56744  0.70078  0.07132  1.0000
  S   S310      1.0  0.54045  0.58502  0.05993  1.0000
  S   S311      1.0  0.58760  0.63870  0.06870  1.0000
  Fe  Fe156     1.0  0.56216  0.84145  0.05412  1.0000
  S   S312      1.0  0.60121  0.86878  0.06196  1.0000
  S   S313      1.0  0.56299  0.80671  0.04312  1.0000
  Fe  Fe157     1.0  0.52950  0.87514  0.06249  1.0000
  S   S314      1.0  0.56675  0.90496  0.07070  1.0000
  S   S315      1.0  0.48982  0.88227  0.06639  1.0000
  Fe  Fe158     1.0  0.58876  0.90148  0.05263  1.0000
  S   S316      1.0  0.62226  0.93600  0.04184  1.0000
  Fe  Fe159     1.0  0.57541  0.86970  0.07909  1.0000
  S   S317      1.0  0.58766  0.86061  0.09924  1.0000
  S   S318      1.0  0.55061  0.87400  0.04395  1.0000
  S   S319      1.0  0.53713  0.84008  0.07175  1.0000
  Fe  Fe160     1.0  0.54245  0.86191  0.17151  1.0000
  S   S320      1.0  0.52242  0.81852  0.17609  1.0000
  S   S321      1.0  0.53960  0.88142  0.15200  1.0000
  C   C796      1.0  0.85759  0.51418  0.01241  1.0000
  H   H1290     1.0  0.87700  0.56092  0.99951  1.0000
  H   H1291     1.0  0.60965  0.56265  0.05921  1.0000
  H   H1292     1.0  0.80514  0.53861  0.01221  1.0000
  H   H1293     1.0  0.53248  0.70157  0.10964  1.0000
  S   S322      1.0  0.58130  0.86525  0.18217  1.0000
  H   H1294     1.0  0.59379  0.95714  0.99849  1.0000
  Fe  Fe161     1.0  0.55225  0.62210  0.16490  1.0000
  S   S323      1.0  0.51504  0.62693  0.15590  1.0000
  S   S324      1.0  0.58613  0.62807  0.15018  1.0000
  C   C797      1.0  0.53909  0.65856  0.12102  1.0000
  H   H1295     1.0  0.84911  0.53943  0.03239  1.0000
  C   C798      1.0  0.97610  0.57939  0.02399  1.0000
  C   C799      1.0  0.56445  0.74089  0.18748  1.0000
  N   N83       1.0  0.55543  0.68622  0.12312  1.0000
  S   S325      1.0  0.52813  0.58681  0.17757  1.0000
  H   H1296     1.0  0.49038  0.56685  0.10132  1.0000
  H   H1297     1.0  0.80724  0.51088  0.00437  1.0000
  S   S326      1.0  0.50973  0.69076  0.16490  1.0000
  H   H1298     1.0  0.49793  0.55731  0.04213  1.0000
  C   C800      1.0  0.55405  0.70287  0.11167  1.0000
  H   H1299     1.0  0.61119  0.82881  0.01939  1.0000
  H   H1300     1.0  0.54700  0.65145  0.11263  1.0000
  H   H1301     1.0  0.56632  0.72388  0.11285  1.0000
  H   H1302     1.0  0.58616  0.67626  0.13402  1.0000
  H   H1303     1.0  0.54544  0.68275  0.14321  1.0000
  C   C801      1.0  0.57453  0.86699  0.11383  1.0000
  C   C802      1.0  0.57622  0.85215  0.12502  1.0000
  C   C803      1.0  0.56579  0.85640  0.13679  1.0000
  C   C804      1.0  0.55374  0.87574  0.13751  1.0000
  C   C805      1.0  0.55233  0.89079  0.12634  1.0000
  C   C806      1.0  0.56271  0.88649  0.11456  1.0000
  H   H1304     1.0  0.58559  0.83720  0.12457  1.0000
  H   H1305     1.0  0.56712  0.84473  0.14530  1.0000
  H   H1306     1.0  0.54337  0.90603  0.12685  1.0000
  H   H1307     1.0  0.56195  0.89849  0.10609  1.0000
  C   C807      1.0  0.56519  0.72965  0.06324  1.0000
  C   C808      1.0  0.56060  0.73122  0.05011  1.0000
  C   C809      1.0  0.55985  0.75486  0.04408  1.0000
  C   C810      1.0  0.56333  0.77706  0.05112  1.0000
  C   C811      1.0  0.56762  0.77538  0.06427  1.0000
  C   C812      1.0  0.56869  0.75187  0.07026  1.0000
  H   H1308     1.0  0.55790  0.71432  0.04457  1.0000
  H   H1309     1.0  0.55649  0.75591  0.03391  1.0000
  H   H1310     1.0  0.57046  0.79230  0.06982  1.0000
  H   H1311     1.0  0.57236  0.75096  0.08040  1.0000
  C   C813      1.0  0.54423  0.69469  0.13438  1.0000
  H   H1312     1.0  0.60626  0.57422  0.09370  1.0000
  H   H1313     1.0  0.53981  0.64546  0.12946  1.0000
  C   C814      1.0  0.55794  0.59680  0.11081  1.0000
  C   C815      1.0  0.54200  0.58532  0.12179  1.0000
  C   C816      1.0  0.55016  0.59520  0.13383  1.0000
  C   C817      1.0  0.57497  0.61595  0.13508  1.0000
  C   C818      1.0  0.59108  0.62730  0.12411  1.0000
  C   C819      1.0  0.58230  0.61817  0.11197  1.0000
  H   H1314     1.0  0.52336  0.56855  0.12103  1.0000
  H   H1315     1.0  0.53767  0.58618  0.14223  1.0000
  H   H1316     1.0  0.61040  0.64322  0.12503  1.0000
  H   H1317     1.0  0.59486  0.62709  0.10361  1.0000
  H   H1318     1.0  0.60817  0.60465  0.08574  1.0000
  C   C820      1.0  0.62001  0.59124  0.08772  1.0000
  H   H1319     1.0  0.52218  0.69263  0.13318  1.0000
  H   H1320     1.0  0.66292  0.57482  0.08436  1.0000
  C   C821      1.0  0.58442  0.68864  0.12544  1.0000
  C   C822      1.0  0.97241  0.57046  0.01151  1.0000
  C   C823      1.0  0.64877  0.97739  0.02464  1.0000
  C   C824      1.0  0.81505  0.52335  0.01262  1.0000
  C   C825      1.0  0.62516  0.95493  0.02704  1.0000
  H   H1321     1.0  0.80768  0.51062  0.02147  1.0000
  Fe  Fe162     1.0  0.49099  0.59413  0.16950  1.0000
  H   H1322     1.0  0.55582  0.71556  0.13621  1.0000
  H   H1323     1.0  0.88053  0.52243  0.01174  1.0000
  H   H1324     1.0  0.59107  0.87451  0.01203  1.0000
  H   H1325     1.0  0.59354  0.68233  0.11717  1.0000
  C   C826      1.0  0.60800  0.57074  0.00148  1.0000
  C   C827      1.0  0.62821  0.57144  0.01051  1.0000
  C   C828      1.0  0.62785  0.58253  0.02236  1.0000
  C   C829      1.0  0.60705  0.59261  0.02543  1.0000
  C   C830      1.0  0.58647  0.59133  0.01652  1.0000
  C   C831      1.0  0.58713  0.58071  0.00458  1.0000
  H   H1326     1.0  0.64449  0.56404  0.00825  1.0000
  H   H1327     1.0  0.64398  0.58353  0.02911  1.0000
  H   H1328     1.0  0.57041  0.59908  0.01870  1.0000
  C   C832      1.0  0.64638  0.60620  0.06807  1.0000
  N   N84       1.0  0.62867  0.58291  0.07575  1.0000
  N   N85       1.0  0.84545  0.53519  0.01215  1.0000
  H   H1329     1.0  0.48543  0.88494  0.09475  1.0000
  C   C833      1.0  0.85521  0.55138  0.02323  1.0000
  H   H1330     1.0  0.56224  0.69688  0.10297  1.0000
  C   C834      1.0  0.56474  0.76535  0.18239  1.0000
  C   C835      1.0  0.60921  0.96299  0.00579  1.0000
  H   H1331     1.0  0.48607  0.56292  0.07248  1.0000
  C   C836      1.0  0.53274  0.71923  0.17111  1.0000
  S   S327      1.0  0.52290  0.87334  0.18841  1.0000
  S   S328      1.0  0.55541  0.65076  0.18014  1.0000
  H   H1332     1.0  0.54728  0.69898  0.18617  1.0000
  H   H1333     1.0  0.52170  0.74491  0.15747  1.0000
  H   H1334     1.0  0.95830  0.57886  0.02954  1.0000
  H   H1335     1.0  0.51552  0.87679  0.09178  1.0000
  H   H1336     1.0  0.62260  0.85051  0.03970  1.0000
  H   H1337     1.0  0.55047  0.78560  0.16724  1.0000
  C   C837      1.0  0.53364  0.74373  0.16583  1.0000
  H   H1338     1.0  0.63798  0.60177  0.09358  1.0000
  H   H1339     1.0  0.51706  0.65592  0.11932  1.0000
  H   H1340     1.0  0.58983  0.55166  0.07389  1.0000
  H   H1341     1.0  0.85188  0.50138  0.02133  1.0000
  S   S329      1.0  0.93844  0.55900  0.00510  1.0000
  H   H1342     1.0  0.84662  0.56756  0.02330  1.0000
  H   H1343     1.0  0.59227  0.58229  0.06582  1.0000
  H   H1344     1.0  0.65263  0.60067  0.05879  1.0000
  H   H1345     1.0  0.66536  0.61706  0.07322  1.0000
  C   C838      1.0  0.60404  0.56912  0.06838  1.0000
  Fe  Fe163     1.0  0.51659  0.65345  0.17157  1.0000
  H   H1346     1.0  0.65091  0.55840  0.06993  1.0000
  C   C839      1.0  0.64416  0.56504  0.07879  1.0000
  H   H1347     1.0  0.85031  0.50133  0.00428  1.0000
  H   H1348     1.0  0.63533  0.62016  0.06563  1.0000
  N   N86       1.0  0.62691  0.87053  0.02116  1.0000
  C   C840      1.0  0.64599  0.89438  0.01438  1.0000
  C   C841      1.0  0.63674  0.86821  0.03427  1.0000
  C   C842      1.0  0.62559  0.84700  0.01438  1.0000
  C   C843      1.0  0.59914  0.87250  0.02173  1.0000
  H   H1349     1.0  0.49262  0.81309  0.11011  1.0000
  H   H1350     1.0  0.65757  0.86648  0.03426  1.0000
  H   H1351     1.0  0.87815  0.56046  0.02304  1.0000
  C   C844      1.0  0.49923  0.87499  0.09906  1.0000
  H   H1352     1.0  0.63910  0.89694  0.00448  1.0000
  H   H1353     1.0  0.63809  0.88573  0.03965  1.0000
  H   H1354     1.0  0.64726  0.91235  0.01939  1.0000
  H   H1355     1.0  0.64614  0.84472  0.01383  1.0000
  H   H1356     1.0  0.61809  0.84796  0.00447  1.0000
  H   H1357     1.0  0.58417  0.85475  0.02675  1.0000
  C   C845      1.0  0.60530  0.94792  0.01752  1.0000
  H   H1358     1.0  0.59936  0.88986  0.02694  1.0000
  H   H1359     1.0  0.66722  0.89367  0.01378  1.0000
  C   C846      1.0  0.54964  0.76675  0.17145  1.0000
  H   H1360     1.0  0.63131  0.54723  0.08455  1.0000
  H   H1361     1.0  0.58700  0.93079  0.01915  1.0000
  H   H1362     1.0  0.50039  0.54410  0.08303  1.0000
  H   H1363     1.0  0.66438  0.98303  0.03187  1.0000
  H   H1364     1.0  0.57142  0.58036  0.99769  1.0000
  H   H1365     1.0  0.84546  0.56805  0.99971  1.0000
  C   C847      1.0  0.54830  0.71782  0.18189  1.0000
  H   H1366     1.0  0.51990  0.83639  0.10062  1.0000
  C   C848      1.0  0.50325  0.83438  0.10776  1.0000
  S   S330      1.0  0.48847  0.62115  0.18439  1.0000
  C   C849      1.0  0.63275  0.98555  0.00342  1.0000
  H   H1367     1.0  0.50943  0.88616  0.10734  1.0000
  H   H1368     1.0  0.51346  0.84320  0.11660  1.0000
  C   C850      1.0  0.85411  0.55189  0.00026  1.0000
  N   N87       1.0  0.48384  0.84722  0.10291  1.0000
  Fe  Fe164     1.0  0.55989  0.82274  0.18791  1.0000
  Fe  Fe165     1.0  0.52728  0.61595  0.19209  1.0000
  H   H1369     1.0  0.48582  0.75571  0.17389  1.0000
  S   S331      1.0  0.58199  0.79379  0.19036  1.0000
  H   H1370     1.0  0.48393  0.83467  0.08384  1.0000
  H   H1371     1.0  0.48668  0.71349  0.18403  1.0000
  H   H1372     1.0  0.61694  0.72418  0.26517  1.0000
  S   S332      1.0  0.58311  0.90355  0.21292  1.0000
  N   N88       1.0  0.55175  0.54263  0.26585  1.0000
  C   C851      1.0  0.52683  0.91362  0.26218  1.0000
  S   S333      1.0  0.52113  0.60536  0.21359  1.0000
  Fe  Fe166     1.0  0.75306  0.96495  0.37757  1.0000
  S   S334      1.0  0.79884  0.97159  0.37728  1.0000
  S   S335      1.0  0.73226  0.95879  0.35796  1.0000
  C   C852      1.0  0.53070  0.55354  0.26985  1.0000
  H   H1373     1.0  0.69042  0.85287  0.35830  1.0000
  H   H1374     1.0  0.54473  0.72345  0.26570  1.0000
  Fe  Fe167     1.0  0.73649  0.70381  0.38331  1.0000
  S   S336      1.0  0.75968  0.74133  0.37201  1.0000
  S   S337      1.0  0.69982  0.67010  0.37593  1.0000
  H   H1375     1.0  0.84270  0.70249  0.37662  1.0000
  H   H1376     1.0  0.96255  0.72364  0.35858  1.0000
  H   H1377     1.0  0.49293  0.48955  0.29551  1.0000
  H   H1378     1.0  0.58513  0.57922  0.26724  1.0000
  Fe  Fe168     1.0  0.58916  0.82553  0.30190  1.0000
  S   S338      1.0  0.61950  0.86673  0.30192  1.0000
  S   S339      1.0  0.60613  0.79327  0.29844  1.0000
  Fe  Fe169     1.0  0.53961  0.84263  0.30647  1.0000
  S   S340      1.0  0.56622  0.88500  0.30724  1.0000
  H   H1379     1.0  0.56940  0.54411  0.28451  1.0000
  Fe  Fe170     1.0  0.58791  0.87722  0.29006  1.0000
  S   S341      1.0  0.59879  0.90706  0.27316  1.0000
  Fe  Fe171     1.0  0.59577  0.87087  0.31910  1.0000
  S   S342      1.0  0.61405  0.88585  0.33847  1.0000
  S   S343      1.0  0.55982  0.83583  0.28866  1.0000
  S   S344      1.0  0.56691  0.82865  0.31968  1.0000
  Fe  Fe172     1.0  0.58133  0.62533  0.28347  1.0000
  S   S345      1.0  0.53765  0.61363  0.29045  1.0000
  S   S346      1.0  0.59598  0.63527  0.26274  1.0000
  Fe  Fe173     1.0  0.60437  0.62688  0.31133  1.0000
  S   S347      1.0  0.56151  0.61384  0.31997  1.0000
  S   S348      1.0  0.64668  0.64571  0.32047  1.0000
  Fe  Fe174     1.0  0.54841  0.58527  0.30413  1.0000
  S   S349      1.0  0.52466  0.54108  0.30303  1.0000
  Fe  Fe175     1.0  0.55459  0.64299  0.30540  1.0000
  S   S350      1.0  0.53537  0.67325  0.31004  1.0000
  S   S351      1.0  0.59223  0.59634  0.29651  1.0000
  S   S352      1.0  0.59733  0.65660  0.29732  1.0000
  H   H1380     1.0  0.56647  0.72859  0.27933  1.0000
  C   C853      1.0  0.58599  0.76047  0.30242  1.0000
  C   C854      1.0  0.59861  0.74148  0.30214  1.0000
  C   C855      1.0  0.58325  0.71493  0.30472  1.0000
  C   C856      1.0  0.55506  0.70690  0.30744  1.0000
  C   C857      1.0  0.54241  0.72595  0.30793  1.0000
  C   C858      1.0  0.55786  0.75274  0.30545  1.0000
  H   H1381     1.0  0.62041  0.74741  0.29990  1.0000
  H   H1382     1.0  0.59346  0.70083  0.30472  1.0000
  H   H1383     1.0  0.52060  0.72000  0.31012  1.0000
  H   H1384     1.0  0.54797  0.76734  0.30571  1.0000
  C   C859      1.0  0.66065  0.65222  0.33607  1.0000
  C   C860      1.0  0.64666  0.63897  0.34720  1.0000
  C   C861      1.0  0.65895  0.64472  0.35926  1.0000
  C   C862      1.0  0.68510  0.66416  0.36044  1.0000
  C   C863      1.0  0.69881  0.67776  0.34933  1.0000
  C   C864      1.0  0.68681  0.67160  0.33725  1.0000
  H   H1385     1.0  0.62667  0.62387  0.34651  1.0000
  H   H1386     1.0  0.64819  0.63393  0.36776  1.0000
  H   H1387     1.0  0.71898  0.69259  0.35002  1.0000
  H   H1388     1.0  0.69798  0.68190  0.32875  1.0000
  H   H1389     1.0  0.51836  0.90210  0.25374  1.0000
  C   C865      1.0  0.48983  0.52081  0.30654  1.0000
  H   H1390     1.0  0.57016  0.57407  0.25173  1.0000
  H   H1391     1.0  0.52157  0.50685  0.26014  1.0000
  C   C866      1.0  0.51952  0.87347  0.27501  1.0000
  C   C867      1.0  0.48492  0.89404  0.27472  1.0000
  H   H1392     1.0  0.55896  0.66109  0.27099  1.0000
  H   H1393     1.0  0.50965  0.86116  0.26701  1.0000
  S   S353      1.0  0.93814  0.70984  0.38590  1.0000
  Fe  Fe176     1.0  0.79728  0.73970  0.38276  1.0000
  H   H1394     1.0  0.66138  0.88745  0.19859  1.0000
  H   H1395     1.0  0.64993  0.83039  0.20814  1.0000
  C   C868      1.0  0.69914  0.93846  0.35279  1.0000
  C   C869      1.0  0.69447  0.93574  0.33960  1.0000
  C   C870      1.0  0.66882  0.91954  0.33503  1.0000
  C   C871      1.0  0.64727  0.90599  0.34359  1.0000
  C   C872      1.0  0.65202  0.90861  0.35678  1.0000
  C   C873      1.0  0.67774  0.92459  0.36136  1.0000
  H   H1396     1.0  0.71076  0.94637  0.33285  1.0000
  H   H1397     1.0  0.66557  0.91789  0.32487  1.0000
  H   H1398     1.0  0.63554  0.89835  0.36351  1.0000
  H   H1399     1.0  0.68082  0.92648  0.37151  1.0000
  C   C874      1.0  0.54237  0.61553  0.22700  1.0000
  C   C875      1.0  0.53019  0.60931  0.23929  1.0000
  C   C876      1.0  0.54623  0.61587  0.25030  1.0000
  C   C877      1.0  0.57476  0.62818  0.24915  1.0000
  C   C878      1.0  0.58694  0.63473  0.23690  1.0000
  C   C879      1.0  0.57082  0.62858  0.22586  1.0000
  H   H1400     1.0  0.50817  0.59934  0.24025  1.0000
  H   H1401     1.0  0.53653  0.61116  0.25966  1.0000
  H   H1402     1.0  0.60902  0.64434  0.23591  1.0000
  H   H1403     1.0  0.58046  0.63340  0.21647  1.0000
  C   C880      1.0  0.58565  0.90214  0.22981  1.0000
  C   C881      1.0  0.60124  0.92532  0.23533  1.0000
  C   C882      1.0  0.60518  0.92596  0.24852  1.0000
  C   C883      1.0  0.59382  0.90338  0.25654  1.0000
  C   C884      1.0  0.57813  0.87982  0.25113  1.0000
  C   C885      1.0  0.57396  0.87922  0.23774  1.0000
  H   H1404     1.0  0.61041  0.94309  0.22935  1.0000
  H   H1405     1.0  0.61718  0.94424  0.25256  1.0000
  H   H1406     1.0  0.56916  0.86224  0.25724  1.0000
  H   H1407     1.0  0.56178  0.86117  0.23360  1.0000
  C   C886      1.0  0.91696  0.75026  0.38232  1.0000
  H   H1408     1.0  0.54959  0.91856  0.26184  1.0000
  H   H1409     1.0  0.67853  0.85831  0.21254  1.0000
  H   H1410     1.0  0.55534  0.68086  0.28353  1.0000
  N   N89       1.0  0.61964  0.70565  0.33875  1.0000
  C   C887      1.0  0.60540  0.72498  0.33938  1.0000
  C   C888      1.0  0.59939  0.67974  0.33605  1.0000
  C   C889      1.0  0.63293  0.70365  0.35109  1.0000
  C   C890      1.0  0.64090  0.71423  0.32848  1.0000
  H   H1411     1.0  0.62009  0.74485  0.34123  1.0000
  H   H1412     1.0  0.58936  0.71920  0.34710  1.0000
  H   H1413     1.0  0.59488  0.72682  0.33028  1.0000
  H   H1414     1.0  0.58879  0.68052  0.32686  1.0000
  H   H1415     1.0  0.60946  0.66473  0.33537  1.0000
  H   H1416     1.0  0.58316  0.67250  0.34365  1.0000
  H   H1417     1.0  0.64815  0.72288  0.35352  1.0000
  H   H1418     1.0  0.64432  0.68963  0.35085  1.0000
  H   H1419     1.0  0.96416  0.72377  0.34147  1.0000
  H   H1420     1.0  0.63179  0.71629  0.31905  1.0000
  H   H1421     1.0  0.65168  0.69983  0.32758  1.0000
  H   H1422     1.0  0.65682  0.73347  0.33031  1.0000
  N   N90       1.0  0.57338  0.70252  0.26609  1.0000
  C   C891      1.0  0.55418  0.67895  0.27302  1.0000
  C   C892      1.0  0.57154  0.69876  0.25222  1.0000
  C   C893      1.0  0.60187  0.70662  0.27024  1.0000
  C   C894      1.0  0.56593  0.72565  0.26889  1.0000
  H   H1423     1.0  0.65633  0.83682  0.22470  1.0000
  Fe  Fe177     1.0  0.75139  0.76111  0.38898  1.0000
  H   H1424     1.0  0.52515  0.93351  0.28498  1.0000
  H   H1425     1.0  0.58548  0.71628  0.24665  1.0000
  H   H1426     1.0  0.57752  0.68168  0.24982  1.0000
  H   H1427     1.0  0.55020  0.69498  0.24877  1.0000
  H   H1428     1.0  0.53334  0.53228  0.24762  1.0000
  H   H1429     1.0  0.62688  0.88723  0.20066  1.0000
  H   H1430     1.0  0.60810  0.68943  0.26837  1.0000
  C   C895      1.0  0.64005  0.87470  0.20138  1.0000
  C   C896      1.0  0.88503  0.70614  0.38048  1.0000
  H   H1431     1.0  0.58042  0.74399  0.26414  1.0000
  N   N91       1.0  0.73264  0.87879  0.35723  1.0000
  C   C897      1.0  0.74410  0.85748  0.35952  1.0000
  C   C898      1.0  0.73074  0.89032  0.36946  1.0000
  C   C899      1.0  0.70488  0.86815  0.35172  1.0000
  C   C900      1.0  0.75092  0.89934  0.34829  1.0000
  H   H1432     1.0  0.76472  0.86476  0.36403  1.0000
  H   H1433     1.0  0.74647  0.84862  0.35048  1.0000
  H   H1434     1.0  0.73053  0.84142  0.36606  1.0000
  H   H1435     1.0  0.72179  0.90616  0.36817  1.0000
  H   H1436     1.0  0.71748  0.87540  0.37655  1.0000
  H   H1437     1.0  0.75146  0.89920  0.37367  1.0000
  H   H1438     1.0  0.70547  0.85923  0.34248  1.0000
  H   H1439     1.0  0.69574  0.88380  0.34985  1.0000
  N   N92       1.0  0.51486  0.89885  0.27426  1.0000
  H   H1440     1.0  0.52282  0.93247  0.26109  1.0000
  C   C901      1.0  0.65674  0.84629  0.21499  1.0000
  H   H1441     1.0  0.75305  0.89142  0.33896  1.0000
  C   C902      1.0  0.97361  0.71909  0.35041  1.0000
  H   H1442     1.0  0.53243  0.67544  0.27030  1.0000
  Fe  Fe178     1.0  0.55988  0.87239  0.19953  1.0000
  H   H1443     1.0  0.54187  0.87639  0.27462  1.0000
  H   H1444     1.0  0.74275  0.91566  0.34636  1.0000
  H   H1445     1.0  0.51262  0.53814  0.27459  1.0000
  C   C903      1.0  0.94297  0.67412  0.35085  1.0000
  H   H1446     1.0  0.61756  0.69667  0.35906  1.0000
  H   H1447     1.0  0.60244  0.82964  0.21081  1.0000
  C   C904      1.0  0.56040  0.52986  0.27707  1.0000
  S   S354      1.0  0.54142  0.83015  0.20593  1.0000
  H   H1448     1.0  0.89939  0.78093  0.37962  1.0000
  C   C905      1.0  0.89527  0.75998  0.37995  1.0000
  H   H1449     1.0  0.77190  0.90816  0.35227  1.0000
  H   H1450     1.0  0.49673  0.87688  0.31398  1.0000
  H   H1451     1.0  0.60408  0.70954  0.28064  1.0000
  H   H1452     1.0  0.59233  0.55661  0.25721  1.0000
  C   C906      1.0  0.52827  0.91424  0.28515  1.0000
  H   H1453     1.0  0.59609  0.85712  0.21702  1.0000
  N   N93       1.0  0.63883  0.86246  0.21441  1.0000
  S   S355      1.0  0.84165  0.75603  0.37521  1.0000
  C   C907      1.0  0.64820  0.88320  0.22365  1.0000
  H   H1454     1.0  0.55093  0.91818  0.28505  1.0000
  S   S356      1.0  0.49269  0.82476  0.30637  1.0000
  H   H1455     1.0  0.63551  0.89616  0.22313  1.0000
  H   H1456     1.0  0.97190  0.68863  0.37187  1.0000
  H   H1457     1.0  0.51168  0.75539  0.19365  1.0000
  N   N94       1.0  0.97210  0.69139  0.35136  1.0000
  H   H1458     1.0  0.54260  0.51396  0.28171  1.0000
  C   C908      1.0  0.57588  0.56401  0.26026  1.0000
  H   H1459     1.0  0.93757  0.76367  0.38387  1.0000
  H   H1460     1.0  0.93059  0.67762  0.35881  1.0000
  H   H1461     1.0  0.51997  0.90360  0.29443  1.0000
  H   H1462     1.0  0.60825  0.83632  0.22739  1.0000
  C   C909      1.0  0.61017  0.84559  0.21756  1.0000
  H   H1463     1.0  0.97983  0.69052  0.33127  1.0000
  H   H1464     1.0  0.93335  0.67764  0.34174  1.0000
  C   C910      1.0  0.86826  0.74284  0.37809  1.0000
  C   C911      1.0  0.91189  0.72326  0.38262  1.0000
  C   C912      1.0  0.86328  0.71584  0.37830  1.0000
  H   H1465     1.0  0.79183  0.81908  0.38598  1.0000
  H   H1466     1.0  0.51111  0.86195  0.28410  1.0000
  H   H1467     1.0  0.94098  0.65304  0.35169  1.0000
  H   H1468     1.0  0.88094  0.68523  0.38060  1.0000
  H   H1469     1.0  0.53918  0.56878  0.27687  1.0000
  H   H1470     1.0  0.57618  0.52125  0.27446  1.0000
  H   H1471     1.0  0.66997  0.89596  0.22176  1.0000
  H   H1472     1.0  0.64657  0.87477  0.23366  1.0000
  C   C913      1.0  0.53995  0.52313  0.25622  1.0000
  H   H1473     1.0  0.52306  0.56267  0.26160  1.0000
  S   S357      1.0  0.77489  0.70066  0.39295  1.0000
  H   H1474     1.0  0.57604  0.73972  0.19596  1.0000
  H   H1475     1.0  0.55524  0.51442  0.25300  1.0000
  C   C914      1.0  0.78249  0.83308  0.38871  1.0000
  H   H1476     1.0  0.49291  0.77293  0.20124  1.0000
  C   C915      1.0  0.49255  0.75293  0.19920  1.0000
  S   S358      1.0  0.73245  0.79300  0.38805  1.0000
  H   H1477     1.0  0.63270  0.85959  0.19417  1.0000
  C   C916      1.0  0.75392  0.82528  0.39037  1.0000
  H   H1478     1.0  0.49375  0.74250  0.20848  1.0000
  H   H1479     1.0  0.82108  0.86540  0.38884  1.0000
  C   C917      1.0  0.79899  0.85929  0.39032  1.0000
  Fe  Fe179     1.0  0.50607  0.83026  0.19363  1.0000
  C   C918      1.0  0.87968  0.65834  0.53372  1.0000
  H   H1480     1.0  0.76352  0.80746  0.56907  1.0000
  H   H1481     1.0  0.74321  0.84270  0.55004  1.0000
  H   H1482     1.0  0.73017  0.77492  0.54013  1.0000
  S   S359      1.0  0.79304  0.96349  0.49664  1.0000
  N   N95       1.0  0.85533  0.71485  0.41890  1.0000
  Fe  Fe180     1.0  0.76882  0.93808  0.51318  1.0000
  S   S360      1.0  0.74963  0.89433  0.51231  1.0000
  S   S361      1.0  0.73782  0.95841  0.51446  1.0000
  Fe  Fe181     1.0  0.77037  0.73893  0.53151  1.0000
  S   S362      1.0  0.81593  0.76032  0.53145  1.0000
  S   S363      1.0  0.74484  0.73018  0.55003  1.0000
  Fe  Fe182     1.0  0.76842  0.74249  0.50170  1.0000
  S   S364      1.0  0.81383  0.76435  0.49987  1.0000
  S   S365      1.0  0.74094  0.73644  0.48423  1.0000
  Fe  Fe183     1.0  0.81707  0.73540  0.51529  1.0000
  S   S366      1.0  0.85045  0.71852  0.51276  1.0000
  Fe  Fe184     1.0  0.80806  0.78705  0.51610  1.0000
  S   S367      1.0  0.83080  0.83046  0.51690  1.0000
  S   S368      1.0  0.77186  0.71158  0.51624  1.0000
  S   S369      1.0  0.76224  0.76746  0.51704  1.0000
  S   S370      1.0  0.74304  0.93411  0.39373  1.0000
  Fe  Fe185     1.0  0.75263  0.96748  0.40687  1.0000
  S   S371      1.0  0.79730  0.97281  0.40841  1.0000
  H   H1483     1.0  0.74072  0.92159  0.57515  1.0000
  S   S372      1.0  0.72649  0.72395  0.39997  1.0000
  H   H1484     1.0  0.83658  0.71291  0.40049  1.0000
  C   C919      1.0  0.86149  0.73241  0.42963  1.0000
  Fe  Fe186     1.0  0.76653  0.72431  0.40851  1.0000
  S   S373      1.0  0.80808  0.91052  0.39521  1.0000
  S   S374      1.0  0.78160  0.72068  0.42884  1.0000
  H   H1485     1.0  0.74574  0.77833  0.44669  1.0000
  C   C920      1.0  0.74614  0.94268  0.57455  1.0000
  H   H1486     1.0  0.79911  0.81426  0.55205  1.0000
  H   H1487     1.0  0.71989  0.83752  0.39524  1.0000
  H   H1488     1.0  0.75672  0.78662  0.41153  1.0000
  H   H1489     1.0  0.92627  0.86661  0.48331  1.0000
  H   H1490     1.0  0.91816  0.87971  0.49754  1.0000
  H   H1491     1.0  0.87652  0.84018  0.48115  1.0000
  C   C921      1.0  0.75019  0.79866  0.44253  1.0000
  H   H1492     1.0  0.71495  0.79962  0.54207  1.0000
  C   C922      1.0  0.75229  0.73177  0.46889  1.0000
  C   C923      1.0  0.73417  0.72821  0.45854  1.0000
  C   C924      1.0  0.74267  0.72480  0.44618  1.0000
  C   C925      1.0  0.76937  0.72474  0.44410  1.0000
  C   C926      1.0  0.78740  0.72815  0.45446  1.0000
  C   C927      1.0  0.77898  0.73176  0.46676  1.0000
  H   H1493     1.0  0.71337  0.72787  0.46013  1.0000
  H   H1494     1.0  0.72837  0.72162  0.43837  1.0000
  H   H1495     1.0  0.80801  0.72792  0.45300  1.0000
  H   H1496     1.0  0.79305  0.73423  0.47464  1.0000
  C   C928      1.0  0.88244  0.74374  0.51297  1.0000
  C   C929      1.0  0.88793  0.76235  0.52224  1.0000
  C   C930      1.0  0.91430  0.78124  0.52299  1.0000
  C   C931      1.0  0.93506  0.78171  0.51438  1.0000
  C   C932      1.0  0.92929  0.76361  0.50486  1.0000
  C   C933      1.0  0.90308  0.74449  0.50423  1.0000
  H   H1497     1.0  0.87222  0.76150  0.52918  1.0000
  H   H1498     1.0  0.91882  0.79497  0.53048  1.0000
  H   H1499     1.0  0.94514  0.76422  0.49801  1.0000
  H   H1500     1.0  0.89884  0.73029  0.49697  1.0000
  H   H1501     1.0  0.85837  0.81856  0.49427  1.0000
  H   H1502     1.0  0.86871  0.85332  0.49543  1.0000
  Fe  Fe187     1.0  0.76319  0.98481  0.49840  1.0000
  H   H1503     1.0  0.87655  0.63909  0.52962  1.0000
  C   C934      1.0  0.92914  0.67125  0.53141  1.0000
  C   C935      1.0  0.75485  0.97369  0.44639  1.0000
  C   C936      1.0  0.77320  0.87769  0.51278  1.0000
  C   C937      1.0  0.80009  0.88961  0.51702  1.0000
  C   C938      1.0  0.81805  0.87521  0.51801  1.0000
  C   C939      1.0  0.80919  0.84908  0.51461  1.0000
  C   C940      1.0  0.78268  0.83762  0.50992  1.0000
  C   C941      1.0  0.76457  0.85175  0.50918  1.0000
  H   H1504     1.0  0.80687  0.90971  0.51975  1.0000
  H   H1505     1.0  0.83864  0.88422  0.52158  1.0000
  H   H1506     1.0  0.77614  0.81797  0.50671  1.0000
  H   H1507     1.0  0.74390  0.84262  0.50573  1.0000
  H   H1508     1.0  0.73018  0.80206  0.44172  1.0000
  S   S375      1.0  0.96838  0.80442  0.51559  1.0000
  C   C942      1.0  0.74120  0.72506  0.57634  1.0000
  C   C943      1.0  0.75838  0.72820  0.56554  1.0000
  C   C944      1.0  0.78574  0.72980  0.56734  1.0000
  C   C945      1.0  0.79559  0.72775  0.57978  1.0000
  C   C946      1.0  0.73148  0.97482  0.43980  1.0000
  H   H1509     1.0  0.71996  0.72364  0.57507  1.0000
  H   H1510     1.0  0.79919  0.73214  0.55915  1.0000
  H   H1511     1.0  0.81667  0.72864  0.58102  1.0000
  H   H1512     1.0  0.77871  0.78293  0.54663  1.0000
  H   H1513     1.0  0.96454  0.72201  0.45437  1.0000
  C   C947      1.0  0.76202  0.83800  0.54791  1.0000
  H   H1514     1.0  0.76923  0.84650  0.53810  1.0000
  H   H1515     1.0  0.77836  0.84840  0.55461  1.0000
  H   H1516     1.0  0.78881  0.81114  0.53572  1.0000
  H   H1517     1.0  0.74062  0.80431  0.52983  1.0000
  H   H1518     1.0  0.89134  0.70403  0.42208  1.0000
  H   H1519     1.0  0.78155  0.83350  0.41556  1.0000
  H   H1520     1.0  0.88385  0.68667  0.51175  1.0000
  H   H1521     1.0  0.83016  0.67526  0.41532  1.0000
  C   C948      1.0  0.88102  0.71179  0.41432  1.0000
  H   H1522     1.0  0.90076  0.66326  0.50976  1.0000
  H   H1523     1.0  0.92570  0.72033  0.52981  1.0000
  C   C949      1.0  0.74803  0.95610  0.58580  1.0000
  C   C950      1.0  0.84320  0.72635  0.40841  1.0000
  H   H1524     1.0  0.88080  0.65568  0.54428  1.0000
  H   H1525     1.0  0.87060  0.72436  0.43776  1.0000
  H   H1526     1.0  0.84241  0.73504  0.43326  1.0000
  H   H1527     1.0  0.87625  0.75219  0.42662  1.0000
  H   H1528     1.0  0.72659  0.78702  0.41963  1.0000
  H   H1529     1.0  0.96390  0.69347  0.57029  1.0000
  H   H1530     1.0  0.78717  0.77716  0.43530  1.0000
  H   H1531     1.0  0.87689  0.69792  0.40653  1.0000
  N   N96       1.0  0.76437  0.80251  0.42998  1.0000
  C   C951      1.0  0.90240  0.68166  0.51438  1.0000
  H   H1532     1.0  0.78254  0.84433  0.43141  1.0000
  S   S376      1.0  0.98047  0.71698  0.48044  1.0000
  H   H1533     1.0  0.84400  0.67958  0.43115  1.0000
  H   H1534     1.0  0.80174  0.80009  0.42212  1.0000
  C   C952      1.0  0.74668  0.78400  0.42109  1.0000
  H   H1535     1.0  0.85799  0.74532  0.40438  1.0000
  H   H1536     1.0  0.86098  0.66359  0.53158  1.0000
  H   H1537     1.0  0.74918  0.88353  0.39842  1.0000
  H   H1538     1.0  0.88925  0.70954  0.53256  1.0000
  C   C953      1.0  0.77836  0.72436  0.59058  1.0000
  H   H1539     1.0  0.76297  0.81221  0.44952  1.0000
  H   H1540     1.0  0.91138  0.70298  0.54454  1.0000
  H   H1541     1.0  0.93233  0.66985  0.54189  1.0000
  H   H1542     1.0  0.94833  0.68597  0.52722  1.0000
  N   N97       1.0  0.90481  0.67883  0.52839  1.0000
  N   N98       1.0  0.70252  0.91171  0.48018  1.0000
  C   C954      1.0  0.68821  0.92824  0.48556  1.0000
  C   C955      1.0  0.73225  0.92287  0.48278  1.0000
  C   C956      1.0  0.69840  0.91092  0.46623  1.0000
  C   C957      1.0  0.69138  0.88488  0.48623  1.0000
  H   H1543     1.0  0.66567  0.92039  0.48385  1.0000
  H   H1544     1.0  0.69616  0.94865  0.48123  1.0000
  H   H1545     1.0  0.69124  0.92960  0.49605  1.0000
  H   H1546     1.0  0.74380  0.91070  0.47915  1.0000
  H   H1547     1.0  0.74155  0.94300  0.47838  1.0000
  H   H1548     1.0  0.73593  0.92430  0.49317  1.0000
  H   H1549     1.0  0.70921  0.89890  0.46182  1.0000
  H   H1550     1.0  0.70660  0.93096  0.46145  1.0000
  H   H1551     1.0  0.67617  0.90256  0.46389  1.0000
  H   H1552     1.0  0.70182  0.87192  0.48243  1.0000
  H   H1553     1.0  0.66889  0.87577  0.48461  1.0000
  H   H1554     1.0  0.69467  0.88499  0.49676  1.0000
  N   N99       1.0  0.90165  0.83768  0.49726  1.0000
  C   C958      1.0  0.89875  0.83390  0.51131  1.0000
  C   C959      1.0  0.90931  0.81624  0.49218  1.0000
  C   C960      1.0  0.92337  0.86313  0.49384  1.0000
  C   C961      1.0  0.87521  0.83746  0.49174  1.0000
  H   H1555     1.0  0.89273  0.84959  0.51548  1.0000
  H   H1556     1.0  0.91837  0.83398  0.51579  1.0000
  H   H1557     1.0  0.88246  0.81489  0.51426  1.0000
  H   H1558     1.0  0.91045  0.81770  0.48157  1.0000
  H   H1559     1.0  0.92984  0.81668  0.49567  1.0000
  H   H1560     1.0  0.89408  0.79664  0.49520  1.0000
  H   H1561     1.0  0.94355  0.86390  0.49795  1.0000
  C   C962      1.0  0.78188  0.80424  0.54570  1.0000
  C   C963      1.0  0.73459  0.79652  0.53983  1.0000
  N   N100      1.0  0.75644  0.80939  0.54887  1.0000
  H   H1562     1.0  0.74261  0.77705  0.56287  1.0000
  H   H1563     1.0  0.76983  0.96742  0.44159  1.0000
  H   H1564     1.0  0.74234  0.76322  0.42454  1.0000
  H   H1565     1.0  0.75055  0.83382  0.42296  1.0000
  C   C964      1.0  0.75114  0.72324  0.58880  1.0000
  C   C965      1.0  0.83554  0.68889  0.42324  1.0000
  H   H1566     1.0  0.74916  0.94582  0.55390  1.0000
  C   C966      1.0  0.74731  0.79872  0.56200  1.0000
  H   H1567     1.0  0.72826  0.80237  0.56481  1.0000
  C   C967      1.0  0.79066  0.79756  0.43146  1.0000
  S   S377      1.0  0.79633  0.96126  0.52809  1.0000
  S   S378      1.0  0.79062  0.76303  0.39865  1.0000
  H   H1568     1.0  0.82466  0.73028  0.41163  1.0000
  C   C968      1.0  0.75084  0.95635  0.56250  1.0000
  S   S379      1.0  0.72468  0.96698  0.42367  1.0000
  C   C969      1.0  0.75850  0.86967  0.39555  1.0000
  S   S380      1.0  0.97484  0.73760  0.51457  1.0000
  C   C970      1.0  0.76997  0.82973  0.42480  1.0000
  H   H1569     1.0  0.92727  0.65206  0.52757  1.0000
  H   H1570     1.0  0.80460  0.81114  0.43810  1.0000
  C   C971      1.0  0.90790  0.70398  0.53408  1.0000
  H   H1571     1.0  0.81591  0.69046  0.42678  1.0000
  H   H1572     1.0  0.92061  0.69750  0.51003  1.0000
  H   H1573     1.0  0.89603  0.73080  0.41043  1.0000
  H   H1574     1.0  0.77677  0.97988  0.46433  1.0000
  Fe  Fe188     1.0  0.76730  0.98381  0.52818  1.0000
  C   C972      1.0  0.75869  0.98057  0.45929  1.0000
  H   H1575     1.0  0.98106  0.69980  0.59249  1.0000
  Fe  Fe189     1.0  0.78862  0.94206  0.39401  1.0000
  C   C973      1.0  0.71204  0.98243  0.44623  1.0000
  C   C974      1.0  0.75470  0.98334  0.58490  1.0000
  C   C975      1.0  0.75657  0.98348  0.56159  1.0000
  H   H1576     1.0  0.69389  0.98326  0.44129  1.0000
  H   H1577     1.0  0.73231  0.85384  0.59295  1.0000
  C   C976      1.0  0.74199  0.84358  0.39384  1.0000
  C   C977      1.0  0.78700  0.87773  0.39357  1.0000
  Fe  Fe190     1.0  0.78334  0.93548  0.64268  1.0000
  S   S381      1.0  0.74083  0.93672  0.63866  1.0000
  S   S382      1.0  0.79600  0.90073  0.64990  1.0000
  H   H1578     1.0  0.67229  0.52959  0.76881  1.0000
  C   C978      1.0  0.74643  0.50662  0.71793  1.0000
  C   C979      1.0  0.94303  0.61092  0.69641  1.0000
  H   H1579     1.0  0.75311  0.88731  0.62905  1.0000
  S   S383      1.0  0.80031  0.95142  0.62307  1.0000
  S   S384      1.0  0.93971  0.75722  0.63040  1.0000
  Fe  Fe191     1.0  0.79582  0.72858  0.65267  1.0000
  S   S385      1.0  0.78123  0.69308  0.64124  1.0000
  S   S386      1.0  0.83345  0.73618  0.66486  1.0000
  Fe  Fe192     1.0  0.74822  0.74602  0.64499  1.0000
  S   S387      1.0  0.72908  0.71089  0.63306  1.0000
  S   S388      1.0  0.72969  0.77805  0.64748  1.0000
  Fe  Fe193     1.0  0.73918  0.68691  0.64960  1.0000
  S   S389      1.0  0.71574  0.64385  0.65638  1.0000
  Fe  Fe194     1.0  0.77250  0.71950  0.62576  1.0000
  H   H1580     1.0  0.72310  0.88133  0.59725  1.0000
  S   S390      1.0  0.75462  0.72138  0.66193  1.0000
  S   S391      1.0  0.79073  0.75572  0.63678  1.0000
  Fe  Fe195     1.0  0.88441  0.51782  0.74381  1.0000
  H   H1581     1.0  0.72843  0.50911  0.71356  1.0000
  S   S392      1.0  0.86673  0.51137  0.76423  1.0000
  Fe  Fe196     1.0  0.91330  0.55267  0.71952  1.0000
  S   S393      1.0  0.89876  0.51857  0.70692  1.0000
  S   S394      1.0  0.93231  0.59599  0.71202  1.0000
  Fe  Fe197     1.0  0.85825  0.50881  0.71735  1.0000
  C   C980      1.0  0.94782  0.59699  0.68639  1.0000
  H   H1582     1.0  0.85355  0.73621  0.60567  1.0000
  S   S395      1.0  0.87202  0.54358  0.72930  1.0000
  S   S396      1.0  0.92725  0.52971  0.73526  1.0000
  C   C981      1.0  0.62286  0.53051  0.78991  1.0000
  S   S397      1.0  0.61061  0.51416  0.72704  1.0000
  H   H1583     1.0  0.92358  0.53549  0.77316  1.0000
  S   S398      1.0  0.81917  0.50198  0.70620  1.0000
  S   S399      1.0  0.67337  0.54378  0.73744  1.0000
  C   C982      1.0  0.71080  0.98146  0.67827  1.0000
  Fe  Fe198     1.0  0.63304  0.51726  0.74570  1.0000
  S   S400      1.0  0.61516  0.52508  0.76414  1.0000
  Fe  Fe199     1.0  0.65226  0.53931  0.71840  1.0000
  S   S401      1.0  0.65907  0.57998  0.70842  1.0000
  C   C983      1.0  0.76842  0.50604  0.71023  1.0000
  C   C984      1.0  0.72587  0.86284  0.60107  1.0000
  H   H1584     1.0  0.82935  0.70816  0.62357  1.0000
  Fe  Fe200     1.0  0.90911  0.49470  0.72316  1.0000
  C   C985      1.0  0.95586  0.65059  0.68194  1.0000
  C   C986      1.0  0.67786  0.53359  0.78914  1.0000
  Fe  Fe201     1.0  0.97190  0.73913  0.63563  1.0000
  H   H1585     1.0  0.83785  0.68018  0.62927  1.0000
  H   H1586     1.0  0.78898  0.89096  0.61402  1.0000
  H   H1587     1.0  0.71232  0.96321  0.67535  1.0000
  H   H1588     1.0  0.90031  0.70705  0.62243  1.0000
  Fe  Fe202     1.0  0.68150  0.50711  0.73356  1.0000
  C   C987      1.0  0.70201  0.62690  0.67135  1.0000
  C   C988      1.0  0.69589  0.63956  0.68160  1.0000
  C   C989      1.0  0.68315  0.62494  0.69287  1.0000
  C   C990      1.0  0.67684  0.59752  0.69423  1.0000
  C   C991      1.0  0.68364  0.58496  0.68412  1.0000
  C   C992      1.0  0.69581  0.59950  0.67275  1.0000
  H   H1589     1.0  0.70022  0.66052  0.68069  1.0000
  H   H1590     1.0  0.67788  0.63497  0.70052  1.0000
  H   H1591     1.0  0.67878  0.56393  0.68489  1.0000
  H   H1592     1.0  0.70023  0.58940  0.66489  1.0000
  C   C993      1.0  0.91156  0.75261  0.64074  1.0000
  C   C994      1.0  0.90734  0.73637  0.65191  1.0000
  C   C995      1.0  0.88358  0.73184  0.65949  1.0000
  C   C996      1.0  0.86373  0.74295  0.65572  1.0000
  C   C997      1.0  0.86812  0.75935  0.64462  1.0000
  C   C998      1.0  0.89221  0.76452  0.63728  1.0000
  H   H1593     1.0  0.92222  0.72717  0.65465  1.0000
  H   H1594     1.0  0.88026  0.71922  0.66812  1.0000
  H   H1595     1.0  0.85307  0.76822  0.64173  1.0000
  H   H1596     1.0  0.89562  0.77745  0.62876  1.0000
  H   H1597     1.0  0.94495  0.57638  0.68799  1.0000
  C   C999      1.0  0.77716  0.86672  0.64913  1.0000
  C   C1000     1.0  0.74850  0.85652  0.65076  1.0000
  C   C1001     1.0  0.73431  0.82936  0.65021  1.0000
  C   C1002     1.0  0.74854  0.81206  0.64801  1.0000
  C   C1003     1.0  0.77720  0.82223  0.64636  1.0000
  C   C1004     1.0  0.79146  0.84936  0.64713  1.0000
  H   H1598     1.0  0.73729  0.86954  0.65263  1.0000
  H   H1599     1.0  0.71216  0.82166  0.65159  1.0000
  H   H1600     1.0  0.78833  0.80920  0.64446  1.0000
  H   H1601     1.0  0.81364  0.85705  0.64591  1.0000
  C   C1005     1.0  0.87124  0.72916  0.60732  1.0000
  C   C1006     1.0  0.88147  0.51739  0.77959  1.0000
  C   C1007     1.0  0.90979  0.52943  0.78137  1.0000
  C   C1008     1.0  0.86386  0.50971  0.79039  1.0000
  N   N101      1.0  0.86193  0.70199  0.61300  1.0000
  H   H1602     1.0  0.95846  0.67111  0.68033  1.0000
  C   C1009     1.0  0.63505  0.52908  0.77815  1.0000
  C   C1010     1.0  0.66262  0.53061  0.77781  1.0000
  C   C1011     1.0  0.69655  0.98196  0.68967  1.0000
  S   S402      1.0  0.66349  0.50390  0.71393  1.0000
  H   H1603     1.0  0.73069  0.89667  0.61848  1.0000
  H   H1604     1.0  0.77258  0.49863  0.74706  1.0000
  N   N102      1.0  0.80569  0.79276  0.67952  1.0000
  C   C1012     1.0  0.77741  0.79274  0.67723  1.0000
  C   C1013     1.0  0.82049  0.79578  0.66719  1.0000
  C   C1014     1.0  0.80443  0.76772  0.68625  1.0000
  C   C1015     1.0  0.82052  0.81482  0.68742  1.0000
  H   H1605     1.0  0.76517  0.78927  0.68626  1.0000
  H   H1606     1.0  0.76601  0.77717  0.67076  1.0000
  H   H1607     1.0  0.77756  0.81179  0.67269  1.0000
  H   H1608     1.0  0.82243  0.81471  0.66195  1.0000
  H   H1609     1.0  0.84160  0.79498  0.66851  1.0000
  H   H1610     1.0  0.80956  0.77969  0.66093  1.0000
  H   H1611     1.0  0.82541  0.76678  0.68784  1.0000
  H   H1612     1.0  0.79325  0.75067  0.68057  1.0000
  H   H1613     1.0  0.79368  0.76478  0.69567  1.0000
  H   H1614     1.0  0.84193  0.81537  0.68932  1.0000
  H   H1615     1.0  0.80988  0.81323  0.69679  1.0000
  H   H1616     1.0  0.82191  0.83402  0.68257  1.0000
  H   H1617     1.0  0.76562  0.84671  0.62357  1.0000
  Fe  Fe203     1.0  0.75728  0.97811  0.64548  1.0000
  H   H1618     1.0  0.60323  0.57367  0.74244  1.0000
  S   S403      1.0  0.79880  0.97571  0.65087  1.0000
  C   C1016     1.0  0.74775  0.50360  0.73123  1.0000
  H   H1619     1.0  0.88589  0.74292  0.61366  1.0000
  C   C1017     1.0  0.96152  0.63683  0.67202  1.0000
  H   H1620     1.0  0.77149  0.90548  0.60282  1.0000
  H   H1621     1.0  0.68408  0.63168  0.74070  1.0000
  H   H1622     1.0  0.71841  0.86538  0.62702  1.0000
  C   C1018     1.0  0.84669  0.70063  0.62507  1.0000
  C   C1019     1.0  0.95721  0.60993  0.67434  1.0000
  C   C1020     1.0  0.73670  0.87975  0.62195  1.0000
  H   H1623     1.0  0.82971  0.56759  0.67487  1.0000
  H   H1624     1.0  0.81330  0.57946  0.68706  1.0000
  H   H1625     1.0  0.85429  0.68483  0.59475  1.0000
  H   H1626     1.0  0.81563  0.54727  0.68902  1.0000
  H   H1627     1.0  0.63115  0.56739  0.73494  1.0000
  H   H1628     1.0  0.83785  0.55821  0.70972  1.0000
  N   N103      1.0  0.85364  0.57879  0.69176  1.0000
  C   C1021     1.0  0.87083  0.56268  0.68927  1.0000
  C   C1022     1.0  0.86804  0.60607  0.68680  1.0000
  C   C1023     1.0  0.84884  0.57850  0.70566  1.0000
  C   C1024     1.0  0.82689  0.56786  0.68537  1.0000
  H   H1629     1.0  0.86021  0.54177  0.69243  1.0000
  H   H1630     1.0  0.89053  0.56947  0.69451  1.0000
  H   H1631     1.0  0.87599  0.56337  0.67895  1.0000
  H   H1632     1.0  0.88810  0.61478  0.69163  1.0000
  H   H1633     1.0  0.87252  0.60706  0.67638  1.0000
  H   H1634     1.0  0.85557  0.61878  0.68839  1.0000
  H   H1635     1.0  0.83606  0.59055  0.70792  1.0000
  H   H1636     1.0  0.86865  0.58634  0.71082  1.0000
  H   H1637     1.0  0.73023  0.82906  0.62038  1.0000
  H   H1638     1.0  0.88206  0.73078  0.59801  1.0000
  H   H1639     1.0  0.68728  0.96399  0.69548  1.0000
  H   H1640     1.0  0.87992  0.67360  0.61994  1.0000
  H   H1641     1.0  0.60162  0.52960  0.79024  1.0000
  C   C1025     1.0  0.66845  0.61546  0.73593  1.0000
  C   C1026     1.0  0.79197  0.50312  0.71584  1.0000
  H   H1642     1.0  0.84194  0.50040  0.78911  1.0000
  H   H1643     1.0  0.66448  0.62324  0.72635  1.0000
  S   S404      1.0  0.73985  0.93793  0.60066  1.0000
  C   C1027     1.0  0.77317  0.88645  0.60641  1.0000
  H   H1644     1.0  0.86023  0.71254  0.63235  1.0000
  H   H1645     1.0  0.89834  0.69504  0.60677  1.0000
  H   H1646     1.0  0.83600  0.66357  0.60799  1.0000
  N   N104      1.0  0.64279  0.60424  0.74367  1.0000
  S   S405      1.0  0.71945  0.50052  0.74121  1.0000
  H   H1647     1.0  0.67792  0.60035  0.73417  1.0000
  C   C1028     1.0  0.77141  0.50092  0.73678  1.0000
  C   C1029     1.0  0.62271  0.58305  0.73683  1.0000
  H   H1648     1.0  0.76721  0.50791  0.69995  1.0000
  S   S406      1.0  0.79184  0.72102  0.60596  1.0000
  C   C1030     1.0  0.64890  0.59349  0.75613  1.0000
  H   H1649     1.0  0.65781  0.57779  0.75491  1.0000
  H   H1650     1.0  0.62617  0.63342  0.73651  1.0000
  H   H1651     1.0  0.64557  0.64130  0.75090  1.0000
  H   H1652     1.0  0.66390  0.60889  0.76161  1.0000
  H   H1653     1.0  0.94327  0.64876  0.70171  1.0000
  H   H1654     1.0  0.61154  0.61707  0.75151  1.0000
  H   H1655     1.0  0.61762  0.59036  0.72735  1.0000
  C   C1031     1.0  0.63099  0.62496  0.74575  1.0000
  H   H1656     1.0  0.62991  0.58448  0.76214  1.0000
  Fe  Fe204     1.0  0.75893  0.95462  0.61929  1.0000
  S   S407      1.0  0.96985  0.70083  0.62774  1.0000
  H   H1657     1.0  0.78116  0.87833  0.59842  1.0000
  H   H1658     1.0  0.70535  0.84936  0.60462  1.0000
  H   H1659     1.0  0.75628  0.83340  0.60831  1.0000
  C   C1032     1.0  0.74972  0.84320  0.61608  1.0000
  N   N105      1.0  0.74635  0.86805  0.61137  1.0000
  C   C1033     1.0  0.94709  0.63779  0.69407  1.0000
  C   C1034     1.0  0.79358  0.50095  0.72912  1.0000
  C   C1035     1.0  0.88614  0.69399  0.61563  1.0000
  C   C1036     1.0  0.84359  0.68424  0.60400  1.0000
  H   H1660     1.0  0.73758  0.72046  0.59699  1.0000
  H   H1661     1.0  0.96151  0.59901  0.66679  1.0000
  H   H1662     1.0  0.58029  0.97666  0.69464  1.0000
  H   H1663     1.0  0.69923  0.53494  0.78875  1.0000
  H   H1664     1.0  0.82511  0.68982  0.60189  1.0000
  H   H1665     1.0  0.81172  0.49879  0.73353  1.0000
  S   S408      1.0  0.97582  0.65240  0.65692  1.0000
  H   H1666     1.0  0.61674  0.98586  0.69174  1.0000
  Fe  Fe205     1.0  0.63211  0.53343  0.97874  1.0000
  H   H1667     1.0  0.85950  0.58050  0.91481  1.0000
  S   S409      1.0  0.85085  0.49147  0.87081  1.0000
  Fe  Fe206     1.0  0.63409  0.50924  0.95282  1.0000
  C   C1037     1.0  0.96384  0.50788  0.94037  1.0000
  S   S410      1.0  0.61367  0.50423  0.93343  1.0000
  H   H1668     1.0  0.69015  0.51167  0.91873  1.0000
  Fe  Fe207     1.0  0.68394  0.52236  0.97014  1.0000
  S   S411      1.0  0.73056  0.54180  0.96794  1.0000
  H   H1669     1.0  0.71845  0.50768  0.82713  1.0000
  S   S412      1.0  0.65986  0.54654  0.96129  1.0000
  N   N106      1.0  0.85591  0.56418  0.89635  1.0000
  S   S413      1.0  0.94640  0.53146  0.96963  1.0000
  Fe  Fe208     1.0  0.86713  0.50644  0.97555  1.0000
  S   S414      1.0  0.89286  0.54920  0.97390  1.0000
  S   S415      1.0  0.60871  0.55912  0.98595  1.0000
  Fe  Fe209     1.0  0.91331  0.53808  0.95729  1.0000
  S   S416      1.0  0.92383  0.56252  0.93854  1.0000
  H   H1670     1.0  0.81536  0.55713  0.90410  1.0000
  N   N107      1.0  0.76167  0.52972  0.82457  1.0000
  C   C1038     1.0  0.96822  0.49668  0.91873  1.0000
  S   S417      1.0  0.60462  0.49750  0.96955  1.0000
  Fe  Fe210     1.0  0.65151  0.53118  0.86240  1.0000
  C   C1039     1.0  0.61678  0.59503  0.95614  1.0000
  S   S418      1.0  0.65942  0.55807  0.87885  1.0000
  Fe  Fe211     1.0  0.66442  0.52317  0.83435  1.0000
  H   H1671     1.0  0.57161  0.55326  0.96236  1.0000
  S   S419      1.0  0.68519  0.53753  0.81500  1.0000
  H   H1672     1.0  0.74011  0.55513  0.83008  1.0000
  H   H1673     1.0  0.77615  0.55333  0.80719  1.0000
  H   H1674     1.0  0.62781  0.61453  0.95129  1.0000
  S   S420      1.0  0.62853  0.52966  0.84388  1.0000
  S   S421      1.0  0.68918  0.52981  0.85227  1.0000
  Fe  Fe212     1.0  0.89639  0.51128  0.86815  1.0000
  H   H1675     1.0  0.58792  0.60674  0.93678  1.0000
  S   S422      1.0  0.92441  0.51354  0.88513  1.0000
  Fe  Fe213     1.0  0.89168  0.51918  0.83872  1.0000
  S   S423      1.0  0.63380  0.48797  0.86730  1.0000
  S   S424      1.0  0.91672  0.53156  0.82013  1.0000
  Fe  Fe214     1.0  0.84805  0.52324  0.85693  1.0000
  S   S425      1.0  0.81853  0.54378  0.86146  1.0000
  H   H1676     1.0  0.77694  0.57051  0.82872  1.0000
  S   S426      1.0  0.89369  0.54480  0.85525  1.0000
  H   H1677     1.0  0.80606  0.54400  0.82403  1.0000
  C   C1040     1.0  0.90255  0.52638  0.80461  1.0000
  C   C1041     1.0  0.76858  0.49007  0.97979  1.0000
  H   H1678     1.0  0.82506  0.52840  0.90360  1.0000
  H   H1679     1.0  0.95102  0.58377  0.91482  1.0000
  H   H1680     1.0  0.73940  0.53836  0.80858  1.0000
  C   C1042     1.0  0.63792  0.53289  0.80129  1.0000
  C   C1043     1.0  0.76010  0.55193  0.83168  1.0000
  C   C1044     1.0  0.82678  0.54735  0.89841  1.0000
  C   C1045     1.0  0.76404  0.52927  0.86781  1.0000
  C   C1046     1.0  0.78539  0.52080  0.86409  1.0000
  H   H1681     1.0  0.86094  0.54656  0.87915  1.0000
  H   H1682     1.0  0.60489  0.59799  0.96441  1.0000
  S   S427      1.0  0.84567  0.50050  0.83950  1.0000
  H   H1683     1.0  0.76831  0.54966  0.86970  1.0000
  C   C1047     1.0  0.86947  0.56990  0.90882  1.0000
  H   H1684     1.0  0.72877  0.51225  0.90423  1.0000
  C   C1048     1.0  0.92157  0.54859  0.92357  1.0000
  C   C1049     1.0  0.93758  0.56393  0.91336  1.0000
  C   C1050     1.0  0.93722  0.55352  0.90138  1.0000
  C   C1051     1.0  0.92032  0.52781  0.89936  1.0000
  C   C1052     1.0  0.90362  0.51256  0.90946  1.0000
  C   C1053     1.0  0.90423  0.52294  0.92155  1.0000
  H   H1685     1.0  0.62831  0.53391  0.81030  1.0000
  C   C1054     1.0  0.87011  0.55042  0.88874  1.0000
  H   H1686     1.0  0.65520  0.49154  0.89564  1.0000
  H   H1687     1.0  0.87901  0.60199  0.88754  1.0000
  C   C1055     1.0  0.75537  0.52657  0.97133  1.0000
  H   H1688     1.0  0.95565  0.50861  0.91524  1.0000
  H   H1689     1.0  0.68736  0.51841  0.89515  1.0000
  C   C1056     1.0  0.79643  0.50398  0.97670  1.0000
  C   C1057     1.0  0.80371  0.52927  0.97091  1.0000
  C   C1058     1.0  0.78326  0.54052  0.96830  1.0000
  H   H1690     1.0  0.94996  0.51900  0.93763  1.0000
  S   S428      1.0  0.65812  0.51218  0.98833  1.0000
  H   H1691     1.0  0.82505  0.54021  0.96848  1.0000
  H   H1692     1.0  0.78906  0.56016  0.96388  1.0000
  C   C1059     1.0  0.62715  0.51991  0.91849  1.0000
  C   C1060     1.0  0.65162  0.54149  0.91729  1.0000
  C   C1061     1.0  0.66109  0.55349  0.90511  1.0000
  C   C1062     1.0  0.64654  0.54358  0.89408  1.0000
  C   C1063     1.0  0.62215  0.52199  0.89533  1.0000
  C   C1064     1.0  0.61245  0.51034  0.90748  1.0000
  H   H1693     1.0  0.66314  0.54903  0.92571  1.0000
  H   H1694     1.0  0.67995  0.57026  0.90421  1.0000
  H   H1695     1.0  0.61054  0.51448  0.88694  1.0000
  H   H1696     1.0  0.94214  0.54337  0.79510  1.0000
  N   N108      1.0  0.59865  0.57665  0.94730  1.0000
  C   C1065     1.0  0.61533  0.57269  0.93669  1.0000
  C   C1066     1.0  0.58450  0.55122  0.95427  1.0000
  C   C1067     1.0  0.57794  0.58754  0.94214  1.0000
  H   H1697     1.0  0.60232  0.55867  0.92992  1.0000
  H   H1698     1.0  0.63098  0.56427  0.94028  1.0000
  H   H1699     1.0  0.62646  0.59142  0.93118  1.0000
  H   H1700     1.0  0.59968  0.54298  0.95849  1.0000
  H   H1701     1.0  0.57121  0.53644  0.94791  1.0000
  H   H1702     1.0  0.56506  0.59072  0.94994  1.0000
  H   H1703     1.0  0.56385  0.57402  0.93550  1.0000
  C   C1068     1.0  0.74810  0.50123  0.97706  1.0000
  H   H1704     1.0  0.95071  0.56521  0.89377  1.0000
  C   C1069     1.0  0.85728  0.58898  0.88936  1.0000
  Fe  Fe215     1.0  0.92350  0.53837  0.98648  1.0000
  H   H1705     1.0  0.86863  0.55157  0.91436  1.0000
  C   C1070     1.0  0.75923  0.53529  0.81075  1.0000
  C   C1071     1.0  0.78838  0.52607  0.82700  1.0000
  H   H1706     1.0  0.68248  0.49141  0.88523  1.0000
  H   H1707     1.0  0.63259  0.58734  0.96027  1.0000
  C   C1072     1.0  0.67791  0.49671  0.89484  1.0000
  H   H1708     1.0  0.73997  0.50104  0.83929  1.0000
  C   C1073     1.0  0.73890  0.50561  0.82887  1.0000
  H   H1709     1.0  0.84688  0.54029  0.99172  1.0000
  H   H1710     1.0  0.79087  0.52171  0.83731  1.0000
  H   H1711     1.0  0.81601  0.54258  0.88917  1.0000
  H   H1712     1.0  0.72061  0.51836  0.87152  1.0000
  H   H1713     1.0  0.84680  0.59999  0.89479  1.0000
  C   C1074     1.0  0.66552  0.53450  0.80094  1.0000
  C   C1075     1.0  0.87428  0.51412  0.80282  1.0000
  H   H1714     1.0  0.86862  0.53112  0.89344  1.0000
  H   H1715     1.0  0.89142  0.51111  0.92931  1.0000
  H   H1716     1.0  0.89236  0.56213  0.88725  1.0000
  C   C1076     1.0  0.68115  0.49013  0.91765  1.0000
  H   H1717     1.0  0.89163  0.58224  0.90764  1.0000
  H   H1718     1.0  0.86040  0.50819  0.81097  1.0000
  H   H1719     1.0  0.79034  0.50951  0.82176  1.0000
  C   C1077     1.0  0.73693  0.51160  0.86866  1.0000
  H   H1720     1.0  0.84715  0.58522  0.87990  1.0000
  C   C1078     1.0  0.77980  0.49435  0.86183  1.0000
  H   H1721     1.0  0.76192  0.54837  0.84215  1.0000
  C   C1079     1.0  0.92023  0.53391  0.79383  1.0000
  S   S429      1.0  0.89633  0.49596  0.98902  1.0000
  H   H1722     1.0  0.76007  0.51884  0.80509  1.0000
  H   H1723     1.0  0.73950  0.48831  0.82385  1.0000
  S   S430      1.0  0.88556  0.49605  0.95809  1.0000
  H   H1724     1.0  0.72674  0.49031  0.97946  1.0000
  C   C1080     1.0  0.71855  0.49066  0.90372  1.0000
  S   S431      1.0  0.82146  0.48938  0.98078  1.0000
  H   H1725     1.0  0.89089  0.49247  0.90804  1.0000
  H   H1726     1.0  0.95897  0.50053  0.95048  1.0000
  Fe  Fe216     1.0  0.91704  0.48976  0.97141  1.0000
  H   H1727     1.0  0.59340  0.49378  0.90835  1.0000
  S   S432      1.0  0.89914  0.48786  0.85151  1.0000
  H   H1728     1.0  0.79619  0.48758  0.85900  1.0000
