data_image0
_chemical_formula_structural       C2HCH5S2FeHSH2SHC2H3Fe2HSH3SH2SHSFeCFe2C3H4C6HCH4C6FeH3CH3SHCHCSC6HCHC2HSCH3SCHFeHSH2SHC2NHSC2H2NHCSH4NH2FeSHCHCHC2HC2SNCHCH2CHSFeS2FeSHCSH6CS2FeS2FeH2FeSCHSCSC6H6CHC4NHCHCHC6H4C6H5SH2SH3Fe2CH3NH3CH2NCH4CH2S2NFeSH2FeSHCH6CH2CHC2H4SCH3NHCSH2CHSH2C3H3SFeHC3HCFeHCH3CH4CH6CHSC2NC2H2CHSCH2CH2FeHCSNFeHC2HCSH2C2NSHCH3C2H3SCH4CH3FeCFeS2H2FeH2FeCH3CHSC3HC2H2NS2CHCH2CH3CHSH2FeCH2NH2CFeHSH4CHSFeS2FeS2FeSFeS3H5CNSH3CHFeSH5CH3CH2SHCHCFeCHS3C2SH2CHSFeHC6H3C6HCH2CHNC6H4NHC3HCNH4SH6C2HC2H2CHCSFeHSH3CFeHNSFeHSH4CH4CH3SC3H3FeCH2C2H6CS2FeS2FeS2FeSFeS3NFeS2H2FeH3CS2H2C11H4C6H4C6SH2C6H4S2H2FeH2CH2SHCNC4H5CH6Fe2HCH4CHSHFeH3FeNC4H13SHC2SHSHCHNC4H8CHNHCFeH2SH6C2H8FeS3HCH2FeS3NH2S2C2HFeS2HFe2SHSFeS2FeS2FeSFeS3C6H6C3HCHC2H2CNCSH3C6H4CH2C3H2CH3C2HCHCHC5H4SN2C2H2C2H2CHC4NHNC4H13CHCNC4H9CH5CHCHC2HCH2SHSH3FeH4FeH7C2H4SHS2H2FeS2FeS2FeSFeS4FeS2CNFeH2SFeSHFeSHSC2NFeH2C3H2CH2C3H2C6H4FeCSH2C6H4C6H4C6H3NC4H13NHCHFeH7SH2SH2SHSHN2HCHSFeH3C2H2FeCSH2CHCH5CHNHSH2CHSCHC2NCHC2HSC2H2C2H3CHC3HFeH4CH2CH2C3H4C2HCHCH3CHCSH5CH4CH8FeS2FeS2H2SCH5FeS2FeS2FeSFeS3HS2FeSFeS2FeS2C6H3FeHC2H3NC6H4C6H2FeHC6H4C6H6NFeH4CHCHCH3SCNC3H12CH2CHNC4H11C2H3CHCHC2H8CHNHCH2NSCH5C2HCHSH3CHCHSFeS2FeS2FeSFeHS3NCH2SCHC4H2C6H2FeH3SC2SH2CHC2H3C6H4NC6H4NH2FeHCH2CHC2H4CHNC4H12FeSCS2H7CH2C4SHFeH2CHCHSH2SH2SH8CH2FeS2HCFeH2SFeS2HSH2CFeSHSFeSHFeS2FeCFeS3HC2H2CH3C2HC6H5CHCSCHCH2NC7H4CH3CHNH3C3HSHCH3CHNCHCH4CH2C3HC3HCH2NHNHSH5CH3CHCHC2NH3CH4CHFeHCFeSCFeS2FeSFeS3CS2NHFeS2FeS2FeSFeHS2C2H4CH7C6H4CNHC2HC6H6CFeH5FeH4CH5NS2HCH2FeH3C2H2SCHC3HCH11NC4H11FeC2HSH3C3H3SHC3NC2HCHC2HCHCH2CH3NHCHSHSH3CH2FeSHCFeSCS2H2S2H4S2HSHS2HFeS2FeS2FeSFeS3HCFe2C7H4C6H2CHC6H4CH2C6H3C6H5SHCHNCH10NC2H6Fe2S2HC2SHSCH2FeH4CH4NCHFeHCHCHSCHSCHFeH2CFeCH2CHCNCSH3NHNH2CH6C2FeCFeH3CH5CHCH3SC2HSCH3SH2CHNFeH3CSH4CNH2C2HFe2HC2H2SCH2SH2SHFeS2FeS2FeHFeS3HSNH2C2SCSH3C2FeC7H4C5H2SC3H2C5H4C6H4CHC4HCH2C2H3C3HSHCS2NH4FeH4CH5NCHCH2CH3SHCH2CH5NCH8C3H4NHC2HCH6FeH8CHFeSFeS2FeS2FeSFeS3CS3HFeSFeSH2CH4CH3SHCS2FeCH5CNH3C6H4C2SC3H4C6H5C6H4CH2CH5CFeCH3NHCSCHNH3C2HCSH2CH8C2NHCHCH2CHNC2HSH2FeCH2C2SH2CHFeH2FeH5SFeS2FeS2FeSFeS3CHFeS2FeSHSHC2H2SC3H2CH4C6H4C6H4C6H4C2H2CH2CNC4H2C2NHCHCH3CSHCHCH2CH7CH2SCH2SFe2H2SH5FeCSCHSH5SN2H3C2H2CH5FeCHCFeC2H2SC2HSH2CNHCHCHSHFeSC6H4CH7SHCH2SH3C3NHCHCHSH3SFeHCSCHCHCFeCH4CHSFeSFe2HCH3NHC2SHSCHCH2CHSH2CHC2HSCHCSHSHC2FeCSFeHSCFeSFeSCHS2HCHSCSHNCHCHSH3FeH2SH2C4H2C2H2CHSH2C3HC6H3SFeCH3CHCH2CH4CHC3SH5CH2NHCNC6H5SH4CH4C2FeCHSHCNH4SNCH2CHC2H2C2H2CHC2H5SCHC2HC2H2CH3CHSFeS2CH2FeS2CHFeSHSH2FeS2FeCFeSCS2HCH2SH2CHC2SH3C8H4C6H4C6H4NCH2FeHFeH3CH2NCHCH2CH2CHCH2CH3NSH3CFeC3SH2SHSHCH2SHSH3CH2CFeNHSCH2CHFeH3SHS2HFeH6FeHNH2
_chemical_formula_sum              "C960 H1536 S384 Fe192 N96"
_cell_length_a       62.1345
_cell_length_b       63.6525
_cell_length_c       62.4608
_cell_angle_alpha    80.7698
_cell_angle_beta     80.8396
_cell_angle_gamma    80.6744

_space_group_name_H-M_alt    "P 1"
_space_group_IT_number       1

loop_
  _space_group_symop_operation_xyz
  'x, y, z'

loop_
  _atom_site_type_symbol
  _atom_site_label
  _atom_site_symmetry_multiplicity
  _atom_site_fract_x
  _atom_site_fract_y
  _atom_site_fract_z
  _atom_site_occupancy
  C   C1        1.0  0.37980  0.31605  0.70063  1.0000
  C   C2        1.0  0.09494  0.29487  0.70384  1.0000
  H   H1        1.0  0.05742  0.21659  0.74333  1.0000
  C   C3        1.0  0.44355  0.15396  0.72651  1.0000
  H   H2        1.0  0.19097  0.24620  0.66504  1.0000
  H   H3        1.0  0.06580  0.28379  0.69770  1.0000
  H   H4        1.0  0.04079  0.30734  0.72074  1.0000
  H   H5        1.0  0.16168  0.24917  0.69624  1.0000
  H   H6        1.0  0.36336  0.05164  0.65654  1.0000
  S   S1        1.0  0.43879  0.27557  0.74006  1.0000
  S   S2        1.0  0.29520  0.12199  0.71863  1.0000
  Fe  Fe1       1.0  0.36229  0.00593  0.64502  1.0000
  H   H7        1.0  0.43836  0.18997  0.74536  1.0000
  S   S3        1.0  0.33034  0.02838  0.64924  1.0000
  H   H8        1.0  0.40615  0.04387  0.67507  1.0000
  H   H9        1.0  0.35070  0.07469  0.68610  1.0000
  S   S4        1.0  0.38840  0.00927  0.61586  1.0000
  H   H10       1.0  0.35628  0.19771  0.71526  1.0000
  C   C4        1.0  0.47916  0.20572  0.71854  1.0000
  C   C5        1.0  0.14959  0.25586  0.68469  1.0000
  H   H11       1.0  0.15644  0.29725  0.67736  1.0000
  H   H12       1.0  0.37440  0.31193  0.73581  1.0000
  H   H13       1.0  0.35610  0.09799  0.66691  1.0000
  Fe  Fe2       1.0  0.12877  0.27291  0.74216  1.0000
  Fe  Fe3       1.0  0.40674  0.27240  0.72962  1.0000
  H   H14       1.0  0.06240  0.30881  0.66318  1.0000
  S   S5        1.0  0.39591  0.29090  0.69855  1.0000
  H   H15       1.0  0.13632  0.26668  0.69332  1.0000
  H   H16       1.0  0.30419  0.06633  0.66436  1.0000
  H   H17       1.0  0.18807  0.17018  0.72447  1.0000
  S   S6        1.0  0.09628  0.27782  0.72883  1.0000
  H   H18       1.0  0.29781  0.00064  0.68647  1.0000
  H   H19       1.0  0.13675  0.26207  0.64460  1.0000
  S   S7        1.0  0.20527  0.24395  0.70831  1.0000
  H   H20       1.0  0.34247  0.00871  0.69138  1.0000
  S   S8        1.0  0.41261  0.23633  0.73389  1.0000
  Fe  Fe4       1.0  0.29729  0.09402  0.74547  1.0000
  C   C6        1.0  0.39213  0.05435  0.68317  1.0000
  Fe  Fe5       1.0  0.30749  0.13968  0.74177  1.0000
  Fe  Fe6       1.0  0.44279  0.23970  0.74772  1.0000
  C   C7        1.0  0.47110  0.20329  0.68227  1.0000
  C   C8        1.0  0.46729  0.21372  0.70102  1.0000
  C   C9        1.0  0.41631  0.18294  0.71408  1.0000
  H   H21       1.0  0.36844  0.09210  0.69175  1.0000
  H   H22       1.0  0.39338  0.09914  0.64542  1.0000
  H   H23       1.0  0.46198  0.20958  0.66868  1.0000
  H   H24       1.0  0.45542  0.22813  0.70173  1.0000
  C   C10       1.0  0.45047  0.04006  0.64880  1.0000
  C   C11       1.0  0.46024  0.05872  0.64082  1.0000
  C   C12       1.0  0.47297  0.06666  0.65358  1.0000
  C   C13       1.0  0.47639  0.05578  0.67429  1.0000
  C   C14       1.0  0.46647  0.03722  0.68237  1.0000
  C   C15       1.0  0.45347  0.02940  0.66971  1.0000
  H   H25       1.0  0.45784  0.06713  0.62470  1.0000
  C   C16       1.0  0.36172  0.20723  0.74541  1.0000
  H   H26       1.0  0.46901  0.02874  0.69843  1.0000
  H   H27       1.0  0.44607  0.01498  0.67600  1.0000
  H   H28       1.0  0.33532  0.02129  0.72763  1.0000
  H   H29       1.0  0.37953  0.04397  0.69131  1.0000
  C   C17       1.0  0.22305  0.17097  0.71813  1.0000
  C   C18       1.0  0.20094  0.18032  0.72021  1.0000
  C   C19       1.0  0.19544  0.20274  0.71742  1.0000
  C   C20       1.0  0.21202  0.21588  0.71175  1.0000
  C   C21       1.0  0.23412  0.20654  0.70887  1.0000
  C   C22       1.0  0.23967  0.18409  0.71236  1.0000
  Fe  Fe7       1.0  0.26173  0.13190  0.73667  1.0000
  H   H30       1.0  0.17836  0.20979  0.71929  1.0000
  H   H31       1.0  0.24699  0.21666  0.70435  1.0000
  H   H32       1.0  0.25678  0.17692  0.71057  1.0000
  C   C23       1.0  0.17823  0.25246  0.65398  1.0000
  H   H33       1.0  0.41432  0.07631  0.64852  1.0000
  H   H34       1.0  0.45702  0.16390  0.72038  1.0000
  H   H35       1.0  0.36824  0.07516  0.63756  1.0000
  S   S9        1.0  0.22944  0.14297  0.72381  1.0000
  H   H36       1.0  0.17781  0.29463  0.65459  1.0000
  C   C24       1.0  0.48671  0.18481  0.68101  1.0000
  H   H37       1.0  0.18191  0.28009  0.68106  1.0000
  C   C25       1.0  0.11041  0.30896  0.69605  1.0000
  S   S10       1.0  0.31127  0.05938  0.74268  1.0000
  C   C26       1.0  0.31576  0.05106  0.71664  1.0000
  C   C27       1.0  0.30689  0.06370  0.69878  1.0000
  C   C28       1.0  0.31102  0.05650  0.67816  1.0000
  C   C29       1.0  0.32421  0.03682  0.67531  1.0000
  C   C30       1.0  0.33280  0.02414  0.69326  1.0000
  C   C31       1.0  0.32852  0.03118  0.71385  1.0000
  H   H38       1.0  0.29678  0.07895  0.70086  1.0000
  C   C32       1.0  0.09150  0.32268  0.66435  1.0000
  H   H39       1.0  0.48011  0.08122  0.64742  1.0000
  C   C33       1.0  0.37578  0.06252  0.64971  1.0000
  C   C34       1.0  0.39987  0.08565  0.65741  1.0000
  H   H40       1.0  0.15114  0.28467  0.63381  1.0000
  S   S11       1.0  0.33332  0.16121  0.72706  1.0000
  C   C35       1.0  0.49858  0.17696  0.69856  1.0000
  H   H41       1.0  0.18669  0.26055  0.63853  1.0000
  H   H42       1.0  0.29318  0.27523  0.73366  1.0000
  H   H43       1.0  0.39833  0.06076  0.69623  1.0000
  S   S12       1.0  0.49329  0.06461  0.69029  1.0000
  C   C36       1.0  0.07768  0.29481  0.69190  1.0000
  H   H44       1.0  0.40600  0.09264  0.67012  1.0000
  Fe  Fe8       1.0  0.41187  0.00529  0.64069  1.0000
  H   H45       1.0  0.38984  0.05289  0.64064  1.0000
  S   S13       1.0  0.15886  0.28835  0.72807  1.0000
  H   H46       1.0  0.12983  0.28639  0.65670  1.0000
  H   H47       1.0  0.35227  0.28173  0.72797  1.0000
  S   S14       1.0  0.38537  0.00392  0.66955  1.0000
  H   H48       1.0  0.33180  0.30104  0.71569  1.0000
  C   C37       1.0  0.14382  0.27545  0.64917  1.0000
  C   C38       1.0  0.35346  0.19459  0.73296  1.0000
  N   N1        1.0  0.16027  0.26736  0.66433  1.0000
  H   H49       1.0  0.14207  0.24220  0.68138  1.0000
  S   S15       1.0  0.43471  0.03093  0.63191  1.0000
  C   C39       1.0  0.36373  0.08476  0.67846  1.0000
  C   C40       1.0  0.16950  0.28564  0.66955  1.0000
  H   H50       1.0  0.17197  0.23831  0.65005  1.0000
  H   H51       1.0  0.41410  0.17458  0.70041  1.0000
  N   N2        1.0  0.38287  0.07185  0.66720  1.0000
  H   H52       1.0  0.40061  0.19344  0.71842  1.0000
  C   C41       1.0  0.33458  0.28491  0.72564  1.0000
  S   S16       1.0  0.49136  0.17185  0.65745  1.0000
  H   H53       1.0  0.40202  0.14505  0.72807  1.0000
  H   H54       1.0  0.50409  0.18106  0.73073  1.0000
  H   H55       1.0  0.33184  0.27278  0.71572  1.0000
  H   H56       1.0  0.37061  0.22017  0.73729  1.0000
  N   N3        1.0  0.42259  0.16749  0.73315  1.0000
  H   H57       1.0  0.12334  0.30962  0.70547  1.0000
  H   H58       1.0  0.42907  0.19362  0.70768  1.0000
  Fe  Fe9       1.0  0.17738  0.25515  0.73328  1.0000
  S   S17       1.0  0.47539  0.21874  0.74190  1.0000
  H   H59       1.0  0.44212  0.14486  0.71311  1.0000
  C   C42       1.0  0.07575  0.30894  0.67237  1.0000
  H   H60       1.0  0.29246  0.30367  0.73350  1.0000
  C   C43       1.0  0.34165  0.17786  0.74327  1.0000
  H   H61       1.0  0.38922  0.16343  0.74678  1.0000
  C   C44       1.0  0.40511  0.15375  0.74114  1.0000
  C   C45       1.0  0.49478  0.18732  0.71727  1.0000
  H   H62       1.0  0.44893  0.14211  0.74044  1.0000
  C   C46       1.0  0.29677  0.28751  0.74292  1.0000
  C   C47       1.0  0.10887  0.32262  0.67618  1.0000
  S   S18       1.0  0.14706  0.23947  0.74419  1.0000
  N   N4        1.0  0.32001  0.28387  0.74685  1.0000
  C   C48       1.0  0.37086  0.32226  0.72104  1.0000
  H   H63       1.0  0.01278  0.32039  0.72298  1.0000
  C   C49       1.0  0.03023  0.32305  0.71766  1.0000
  H   H64       1.0  0.50428  0.24926  0.74819  1.0000
  H   H65       1.0  0.50429  0.03569  0.63188  1.0000
  C   C50       1.0  0.44989  0.31509  0.81659  1.0000
  H   H66       1.0  0.01016  0.11113  0.93394  1.0000
  S   S19       1.0  0.18365  0.25706  0.76716  1.0000
  Fe  Fe10      1.0  0.20196  0.02307  0.85841  1.0000
  S   S20       1.0  0.19906  0.02779  0.82282  1.0000
  S   S21       1.0  0.21707  0.04634  0.87304  1.0000
  Fe  Fe11      1.0  0.16467  0.02005  0.83407  1.0000
  S   S22       1.0  0.13828  0.04262  0.81737  1.0000
  H   H67       1.0  0.21368  0.15759  0.81109  1.0000
  C   C51       1.0  0.16400  0.08192  0.83511  1.0000
  S   S23       1.0  0.16698  0.01733  0.86986  1.0000
  H   H68       1.0  0.29504  0.05687  0.78791  1.0000
  H   H69       1.0  0.13074  0.10811  0.87411  1.0000
  H   H70       1.0  0.29850  0.02195  0.77333  1.0000
  H   H71       1.0  0.21982  0.20385  0.81076  1.0000
  H   H72       1.0  0.07580  0.23520  0.78998  1.0000
  H   H73       1.0  0.16982  0.10593  0.87832  1.0000
  C   C52       1.0  0.03649  0.22085  0.79639  1.0000
  S   S24       1.0  0.42612  0.23949  0.78241  1.0000
  S   S25       1.0  0.42346  0.30236  0.79158  1.0000
  Fe  Fe12      1.0  0.04198  0.13024  0.85627  1.0000
  S   S26       1.0  0.02973  0.15285  0.88130  1.0000
  S   S27       1.0  0.05969  0.09829  0.87070  1.0000
  Fe  Fe13      1.0  0.01910  0.16074  0.82076  1.0000
  H   H74       1.0  0.47188  0.27372  0.96230  1.0000
  H   H75       1.0  0.34349  0.18339  0.79629  1.0000
  Fe  Fe14      1.0  0.03862  0.17864  0.85381  1.0000
  S   S28       1.0  0.05371  0.20797  0.85575  1.0000
  C   C53       1.0  0.04449  0.21864  0.75766  1.0000
  H   H76       1.0  0.08183  0.19432  0.76908  1.0000
  S   S29       1.0  0.05344  0.15597  0.82973  1.0000
  C   C54       1.0  0.26548  0.02157  0.82228  1.0000
  S   S30       1.0  0.14861  0.21412  0.80251  1.0000
  C   C55       1.0  0.08011  0.20938  0.84098  1.0000
  C   C56       1.0  0.09453  0.19074  0.83684  1.0000
  C   C57       1.0  0.11558  0.19231  0.82505  1.0000
  C   C58       1.0  0.12210  0.21251  0.81700  1.0000
  C   C59       1.0  0.10758  0.23113  0.82094  1.0000
  C   C60       1.0  0.08675  0.22955  0.83316  1.0000
  H   H77       1.0  0.08964  0.17513  0.84315  1.0000
  H   H78       1.0  0.12680  0.17788  0.82215  1.0000
  H   H79       1.0  0.11264  0.24675  0.81514  1.0000
  H   H80       1.0  0.07574  0.24400  0.83654  1.0000
  H   H81       1.0  0.16374  0.06530  0.84398  1.0000
  H   H82       1.0  0.48416  0.24012  0.80780  1.0000
  C   C61       1.0  0.48507  0.24517  0.78982  1.0000
  H   H83       1.0  0.17465  0.12187  0.82833  1.0000
  C   C62       1.0  0.47069  0.29131  0.84284  1.0000
  C   C63       1.0  0.46198  0.27387  0.83800  1.0000
  C   C64       1.0  0.44746  0.27701  0.82227  1.0000
  C   C65       1.0  0.44150  0.29764  0.81143  1.0000
  N   N5        1.0  0.15806  0.09814  0.85033  1.0000
  H   H84       1.0  0.19101  0.09676  0.85752  1.0000
  C   C66       1.0  0.33776  0.17409  0.76614  1.0000
  H   H85       1.0  0.19377  0.19372  0.81694  1.0000
  C   C67       1.0  0.13587  0.09616  0.86243  1.0000
  H   H86       1.0  0.27820  0.01426  0.83298  1.0000
  C   C68       1.0  0.11627  0.05775  0.83237  1.0000
  C   C69       1.0  0.11080  0.05245  0.85498  1.0000
  C   C70       1.0  0.09326  0.06490  0.86643  1.0000
  C   C71       1.0  0.08126  0.08293  0.85547  1.0000
  C   C72       1.0  0.08682  0.08834  0.83288  1.0000
  C   C73       1.0  0.10417  0.07569  0.82137  1.0000
  H   H87       1.0  0.11983  0.03855  0.86358  1.0000
  H   H88       1.0  0.08902  0.06056  0.88389  1.0000
  H   H89       1.0  0.07763  0.10213  0.82425  1.0000
  H   H90       1.0  0.10824  0.07982  0.80386  1.0000
  C   C74       1.0  0.22969  0.06737  0.85657  1.0000
  C   C75       1.0  0.24098  0.07958  0.86654  1.0000
  C   C76       1.0  0.25127  0.09648  0.85417  1.0000
  C   C77       1.0  0.25059  0.10126  0.83162  1.0000
  C   C78       1.0  0.23879  0.08947  0.82161  1.0000
  C   C79       1.0  0.22831  0.07257  0.83410  1.0000
  H   H91       1.0  0.24191  0.07588  0.88393  1.0000
  H   H92       1.0  0.26012  0.10568  0.86207  1.0000
  H   H93       1.0  0.23758  0.09350  0.80434  1.0000
  H   H94       1.0  0.21918  0.06363  0.82635  1.0000
  H   H95       1.0  0.46751  0.25495  0.93138  1.0000
  S   S31       1.0  0.27371  0.15188  0.75748  1.0000
  H   H96       1.0  0.26514  0.04821  0.77049  1.0000
  H   H97       1.0  0.14603  0.12307  0.82583  1.0000
  S   S32       1.0  0.26262  0.10215  0.76135  1.0000
  H   H98       1.0  0.18154  0.17495  0.79084  1.0000
  H   H99       1.0  0.13518  0.07986  0.87197  1.0000
  H   H100      1.0  0.12328  0.09880  0.85107  1.0000
  Fe  Fe15      1.0  0.15153  0.24396  0.77791  1.0000
  Fe  Fe16      1.0  0.41959  0.27534  0.77367  1.0000
  C   C80       1.0  0.20576  0.20050  0.80343  1.0000
  H   H101      1.0  0.28189  0.00182  0.78712  1.0000
  H   H102      1.0  0.05810  0.18347  0.78436  1.0000
  H   H103      1.0  0.22970  0.15349  0.78519  1.0000
  N   N6        1.0  0.21318  0.18577  0.78684  1.0000
  H   H104      1.0  0.19894  0.16994  0.76573  1.0000
  H   H105      1.0  0.07522  0.19574  0.79791  1.0000
  H   H106      1.0  0.21021  0.28933  0.77352  1.0000
  C   C81       1.0  0.28771  0.04864  0.80385  1.0000
  H   H107      1.0  0.30417  0.00758  0.79945  1.0000
  H   H108      1.0  0.24637  0.05362  0.79453  1.0000
  N   N7        1.0  0.48825  0.27940  0.92929  1.0000
  C   C82       1.0  0.48381  0.25916  0.92320  1.0000
  H   H109      1.0  0.03409  0.20560  0.75929  1.0000
  H   H110      1.0  0.46645  0.25791  0.84645  1.0000
  H   H111      1.0  0.24847  0.29325  0.77688  1.0000
  H   H112      1.0  0.32230  0.24934  0.75097  1.0000
  C   C83       1.0  0.29070  0.01496  0.78968  1.0000
  H   H113      1.0  0.25393  0.03353  0.83117  1.0000
  H   H114      1.0  0.44055  0.26357  0.81883  1.0000
  S   S33       1.0  0.38706  0.27465  0.76264  1.0000
  S   S34       1.0  0.31194  0.11088  0.76748  1.0000
  N   N8        1.0  0.05427  0.21798  0.77788  1.0000
  Fe  Fe17      1.0  0.27679  0.12136  0.78107  1.0000
  S   S35       1.0  0.01370  0.16878  0.78516  1.0000
  H   H115      1.0  0.22043  0.21113  0.76065  1.0000
  H   H116      1.0  0.02586  0.20790  0.79904  1.0000
  Fe  Fe18      1.0  0.16281  0.28940  0.76298  1.0000
  S   S36       1.0  0.13091  0.27647  0.77690  1.0000
  H   H117      1.0  0.23444  0.18497  0.75632  1.0000
  C   C84       1.0  0.32487  0.26246  0.75975  1.0000
  H   H118      1.0  0.04325  0.22043  0.81195  1.0000
  H   H119      1.0  0.30136  0.04213  0.81365  1.0000
  H   H120      1.0  0.25598  0.00870  0.82057  1.0000
  H   H121      1.0  0.15374  0.13255  0.84873  1.0000
  H   H122      1.0  0.49178  0.29212  0.95821  1.0000
  H   H123      1.0  0.45435  0.29395  0.93060  1.0000
  C   C85       1.0  0.22449  0.16525  0.79709  1.0000
  H   H124      1.0  0.27682  0.06120  0.81252  1.0000
  H   H125      1.0  0.23960  0.16759  0.80341  1.0000
  C   C86       1.0  0.23633  0.30739  0.77508  1.0000
  H   H126      1.0  0.40981  0.18960  0.75635  1.0000
  C   C87       1.0  0.17422  0.09456  0.86601  1.0000
  C   C88       1.0  0.19397  0.18160  0.77775  1.0000
  H   H127      1.0  0.47083  0.29941  0.90458  1.0000
  H   H128      1.0  0.04703  0.31613  0.75567  1.0000
  H   H129      1.0  0.18076  0.08269  0.82588  1.0000
  H   H130      1.0  0.15227  0.08420  0.82290  1.0000
  S   S37       1.0  0.36992  0.21762  0.78429  1.0000
  C   C89       1.0  0.15814  0.11989  0.83775  1.0000
  H   H131      1.0  0.17531  0.07792  0.87507  1.0000
  H   H132      1.0  0.18551  0.19664  0.76916  1.0000
  H   H133      1.0  0.24829  0.02835  0.78457  1.0000
  N   N9        1.0  0.27547  0.03152  0.80072  1.0000
  H   H134      1.0  0.43024  0.16816  0.76542  1.0000
  C   C90       1.0  0.21459  0.30511  0.77325  1.0000
  S   S38       1.0  0.26423  0.12239  0.81681  1.0000
  H   H135      1.0  0.50087  0.26384  0.95884  1.0000
  H   H136      1.0  0.48481  0.23062  0.78210  1.0000
  C   C91       1.0  0.34621  0.18663  0.77859  1.0000
  H   H137      1.0  0.48369  0.26050  0.90518  1.0000
  S   S39       1.0  0.48940  0.28694  0.86209  1.0000
  H   H138      1.0  0.49012  0.28605  0.79065  1.0000
  H   H139      1.0  0.05834  0.25148  0.77159  1.0000
  C   C92       1.0  0.22850  0.19575  0.76899  1.0000
  C   C93       1.0  0.06798  0.19695  0.78248  1.0000
  C   C94       1.0  0.46450  0.31194  0.83216  1.0000
  H   H140      1.0  0.02867  0.07093  0.91120  1.0000
  H   H141      1.0  0.32867  0.16123  0.77423  1.0000
  H   H142      1.0  0.19726  0.21616  0.79617  1.0000
  S   S40       1.0  0.17082  0.32080  0.77025  1.0000
  Fe  Fe19      1.0  0.39534  0.23878  0.76789  1.0000
  H   H143      1.0  0.46979  0.25633  0.78673  1.0000
  C   C95       1.0  0.48815  0.27714  0.95324  1.0000
  C   C96       1.0  0.25803  0.04083  0.78699  1.0000
  C   C97       1.0  0.47106  0.29712  0.92262  1.0000
  H   H144      1.0  0.24324  0.19919  0.77514  1.0000
  C   C98       1.0  0.32373  0.30070  0.75911  1.0000
  Fe  Fe20      1.0  0.20950  0.99223  0.82478  1.0000
  H   H145      1.0  0.02582  0.11008  0.90725  1.0000
  C   C99       1.0  0.00888  0.11079  0.91644  1.0000
  H   H146      1.0  0.34106  0.29864  0.76236  1.0000
  H   H147      1.0  0.28539  0.28692  0.75863  1.0000
  H   H148      1.0  0.47387  0.31265  0.92700  1.0000
  C   C100      1.0  0.35848  0.20301  0.76826  1.0000
  H   H149      1.0  0.34226  0.25916  0.76313  1.0000
  H   H150      1.0  0.40949  0.14158  0.75523  1.0000
  H   H151      1.0  0.31418  0.26108  0.77586  1.0000
  H   H152      1.0  0.02567  0.23647  0.79354  1.0000
  C   C101      1.0  0.06811  0.23535  0.77503  1.0000
  H   H153      1.0  0.03379  0.23418  0.75383  1.0000
  H   H154      1.0  0.31291  0.30040  0.77518  1.0000
  H   H155      1.0  0.08172  0.23371  0.76118  1.0000
  H   H156      1.0  0.49660  0.24548  0.92773  1.0000
  H   H157      1.0  0.01411  0.07103  0.93850  1.0000
  H   H158      1.0  0.48986  0.27482  0.75428  1.0000
  C   C102      1.0  0.01193  0.07216  0.92098  1.0000
  H   H159      1.0  0.01242  0.09293  0.87986  1.0000
  S   S41       1.0  0.00907  0.13267  0.84480  1.0000
  C   C103      1.0  0.19848  0.32316  0.77171  1.0000
  C   C104      1.0  0.42538  0.17933  0.75082  1.0000
  N   N10       1.0  0.50492  0.25543  0.78090  1.0000
  C   C105      1.0  0.50467  0.26288  0.75726  1.0000
  C   C106      1.0  0.50510  0.27399  0.79238  1.0000
  H   H160      1.0  0.31993  0.31706  0.74990  1.0000
  H   H161      1.0  0.45064  0.50480  0.04054  1.0000
  C   C107      1.0  0.47588  0.64700  0.07087  1.0000
  H   H162      1.0  0.47089  0.52093  0.02577  1.0000
  S   S42       1.0  0.39196  0.59285  0.02506  1.0000
  C   C108      1.0  0.47141  0.61065  0.06668  1.0000
  H   H163      1.0  0.44313  0.64720  0.03160  1.0000
  H   H164      1.0  0.42511  0.56085  0.04685  1.0000
  C   C109      1.0  0.33005  0.65450  0.13627  1.0000
  H   H165      1.0  0.34457  0.64303  0.14097  1.0000
  H   H166      1.0  0.29150  0.62053  0.14878  1.0000
  Fe  Fe21      1.0  0.42051  0.61165  0.01575  1.0000
  H   H167      1.0  0.32854  0.63986  0.09901  1.0000
  C   C110      1.0  0.45332  0.64086  0.04432  1.0000
  S   S43       1.0  0.44788  0.60035  0.03697  1.0000
  N   N11       1.0  0.31263  0.64324  0.13165  1.0000
  Fe  Fe22      1.0  0.37076  0.62432  0.01801  1.0000
  H   H168      1.0  0.33530  0.61735  0.11906  1.0000
  C   C111      1.0  0.45798  0.61863  0.05022  1.0000
  C   C112      1.0  0.48016  0.62478  0.07712  1.0000
  H   H169      1.0  0.47490  0.59349  0.07147  1.0000
  C   C113      1.0  0.30461  0.62933  0.15168  1.0000
  S   S44       1.0  0.33920  0.63563  0.03873  1.0000
  H   H170      1.0  0.45435  0.50911  0.01111  1.0000
  H   H171      1.0  0.31816  0.61728  0.15771  1.0000
  C   C114      1.0  0.34279  0.65473  0.05469  1.0000
  C   C115      1.0  0.41536  0.53031  0.02633  1.0000
  N   N12       1.0  0.43741  0.53630  0.02623  1.0000
  S   S45       1.0  0.39893  0.64354  0.01135  1.0000
  H   H172      1.0  0.30886  0.62178  0.10955  1.0000
  C   C116      1.0  0.45407  0.51691  0.02591  1.0000
  H   H173      1.0  0.43387  0.53492  0.06129  1.0000
  H   H174      1.0  0.37732  0.64355  0.05534  1.0000
  H   H175      1.0  0.43035  0.56656  0.00633  1.0000
  C   C117      1.0  0.44265  0.55186  0.00655  1.0000
  C   C118      1.0  0.32170  0.62994  0.11408  1.0000
  H   H176      1.0  0.23685  0.64926  0.23928  1.0000
  H   H177      1.0  0.45902  0.55707  0.00598  1.0000
  H   H178      1.0  0.41079  0.51855  0.04089  1.0000
  S   S46       1.0  0.49739  0.63146  0.13929  1.0000
  C   C119      1.0  0.43757  0.54619  0.04606  1.0000
  H   H179      1.0  0.29747  0.63893  0.16522  1.0000
  H   H180      1.0  0.45380  0.55140  0.04628  1.0000
  H   H181      1.0  0.41453  0.52312  0.01140  1.0000
  H   H182      1.0  0.26934  0.64806  0.21080  1.0000
  C   C120      1.0  0.46237  0.65495  0.05451  1.0000
  H   H183      1.0  0.40240  0.54461  0.02648  1.0000
  H   H184      1.0  0.49019  0.61856  0.08997  1.0000
  H   H185      1.0  0.28067  0.65134  0.12095  1.0000
  Fe  Fe23      1.0  0.50000  0.65632  0.16008  1.0000
  C   C121      1.0  0.36362  0.65547  0.06001  1.0000
  Fe  Fe24      1.0  0.03720  0.61950  0.39168  1.0000
  S   S47       1.0  0.04931  0.59928  0.36482  1.0000
  S   S48       1.0  0.05542  0.60751  0.42090  1.0000
  H   H186      1.0  0.13893  0.63486  0.34810  1.0000
  H   H187      1.0  0.08889  0.59892  0.44916  1.0000
  Fe  Fe25      1.0  0.04686  0.63008  0.34194  1.0000
  H   H188      1.0  0.45272  0.65347  0.30875  1.0000
  H   H189      1.0  0.03650  0.52972  0.44438  1.0000
  Fe  Fe26      1.0  0.13322  0.65632  0.47968  1.0000
  C   C122      1.0  0.09181  0.65195  0.44883  1.0000
  H   H190      1.0  0.07713  0.54088  0.41293  1.0000
  H   H191      1.0  0.10893  0.62271  0.46424  1.0000
  H   H192      1.0  0.03138  0.53036  0.38560  1.0000
  C   C123      1.0  0.09660  0.62962  0.45371  1.0000
  H   H193      1.0  0.11713  0.64841  0.33326  1.0000
  S   S49       1.0  0.16160  0.62996  0.47490  1.0000
  C   C124      1.0  0.09937  0.62816  0.37103  1.0000
  C   C125      1.0  0.08523  0.61618  0.44514  1.0000
  C   C126      1.0  0.06919  0.62494  0.43146  1.0000
  H   H194      1.0  0.11249  0.65102  0.28840  1.0000
  C   C127      1.0  0.02282  0.56025  0.41268  1.0000
  C   C128      1.0  0.06199  0.55289  0.41394  1.0000
  H   H195      1.0  0.09046  0.62776  0.35701  1.0000
  H   H196      1.0  0.05365  0.51228  0.42662  1.0000
  N   N13       1.0  0.10989  0.64785  0.36813  1.0000
  S   S50       1.0  0.07482  0.63541  0.31486  1.0000
  S   S51       1.0  0.03741  0.65054  0.36882  1.0000
  C   C129      1.0  0.06456  0.64727  0.42639  1.0000
  H   H197      1.0  0.11170  0.61341  0.37231  1.0000
  C   C130      1.0  0.03914  0.52506  0.42761  1.0000
  H   H198      1.0  0.48040  0.64232  0.29936  1.0000
  H   H199      1.0  0.06059  0.52450  0.38663  1.0000
  C   C131      1.0  0.12177  0.64753  0.38692  1.0000
  H   H200      1.0  0.04848  0.55077  0.37561  1.0000
  H   H201      1.0  0.08716  0.62711  0.38612  1.0000
  H   H202      1.0  0.05204  0.65418  0.41608  1.0000
  C   C132      1.0  0.04595  0.53697  0.38875  1.0000
  H   H203      1.0  0.02449  0.51789  0.42565  1.0000
  S   S52       1.0  0.01257  0.62763  0.33681  1.0000
  H   H204      1.0  0.13495  0.63347  0.38825  1.0000
  H   H205      1.0  0.06512  0.56693  0.40132  1.0000
  Fe  Fe27      1.0  0.01365  0.59872  0.36273  1.0000
  C   C133      1.0  0.12554  0.64877  0.34763  1.0000
  H   H206      1.0  0.05973  0.55878  0.43014  1.0000
  H   H207      1.0  0.45753  0.63224  0.29204  1.0000
  N   N14       1.0  0.04249  0.54378  0.41074  1.0000
  H   H208      1.0  0.02480  0.57446  0.40010  1.0000
  H   H209      1.0  0.11047  0.64645  0.40267  1.0000
  C   C134      1.0  0.46360  0.64706  0.29456  1.0000
  Fe  Fe28      1.0  0.18305  0.65365  0.47969  1.0000
  H   H210      1.0  0.01982  0.56612  0.42890  1.0000
  S   S53       1.0  0.21607  0.65750  0.45950  1.0000
  H   H211      1.0  0.49532  0.64919  0.25989  1.0000
  H   H212      1.0  0.00775  0.55410  0.41015  1.0000
  H   H213      1.0  0.02973  0.65644  0.29385  1.0000
  H   H214      1.0  0.43434  0.65495  0.26576  1.0000
  C   C135      1.0  0.47813  0.65413  0.25622  1.0000
  H   H215      1.0  0.47221  0.63981  0.25221  1.0000
  S   S54       1.0  0.15975  0.58820  0.52732  1.0000
  Fe  Fe29      1.0  0.15631  0.53173  0.64707  1.0000
  S   S55       1.0  0.12814  0.51664  0.66765  1.0000
  S   S56       1.0  0.14956  0.56602  0.63072  1.0000
  Fe  Fe30      1.0  0.19007  0.49365  0.66037  1.0000
  S   S57       1.0  0.16477  0.47564  0.68173  1.0000
  S   S58       1.0  0.22517  0.47787  0.65862  1.0000
  Fe  Fe31      1.0  0.14423  0.48619  0.65438  1.0000
  S   S59       1.0  0.13095  0.46075  0.64037  1.0000
  Fe  Fe32      1.0  0.15138  0.50751  0.69287  1.0000
  S   S60       1.0  0.14087  0.51027  0.72851  1.0000
  S   S61       1.0  0.17091  0.50204  0.63188  1.0000
  S   S62       1.0  0.17817  0.52483  0.67345  1.0000
  H   H216      1.0  0.14527  0.48791  0.59832  1.0000
  H   H217      1.0  0.03193  0.32813  0.69961  1.0000
  H   H218      1.0  0.14394  0.49650  0.56967  1.0000
  H   H219      1.0  0.11739  0.52811  0.55789  1.0000
  H   H220      1.0  0.28566  0.52981  0.73153  1.0000
  C   C136      1.0  0.35700  0.34184  0.72234  1.0000
  N   N15       1.0  0.28371  0.49636  0.73172  1.0000
  S   S63       1.0  0.33645  0.38102  0.70466  1.0000
  H   H221      1.0  0.30058  0.51870  0.70796  1.0000
  H   H222      1.0  0.35899  0.36054  0.66809  1.0000
  H   H223      1.0  0.12885  0.53121  0.61382  1.0000
  C   C137      1.0  0.18398  0.54618  0.74322  1.0000
  H   H224      1.0  0.24837  0.50201  0.73897  1.0000
  Fe  Fe33      1.0  0.05630  0.35730  0.63621  1.0000
  S   S64       1.0  0.24114  0.56348  0.74257  1.0000
  H   H225      1.0  0.10617  0.48379  0.60324  1.0000
  H   H226      1.0  0.10000  0.52919  0.61762  1.0000
  H   H227      1.0  0.22307  0.57418  0.68360  1.0000
  H   H228      1.0  0.31865  0.48846  0.73231  1.0000
  H   H229      1.0  0.19225  0.38337  0.73126  1.0000
  C   C138      1.0  0.16386  0.41759  0.71725  1.0000
  H   H230      1.0  0.06372  0.35663  0.72763  1.0000
  H   H231      1.0  0.09799  0.54111  0.57801  1.0000
  H   H232      1.0  0.21863  0.41988  0.71316  1.0000
  C   C139      1.0  0.23323  0.65336  0.53408  1.0000
  H   H233      1.0  0.00548  0.46093  0.60536  1.0000
  H   H234      1.0  0.15420  0.51291  0.58545  1.0000
  S   S65       1.0  0.00710  0.37572  0.57642  1.0000
  H   H235      1.0  0.12644  0.54432  0.57472  1.0000
  C   C140      1.0  0.26405  0.62766  0.67992  1.0000
  H   H236      1.0  0.02469  0.37213  0.73449  1.0000
  C   C141      1.0  0.05893  0.34364  0.72016  1.0000
  Fe  Fe34      1.0  0.31271  0.38489  0.73536  1.0000
  C   C142      1.0  0.28045  0.63288  0.69030  1.0000
  H   H237      1.0  0.02881  0.43815  0.58003  1.0000
  S   S66       1.0  0.27661  0.38322  0.73738  1.0000
  S   S67       1.0  0.02614  0.34349  0.63292  1.0000
  S   S68       1.0  0.03510  0.43745  0.63981  1.0000
  C   C143      1.0  0.35275  0.35580  0.70332  1.0000
  C   C144      1.0  0.19406  0.60478  0.66472  1.0000
  S   S69       1.0  0.22315  0.61464  0.74608  1.0000
  H   H238      1.0  0.16518  0.40404  0.70763  1.0000
  H   H239      1.0  0.02101  0.36594  0.70840  1.0000
  C   C145      1.0  0.25706  0.64139  0.66171  1.0000
  H   H240      1.0  0.07118  0.32908  0.72327  1.0000
  S   S70       1.0  0.12684  0.64763  0.51624  1.0000
  Fe  Fe35      1.0  0.15693  0.62296  0.51179  1.0000
  H   H241      1.0  0.29834  0.48138  0.70328  1.0000
  C   C146      1.0  0.10395  0.45426  0.64232  1.0000
  C   C147      1.0  0.10150  0.43448  0.63641  1.0000
  C   C148      1.0  0.08050  0.42901  0.63619  1.0000
  C   C149      1.0  0.06165  0.44350  0.64138  1.0000
  C   C150      1.0  0.06403  0.46339  0.64721  1.0000
  C   C151      1.0  0.08510  0.46869  0.64790  1.0000
  H   H242      1.0  0.11597  0.42328  0.63193  1.0000
  H   H243      1.0  0.04952  0.47467  0.65134  1.0000
  H   H244      1.0  0.08674  0.48399  0.65244  1.0000
  C   C152      1.0  0.23168  0.46794  0.68499  1.0000
  C   C153      1.0  0.21895  0.47602  0.70322  1.0000
  C   C154      1.0  0.22381  0.46765  0.72433  1.0000
  C   C155      1.0  0.24100  0.45075  0.72733  1.0000
  C   C156      1.0  0.25386  0.44272  0.70913  1.0000
  C   C157      1.0  0.24933  0.45149  0.68795  1.0000
  H   H245      1.0  0.20535  0.48876  0.70107  1.0000
  C   C158      1.0  0.28533  0.51827  0.71999  1.0000
  H   H246      1.0  0.26727  0.42976  0.71133  1.0000
  H   H247      1.0  0.25919  0.44521  0.67385  1.0000
  C   C159      1.0  0.28342  0.48161  0.71578  1.0000
  H   H248      1.0  0.01633  0.41526  0.59334  1.0000
  N   N16       1.0  0.11906  0.51346  0.59125  1.0000
  C   C160      1.0  0.15833  0.58268  0.55603  1.0000
  C   C161      1.0  0.14910  0.59843  0.56934  1.0000
  C   C162      1.0  0.14677  0.59320  0.59226  1.0000
  C   C163      1.0  0.15385  0.57228  0.60197  1.0000
  C   C164      1.0  0.16376  0.55673  0.58867  1.0000
  C   C165      1.0  0.16580  0.56187  0.56575  1.0000
  H   H249      1.0  0.14337  0.61453  0.56199  1.0000
  H   H250      1.0  0.13927  0.60535  0.60249  1.0000
  H   H251      1.0  0.16995  0.54083  0.59605  1.0000
  H   H252      1.0  0.17329  0.54974  0.55548  1.0000
  N   N17       1.0  0.18929  0.58876  0.68414  1.0000
  H   H253      1.0  0.22040  0.65446  0.54864  1.0000
  C   C166      1.0  0.18915  0.59834  0.70423  1.0000
  C   C167      1.0  0.20648  0.56979  0.68336  1.0000
  C   C168      1.0  0.16755  0.58211  0.68419  1.0000
  H   H254      1.0  0.20459  0.40715  0.69699  1.0000
  C   C169      1.0  0.11500  0.53254  0.57472  1.0000
  N   N18       1.0  0.03631  0.33935  0.72914  1.0000
  H   H255      1.0  0.18551  0.58679  0.71926  1.0000
  H   H256      1.0  0.20536  0.60338  0.70480  1.0000
  H   H257      1.0  0.17646  0.61276  0.70529  1.0000
  H   H258      1.0  0.20329  0.55721  0.69756  1.0000
  S   S71       1.0  0.25192  0.60422  0.68966  1.0000
  H   H259      1.0  0.12095  0.33341  0.67010  1.0000
  H   H260      1.0  0.15414  0.59598  0.68480  1.0000
  H   H261      1.0  0.16351  0.56987  0.69857  1.0000
  H   H262      1.0  0.16702  0.57494  0.66917  1.0000
  H   H263      1.0  0.20721  0.56239  0.66822  1.0000
  H   H264      1.0  0.10392  0.49351  0.57503  1.0000
  C   C170      1.0  0.17483  0.53204  0.73312  1.0000
  C   C171      1.0  0.36214  0.34982  0.68291  1.0000
  H   H265      1.0  0.21049  0.60996  0.66414  1.0000
  C   C172      1.0  0.02073  0.35942  0.72603  1.0000
  C   C173      1.0  0.11666  0.52036  0.61310  1.0000
  H   H266      1.0  0.19412  0.59814  0.64925  1.0000
  H   H267      1.0  0.26878  0.48633  0.70691  1.0000
  C   C174      1.0  0.14159  0.50222  0.58591  1.0000
  H   H268      1.0  0.01654  0.42258  0.56462  1.0000
  C   C175      1.0  0.19017  0.39753  0.74018  1.0000
  S   S72       1.0  0.09021  0.33928  0.63919  1.0000
  Fe  Fe36      1.0  0.03211  0.40269  0.63803  1.0000
  H   H269      1.0  0.18155  0.61942  0.66476  1.0000
  S   S73       1.0  0.04050  0.37525  0.66395  1.0000
  H   H270      1.0  0.28287  0.46483  0.72407  1.0000
  H   H271      1.0  0.24444  0.63742  0.65355  1.0000
  H   H272      1.0  0.15926  0.43272  0.70628  1.0000
  C   C176      1.0  0.10299  0.49865  0.59139  1.0000
  Fe  Fe37      1.0  0.01795  0.37378  0.60983  1.0000
  H   H273      1.0  0.21392  0.47403  0.73837  1.0000
  N   N19       1.0  0.18468  0.41789  0.72576  1.0000
  S   S74       1.0  0.05017  0.38561  0.61042  1.0000
  Fe  Fe38      1.0  0.24993  0.59547  0.72610  1.0000
  H   H274      1.0  0.06065  0.34862  0.70211  1.0000
  S   S75       1.0  0.27543  0.59600  0.74749  1.0000
  H   H275      1.0  0.19943  0.43582  0.69636  1.0000
  H   H276      1.0  0.07895  0.41367  0.63165  1.0000
  H   H277      1.0  0.14997  0.41585  0.73077  1.0000
  H   H278      1.0  0.28613  0.62223  0.70417  1.0000
  C   C177      1.0  0.18215  0.43613  0.73837  1.0000
  H   H279      1.0  0.17874  0.45186  0.72786  1.0000
  H   H280      1.0  0.22747  0.64400  0.52301  1.0000
  H   H281      1.0  0.08583  0.50618  0.59629  1.0000
  H   H282      1.0  0.11916  0.50628  0.62597  1.0000
  C   C178      1.0  0.20258  0.42029  0.70725  1.0000
  H   H283      1.0  0.20087  0.54874  0.73816  1.0000
  H   H284      1.0  0.34992  0.34622  0.73804  1.0000
  H   H285      1.0  0.27104  0.52443  0.71090  1.0000
  S   S76       1.0  0.18056  0.64470  0.51612  1.0000
  C   C179      1.0  0.15298  0.52829  0.74001  1.0000
  C   C180      1.0  0.37534  0.32985  0.68156  1.0000
  C   C181      1.0  0.01472  0.42926  0.58035  1.0000
  H   H286      1.0  0.18478  0.52361  0.72048  1.0000
  H   H287      1.0  0.19734  0.43637  0.74565  1.0000
  H   H288      1.0  0.36526  0.37586  0.74442  1.0000
  Fe  Fe39      1.0  0.00972  0.36345  0.65906  1.0000
  C   C182      1.0  0.30289  0.48882  0.74366  1.0000
  H   H289      1.0  0.39763  0.34755  0.74303  1.0000
  H   H290      1.0  0.38223  0.32517  0.66570  1.0000
  C   C183      1.0  0.28989  0.65174  0.68241  1.0000
  C   C184      1.0  0.26321  0.49666  0.74744  1.0000
  H   H291      1.0  0.30270  0.65564  0.69035  1.0000
  H   H292      1.0  0.19469  0.65737  0.58743  1.0000
  H   H293      1.0  0.41443  0.36724  0.74554  1.0000
  H   H294      1.0  0.24839  0.64385  0.53988  1.0000
  H   H295      1.0  0.38157  0.39537  0.74815  1.0000
  H   H296      1.0  0.20584  0.39722  0.74689  1.0000
  C   C185      1.0  0.40403  0.35533  0.75503  1.0000
  S   S77       1.0  0.30785  0.41517  0.75070  1.0000
  S   S78       1.0  0.39317  0.55802  0.97956  1.0000
  Fe  Fe40      1.0  0.33872  0.49503  0.87357  1.0000
  S   S79       1.0  0.35700  0.51743  0.84868  1.0000
  S   S80       1.0  0.30213  0.50370  0.87365  1.0000
  Fe  Fe41      1.0  0.38164  0.46577  0.88295  1.0000
  S   S81       1.0  0.40203  0.48636  0.85787  1.0000
  S   S82       1.0  0.39976  0.43635  0.90129  1.0000
  Fe  Fe42      1.0  0.38077  0.51383  0.87303  1.0000
  S   S83       1.0  0.39401  0.54254  0.88109  1.0000
  Fe  Fe43      1.0  0.37539  0.48704  0.83713  1.0000
  S   S84       1.0  0.37629  0.48027  0.80255  1.0000
  S   S85       1.0  0.36123  0.49325  0.89895  1.0000
  S   S86       1.0  0.35634  0.46485  0.86145  1.0000
  N   N20       1.0  0.33186  0.63482  0.92048  1.0000
  Fe  Fe44      1.0  0.26382  0.56588  0.76636  1.0000
  S   S87       1.0  0.23816  0.58293  0.78963  1.0000
  S   S88       1.0  0.28889  0.53730  0.77497  1.0000
  H   H297      1.0  0.35785  0.64082  0.89402  1.0000
  H   H298      1.0  0.17704  0.39519  0.75436  1.0000
  Fe  Fe45      1.0  0.24796  0.61316  0.76897  1.0000
  H   H299      1.0  0.23064  0.36169  0.77301  1.0000
  H   H300      1.0  0.35422  0.61136  0.93795  1.0000
  H   H301      1.0  0.33277  0.56715  0.83311  1.0000
  C   C186      1.0  0.34164  0.61232  0.92681  1.0000
  S   S89       1.0  0.31685  0.36305  0.76658  1.0000
  S   S90       1.0  0.25550  0.64441  0.77705  1.0000
  H   H302      1.0  0.13943  0.56116  0.77953  1.0000
  H   H303      1.0  0.40563  0.36311  0.79577  1.0000
  C   C187      1.0  0.24229  0.32780  0.77480  1.0000
  C   C188      1.0  0.25890  0.64862  0.80349  1.0000
  C   C189      1.0  0.37205  0.38246  0.75697  1.0000
  C   C190      1.0  0.20437  0.34355  0.77174  1.0000
  C   C191      1.0  0.14942  0.55304  0.76663  1.0000
  C   C192      1.0  0.42311  0.42343  0.88592  1.0000
  C   C193      1.0  0.43734  0.40697  0.89642  1.0000
  C   C194      1.0  0.45694  0.39773  0.88470  1.0000
  C   C195      1.0  0.46250  0.40513  0.86247  1.0000
  C   C196      1.0  0.44812  0.42135  0.85196  1.0000
  C   C197      1.0  0.42837  0.43022  0.86354  1.0000
  H   H304      1.0  0.43334  0.40155  0.91372  1.0000
  H   H305      1.0  0.46795  0.38526  0.89296  1.0000
  H   H306      1.0  0.45218  0.42704  0.83473  1.0000
  H   H307      1.0  0.41726  0.44235  0.85507  1.0000
  C   C198      1.0  0.29761  0.51274  0.84637  1.0000
  C   C199      1.0  0.31309  0.50583  0.82919  1.0000
  C   C200      1.0  0.30990  0.51313  0.80742  1.0000
  C   C201      1.0  0.29128  0.52759  0.80257  1.0000
  C   C202      1.0  0.27543  0.53420  0.81966  1.0000
  C   C203      1.0  0.27855  0.52669  0.84157  1.0000
  H   H308      1.0  0.32764  0.49474  0.83256  1.0000
  H   H309      1.0  0.32225  0.50786  0.79433  1.0000
  H   H310      1.0  0.26078  0.54506  0.81606  1.0000
  H   H311      1.0  0.26636  0.53189  0.85478  1.0000
  C   C204      1.0  0.34412  0.41988  0.80436  1.0000
  C   C205      1.0  0.34042  0.43748  0.78811  1.0000
  C   C206      1.0  0.35076  0.45583  0.78717  1.0000
  C   C207      1.0  0.36476  0.45666  0.80251  1.0000
  C   C208      1.0  0.36897  0.43874  0.81819  1.0000
  C   C209      1.0  0.35858  0.42053  0.81922  1.0000
  S   S91       1.0  0.26976  0.33000  0.77722  1.0000
  H   H312      1.0  0.38033  0.43887  0.82959  1.0000
  H   H313      1.0  0.36169  0.40697  0.83174  1.0000
  C   C210      1.0  0.39232  0.55468  0.95210  1.0000
  C   C211      1.0  0.38690  0.53533  0.94781  1.0000
  C   C212      1.0  0.38674  0.53173  0.92619  1.0000
  C   C213      1.0  0.39244  0.54727  0.90856  1.0000
  C   C214      1.0  0.39785  0.56666  0.91285  1.0000
  C   C215      1.0  0.39761  0.57046  0.93453  1.0000
  H   H314      1.0  0.38263  0.52310  0.96129  1.0000
  H   H315      1.0  0.38235  0.51685  0.92320  1.0000
  H   H316      1.0  0.40243  0.57873  0.89932  1.0000
  H   H317      1.0  0.40200  0.58537  0.93761  1.0000
  S   S92       1.0  0.33064  0.39699  0.80722  1.0000
  S   S93       1.0  0.49839  0.33817  0.88751  1.0000
  H   H318      1.0  0.49989  0.38154  0.80283  1.0000
  H   H319      1.0  0.25223  0.62688  0.85728  1.0000
  Fe  Fe46      1.0  0.39999  0.63752  0.97678  1.0000
  H   H320      1.0  0.01854  0.32770  0.76001  1.0000
  H   H321      1.0  0.47060  0.32556  0.83618  1.0000
  C   C216      1.0  0.25344  0.63408  0.82213  1.0000
  H   H322      1.0  0.32892  0.60232  0.93549  1.0000
  H   H323      1.0  0.35787  0.39020  0.76754  1.0000
  S   S94       1.0  0.42460  0.60749  0.98006  1.0000
  H   H324      1.0  0.38162  0.38304  0.79738  1.0000
  C   C217      1.0  0.03535  0.33123  0.75276  1.0000
  N   N21       1.0  0.28458  0.44928  0.84080  1.0000
  C   C218      1.0  0.28439  0.43404  0.82531  1.0000
  C   C219      1.0  0.30757  0.45142  0.84247  1.0000
  C   C220      1.0  0.27357  0.44116  0.86263  1.0000
  C   C221      1.0  0.27277  0.47048  0.83289  1.0000
  H   H325      1.0  0.29257  0.41770  0.83117  1.0000
  H   H326      1.0  0.29330  0.43925  0.80888  1.0000
  H   H327      1.0  0.26733  0.43244  0.82313  1.0000
  H   H328      1.0  0.31720  0.43562  0.84775  1.0000
  H   H329      1.0  0.31628  0.45815  0.82648  1.0000
  C   C222      1.0  0.22626  0.34593  0.77297  1.0000
  H   H330      1.0  0.27351  0.45233  0.87470  1.0000
  H   H331      1.0  0.28214  0.42520  0.86911  1.0000
  H   H332      1.0  0.25617  0.43934  0.86205  1.0000
  H   H333      1.0  0.25560  0.46936  0.83063  1.0000
  H   H334      1.0  0.28123  0.47761  0.81694  1.0000
  H   H335      1.0  0.27176  0.48204  0.84474  1.0000
  Fe  Fe47      1.0  0.28040  0.36305  0.76982  1.0000
  Fe  Fe48      1.0  0.21611  0.58263  0.76426  1.0000
  H   H336      1.0  0.38247  0.33639  0.79213  1.0000
  C   C223      1.0  0.31529  0.63539  0.90572  1.0000
  H   H337      1.0  0.30831  0.46234  0.85451  1.0000
  H   H338      1.0  0.30783  0.63518  0.94939  1.0000
  H   H339      1.0  0.49893  0.39604  0.77575  1.0000
  H   H340      1.0  0.24642  0.61999  0.82063  1.0000
  C   C224      1.0  0.34940  0.64739  0.90913  1.0000
  H   H341      1.0  0.31920  0.55371  0.81717  1.0000
  S   S95       1.0  0.24602  0.43998  0.75399  1.0000
  H   H342      1.0  0.32934  0.43719  0.77654  1.0000
  Fe  Fe49      1.0  0.39475  0.59060  0.98909  1.0000
  H   H343      1.0  0.26282  0.50779  0.75961  1.0000
  H   H344      1.0  0.34754  0.46959  0.77492  1.0000
  H   H345      1.0  0.41489  0.34261  0.76424  1.0000
  Fe  Fe50      1.0  0.30944  0.39311  0.78226  1.0000
  N   N22       1.0  0.44234  0.48138  0.90755  1.0000
  C   C225      1.0  0.45066  0.46543  0.89232  1.0000
  C   C226      1.0  0.44071  0.50330  0.89517  1.0000
  C   C227      1.0  0.45761  0.47942  0.92386  1.0000
  C   C228      1.0  0.42034  0.47734  0.91891  1.0000
  H   H346      1.0  0.45197  0.44869  0.90110  1.0000
  H   H347      1.0  0.46718  0.46796  0.88330  1.0000
  H   H348      1.0  0.43942  0.46629  0.87993  1.0000
  H   H349      1.0  0.43410  0.51575  0.90609  1.0000
  H   H350      1.0  0.45698  0.50706  0.88645  1.0000
  H   H351      1.0  0.42939  0.50531  0.88263  1.0000
  H   H352      1.0  0.45186  0.49132  0.93554  1.0000
  H   H353      1.0  0.47443  0.48221  0.91582  1.0000
  H   H354      1.0  0.45904  0.46308  0.93355  1.0000
  H   H355      1.0  0.41378  0.48863  0.93103  1.0000
  H   H356      1.0  0.42069  0.46064  0.92770  1.0000
  H   H357      1.0  0.40827  0.47931  0.90713  1.0000
  H   H358      1.0  0.27557  0.58438  0.82080  1.0000
  S   S96       1.0  0.37044  0.62024  0.98304  1.0000
  H   H359      1.0  0.30367  0.49950  0.75589  1.0000
  C   C229      1.0  0.17116  0.55692  0.75986  1.0000
  C   C230      1.0  0.39501  0.37538  0.78579  1.0000
  S   S97       1.0  0.27319  0.39088  0.78925  1.0000
  H   H360      1.0  0.30442  0.56350  0.84148  1.0000
  S   S98       1.0  0.18117  0.57566  0.77245  1.0000
  H   H361      1.0  0.19187  0.35747  0.77103  1.0000
  C   C231      1.0  0.25666  0.63806  0.84287  1.0000
  H   H362      1.0  0.12369  0.53571  0.76250  1.0000
  N   N23       1.0  0.30991  0.58802  0.81387  1.0000
  C   C232      1.0  0.30765  0.60559  0.82730  1.0000
  C   C233      1.0  0.32653  0.59178  0.79444  1.0000
  C   C234      1.0  0.28853  0.58749  0.80663  1.0000
  C   C235      1.0  0.31688  0.56724  0.82700  1.0000
  H   H363      1.0  0.29507  0.60330  0.84201  1.0000
  H   H364      1.0  0.30235  0.62151  0.81787  1.0000
  H   H365      1.0  0.32346  0.60653  0.83307  1.0000
  H   H366      1.0  0.32172  0.60731  0.78413  1.0000
  H   H367      1.0  0.34295  0.59222  0.79920  1.0000
  H   H368      1.0  0.32848  0.57882  0.78391  1.0000
  H   H369      1.0  0.28974  0.57465  0.79618  1.0000
  H   H370      1.0  0.28271  0.60298  0.79681  1.0000
  C   C236      1.0  0.14048  0.53865  0.75695  1.0000
  H   H371      1.0  0.34995  0.60468  0.91225  1.0000
  N   N24       1.0  0.38588  0.36559  0.76992  1.0000
  H   H372      1.0  0.40506  0.38806  0.77744  1.0000
  C   C237      1.0  0.26516  0.65664  0.84508  1.0000
  Fe  Fe51      1.0  0.27212  0.41113  0.75632  1.0000
  H   H373      1.0  0.32278  0.62874  0.89039  1.0000
  H   H374      1.0  0.44506  0.33114  0.80852  1.0000
  S   S99       1.0  0.48769  0.39542  0.84744  1.0000
  H   H375      1.0  0.36217  0.64732  0.91982  1.0000
  H   H376      1.0  0.30736  0.65211  0.90087  1.0000
  H   H377      1.0  0.33315  0.64428  0.95176  1.0000
  H   H378      1.0  0.30184  0.62597  0.91368  1.0000
  H   H379      1.0  0.36559  0.34105  0.77069  1.0000
  H   H380      1.0  0.35842  0.35639  0.79322  1.0000
  C   C238      1.0  0.32112  0.64427  0.94031  1.0000
  C   C239      1.0  0.37247  0.34916  0.78200  1.0000
  H   H381      1.0  0.03981  0.34315  0.76194  1.0000
  H   H382      1.0  0.49809  0.41012  0.79876  1.0000
  H   H383      1.0  0.26146  0.48040  0.75664  1.0000
  H   H384      1.0  0.44244  0.54513  0.99120  1.0000
  H   H385      1.0  0.30213  0.47231  0.75266  1.0000
  H   H386      1.0  0.16834  0.43524  0.75207  1.0000
  H   H387      1.0  0.38313  0.67241  0.07508  1.0000
  H   H388      1.0  0.20539  0.78877  0.21990  1.0000
  Fe  Fe52      1.0  0.05359  0.83553  0.17916  1.0000
  S   S100      1.0  0.06085  0.80534  0.16363  1.0000
  S   S101      1.0  0.07371  0.84032  0.20449  1.0000
  S   S102      1.0  0.15382  0.72688  0.24202  1.0000
  H   H389      1.0  0.44398  0.72463  0.10772  1.0000
  C   C240      1.0  0.36683  0.67164  0.07145  1.0000
  H   H390      1.0  0.22256  0.71748  0.22154  1.0000
  H   H391      1.0  0.40296  0.75320  0.22997  1.0000
  Fe  Fe53      1.0  0.05320  0.82692  0.13291  1.0000
  S   S103      1.0  0.06949  0.82176  0.09856  1.0000
  S   S104      1.0  0.48110  0.73740  0.23980  1.0000
  S   S105      1.0  0.04897  0.85745  0.14773  1.0000
  N   N25       1.0  0.17285  0.92165  0.00488  1.0000
  H   H392      1.0  0.14871  0.78019  0.09101  1.0000
  H   H393      1.0  0.40523  0.71193  0.02308  1.0000
  S   S106      1.0  0.16512  0.78028  0.20855  1.0000
  S   S107      1.0  0.01743  0.83368  0.18953  1.0000
  C   C241      1.0  0.44551  0.71311  0.15096  1.0000
  C   C242      1.0  0.45741  0.71418  0.22100  1.0000
  H   H394      1.0  0.16228  0.94418  0.02797  1.0000
  Fe  Fe54      1.0  0.17706  0.84518  0.02241  1.0000
  S   S108      1.0  0.21090  0.85500  0.01651  1.0000
  S   S109      1.0  0.15512  0.86062  0.04992  1.0000
  H   H395      1.0  0.35902  0.73852  0.02373  1.0000
  Fe  Fe55      1.0  0.02447  0.80453  0.17218  1.0000
  Fe  Fe56      1.0  0.22334  0.82044  0.01347  1.0000
  S   S110      1.0  0.25255  0.79832  0.02559  1.0000
  H   H396      1.0  0.02517  0.84202  0.09238  1.0000
  S   S111      1.0  0.18994  0.81016  0.02221  1.0000
  Fe  Fe57      1.0  0.29262  0.75336  0.13461  1.0000
  S   S112      1.0  0.29332  0.72040  0.12557  1.0000
  S   S113      1.0  0.26477  0.77977  0.12637  1.0000
  Fe  Fe58      1.0  0.33410  0.74037  0.15719  1.0000
  S   S114      1.0  0.33701  0.70661  0.15028  1.0000
  S   S115      1.0  0.36493  0.74536  0.16965  1.0000
  Fe  Fe59      1.0  0.32973  0.72089  0.11678  1.0000
  S   S116      1.0  0.35449  0.70843  0.08963  1.0000
  Fe  Fe60      1.0  0.30055  0.70939  0.16000  1.0000
  S   S117      1.0  0.28806  0.68001  0.17984  1.0000
  S   S118      1.0  0.32857  0.75481  0.12287  1.0000
  S   S119      1.0  0.29784  0.74214  0.16992  1.0000
  C   C243      1.0  0.25553  0.79359  0.05370  1.0000
  C   C244      1.0  0.27193  0.77732  0.06094  1.0000
  C   C245      1.0  0.27488  0.77306  0.08315  1.0000
  C   C246      1.0  0.26151  0.78514  0.09832  1.0000
  C   C247      1.0  0.24518  0.80154  0.09110  1.0000
  C   C248      1.0  0.24211  0.80571  0.06885  1.0000
  H   H397      1.0  0.28244  0.76797  0.04931  1.0000
  H   H398      1.0  0.28761  0.76050  0.08849  1.0000
  H   H399      1.0  0.23506  0.81114  0.10272  1.0000
  H   H400      1.0  0.22969  0.81850  0.06332  1.0000
  H   H401      1.0  0.46321  0.70626  0.15074  1.0000
  H   H402      1.0  0.04460  0.88731  0.05282  1.0000
  C   C249      1.0  0.32809  0.68579  0.07342  1.0000
  C   C250      1.0  0.34916  0.68695  0.07793  1.0000
  C   C251      1.0  0.01238  0.85620  0.08946  1.0000
  H   H403      1.0  0.02704  0.86942  0.04748  1.0000
  C   C252      1.0  0.47821  0.71898  0.22262  1.0000
  H   H404      1.0  0.31447  0.69783  0.07811  1.0000
  C   C253      1.0  0.19188  0.91101  0.01594  1.0000
  C   C254      1.0  0.41109  0.71202  0.13817  1.0000
  H   H405      1.0  0.42970  0.67570  0.16124  1.0000
  H   H406      1.0  0.04389  0.89489  0.09059  1.0000
  C   C255      1.0  0.26476  0.68214  0.19994  1.0000
  N   N26       1.0  0.37596  0.71100  0.00906  1.0000
  C   C256      1.0  0.03662  0.87282  0.05983  1.0000
  S   S120      1.0  0.01733  0.82331  0.14001  1.0000
  H   H407      1.0  0.32397  0.66405  0.14999  1.0000
  H   H408      1.0  0.20511  0.90327  0.00426  1.0000
  H   H409      1.0  0.05002  0.85900  0.06213  1.0000
  C   C257      1.0  0.09333  0.83271  0.08546  1.0000
  C   C258      1.0  0.10227  0.84744  0.09459  1.0000
  C   C259      1.0  0.12109  0.85608  0.08339  1.0000
  C   C260      1.0  0.13124  0.84982  0.06319  1.0000
  C   C261      1.0  0.12235  0.83503  0.05412  1.0000
  C   C262      1.0  0.10339  0.82661  0.06517  1.0000
  H   H410      1.0  0.09465  0.85226  0.11020  1.0000
  H   H411      1.0  0.12787  0.86755  0.09050  1.0000
  H   H412      1.0  0.12999  0.83015  0.03853  1.0000
  H   H413      1.0  0.09652  0.81524  0.05800  1.0000
  C   C263      1.0  0.09958  0.82435  0.20485  1.0000
  H   H414      1.0  0.15659  0.79983  0.06823  1.0000
  H   H415      1.0  0.13952  0.80819  0.09223  1.0000
  C   C264      1.0  0.14009  0.79750  0.20709  1.0000
  C   C265      1.0  0.13054  0.80147  0.18769  1.0000
  C   C266      1.0  0.11015  0.81465  0.18666  1.0000
  H   H416      1.0  0.13869  0.79402  0.17360  1.0000
  H   H417      1.0  0.10277  0.81756  0.17173  1.0000
  C   C267      1.0  0.10950  0.82087  0.22399  1.0000
  H   H418      1.0  0.40233  0.70498  0.12741  1.0000
  H   H419      1.0  0.40878  0.72977  0.13330  1.0000
  H   H420      1.0  0.43930  0.69368  0.20864  1.0000
  C   C268      1.0  0.24087  0.66396  0.22920  1.0000
  C   C269      1.0  0.45542  0.69770  0.20933  1.0000
  H   H421      1.0  0.43761  0.71056  0.16828  1.0000
  C   C270      1.0  0.36858  0.73439  0.00791  1.0000
  H   H422      1.0  0.01179  0.90946  0.07099  1.0000
  C   C271      1.0  0.09184  0.76201  0.22777  1.0000
  H   H423      1.0  0.18703  0.89825  0.02947  1.0000
  C   C272      1.0  0.34731  0.76145  0.23121  1.0000
  C   C273      1.0  0.34606  0.75635  0.21035  1.0000
  C   C274      1.0  0.36538  0.75047  0.19648  1.0000
  C   C275      1.0  0.38584  0.74920  0.20377  1.0000
  C   C276      1.0  0.38707  0.75396  0.22469  1.0000
  H   H424      1.0  0.43784  0.69937  0.10256  1.0000
  H   H425      1.0  0.33024  0.75747  0.20478  1.0000
  H   H426      1.0  0.40083  0.74476  0.19308  1.0000
  H   H427      1.0  0.40248  0.70900  0.15521  1.0000
  S   S121      1.0  0.01443  0.77176  0.18565  1.0000
  N   N27       1.0  0.06890  0.76927  0.23697  1.0000
  N   N28       1.0  0.43469  0.70295  0.13666  1.0000
  C   C277      1.0  0.32491  0.66966  0.06173  1.0000
  C   C278      1.0  0.44536  0.70711  0.11377  1.0000
  H   H428      1.0  0.14123  0.94007  0.01298  1.0000
  H   H429      1.0  0.04928  0.86659  0.09971  1.0000
  C   C279      1.0  0.43688  0.67950  0.14379  1.0000
  C   C280      1.0  0.25158  0.70180  0.20298  1.0000
  H   H430      1.0  0.29957  0.67011  0.10963  1.0000
  H   H431      1.0  0.34664  0.70283  0.02992  1.0000
  C   C281      1.0  0.39011  0.70401  0.02655  1.0000
  H   H432      1.0  0.03974  0.78824  0.22582  1.0000
  C   C282      1.0  0.05707  0.78229  0.21950  1.0000
  C   C283      1.0  0.49698  0.70801  0.21151  1.0000
  C   C284      1.0  0.23292  0.70246  0.21922  1.0000
  C   C285      1.0  0.03595  0.88020  0.09659  1.0000
  N   N29       1.0  0.02244  0.87589  0.08078  1.0000
  H   H433      1.0  0.39541  0.68632  0.02841  1.0000
  N   N30       1.0  0.23237  0.78408  0.19410  1.0000
  C   C286      1.0  0.22317  0.79056  0.21579  1.0000
  C   C287      1.0  0.23006  0.76132  0.19422  1.0000
  C   C288      1.0  0.25593  0.78675  0.18928  1.0000
  C   C289      1.0  0.22033  0.79764  0.17707  1.0000
  H   H434      1.0  0.22459  0.80766  0.21634  1.0000
  H   H435      1.0  0.23176  0.78051  0.22905  1.0000
  H   H436      1.0  0.19926  0.92267  0.02303  1.0000
  H   H437      1.0  0.23889  0.75066  0.20694  1.0000
  H   H438      1.0  0.21244  0.75872  0.19779  1.0000
  H   H439      1.0  0.23690  0.75585  0.17811  1.0000
  H   H440      1.0  0.26564  0.77642  0.20153  1.0000
  H   H441      1.0  0.25834  0.80370  0.18926  1.0000
  H   H442      1.0  0.26325  0.78232  0.17285  1.0000
  H   H443      1.0  0.20250  0.79594  0.18018  1.0000
  H   H444      1.0  0.22695  0.79312  0.16051  1.0000
  H   H445      1.0  0.22167  0.81494  0.17652  1.0000
  H   H446      1.0  0.44282  0.72322  0.22860  1.0000
  C   C290      1.0  0.35653  0.69949  0.01404  1.0000
  H   H447      1.0  0.45450  0.67214  0.14240  1.0000
  C   C291      1.0  0.12952  0.80721  0.22522  1.0000
  N   N31       1.0  0.17361  0.79816  0.09601  1.0000
  C   C292      1.0  0.19188  0.78187  0.08851  1.0000
  C   C293      1.0  0.17996  0.81987  0.08890  1.0000
  C   C294      1.0  0.16879  0.79447  0.12018  1.0000
  C   C295      1.0  0.15378  0.79648  0.08644  1.0000
  H   H448      1.0  0.20693  0.78221  0.09596  1.0000
  H   H449      1.0  0.19646  0.78465  0.07039  1.0000
  H   H450      1.0  0.18744  0.76533  0.09298  1.0000
  H   H451      1.0  0.18384  0.82316  0.07074  1.0000
  H   H452      1.0  0.16643  0.83261  0.09394  1.0000
  H   H453      1.0  0.19477  0.82183  0.09591  1.0000
  H   H454      1.0  0.18341  0.79558  0.12797  1.0000
  H   H455      1.0  0.16383  0.77827  0.12613  1.0000
  H   H456      1.0  0.15509  0.80655  0.12636  1.0000
  C   C296      1.0  0.47419  0.68646  0.19857  1.0000
  H   H457      1.0  0.36141  0.68177  0.01521  1.0000
  H   H458      1.0  0.33237  0.76651  0.24166  1.0000
  H   H459      1.0  0.05741  0.74016  0.23336  1.0000
  H   H460      1.0  0.34552  0.70428  0.00115  1.0000
  H   H461      1.0  0.38282  0.74360  0.00424  1.0000
  C   C297      1.0  0.25927  0.66329  0.21305  1.0000
  H   H462      1.0  0.42856  0.67131  0.13365  1.0000
  C   C298      1.0  0.15584  0.93192  0.02081  1.0000
  H   H463      1.0  0.25572  0.71632  0.19272  1.0000
  C   C299      1.0  0.22763  0.68346  0.23240  1.0000
  C   C300      1.0  0.36783  0.76034  0.23836  1.0000
  H   H464      1.0  0.02575  0.88268  0.11258  1.0000
  C   C301      1.0  0.49496  0.69189  0.19928  1.0000
  H   H465      1.0  0.15769  0.89289  0.00926  1.0000
  H   H466      1.0  0.44460  0.73077  0.14585  1.0000
  S   S122      1.0  0.47130  0.66488  0.18551  1.0000
  H   H467      1.0  0.38127  0.70798  0.04270  1.0000
  S   S123      1.0  0.48733  0.66540  0.08272  1.0000
  H   H468      1.0  0.06515  0.79661  0.21211  1.0000
  H   H469      1.0  0.30875  0.66910  0.05762  1.0000
  H   H470      1.0  0.15002  0.91981  0.03460  1.0000
  Fe  Fe61      1.0  0.01323  0.85296  0.15649  1.0000
  H   H471      1.0  0.46322  0.70053  0.11212  1.0000
  H   H472      1.0  0.05654  0.77286  0.20608  1.0000
  H   H473      1.0  0.45902  0.67211  0.04955  1.0000
  H   H474      1.0  0.10153  0.82855  0.23800  1.0000
  Fe  Fe62      1.0  0.16517  0.75876  0.24098  1.0000
  H   H475      1.0  0.13698  0.80458  0.24010  1.0000
  H   H476      1.0  0.07700  0.79702  0.24787  1.0000
  H   H477      1.0  0.28692  0.66953  0.13750  1.0000
  H   H478      1.0  0.33587  0.66585  0.12179  1.0000
  H   H479      1.0  0.50338  0.77377  0.24823  1.0000
  H   H480      1.0  0.10074  0.77590  0.22072  1.0000
  H   H481      1.0  0.09251  0.75209  0.21449  1.0000
  C   C302      1.0  0.05769  0.75039  0.24617  1.0000
  C   C303      1.0  0.29414  0.65922  0.12459  1.0000
  H   H482      1.0  0.10127  0.75221  0.24057  1.0000
  H   H483      1.0  0.47879  0.66608  0.24112  1.0000
  H   H484      1.0  0.47164  0.69520  0.26439  1.0000
  H   H485      1.0  0.48215  0.79160  0.40617  1.0000
  S   S124      1.0  0.32064  0.85633  0.46713  1.0000
  H   H486      1.0  0.17440  0.72677  0.39031  1.0000
  S   S125      1.0  0.42860  0.86236  0.47995  1.0000
  S   S126      1.0  0.36556  0.88773  0.48267  1.0000
  H   H487      1.0  0.32947  0.75376  0.28378  1.0000
  H   H488      1.0  0.31426  0.71201  0.28110  1.0000
  Fe  Fe63      1.0  0.31235  0.72618  0.38451  1.0000
  S   S127      1.0  0.32300  0.75555  0.36357  1.0000
  S   S128      1.0  0.32820  0.69307  0.37856  1.0000
  Fe  Fe64      1.0  0.27444  0.75175  0.40996  1.0000
  S   S129      1.0  0.28180  0.78360  0.39097  1.0000
  S   S130      1.0  0.24607  0.74975  0.43711  1.0000
  Fe  Fe65      1.0  0.28711  0.76593  0.36168  1.0000
  S   S131      1.0  0.27839  0.77634  0.32767  1.0000
  Fe  Fe66      1.0  0.31694  0.77014  0.39476  1.0000
  S   S132      1.0  0.34397  0.78660  0.40206  1.0000
  S   S133      1.0  0.27681  0.73537  0.38033  1.0000
  S   S134      1.0  0.30914  0.73963  0.41604  1.0000
  S   S135      1.0  0.46501  0.89435  0.38123  1.0000
  Fe  Fe67      1.0  0.43423  0.76989  0.30250  1.0000
  S   S136      1.0  0.45735  0.73911  0.30020  1.0000
  S   S137      1.0  0.43665  0.79749  0.32032  1.0000
  C   C304      1.0  0.35336  0.72229  0.30883  1.0000
  N   N32       1.0  0.41271  0.93206  0.48433  1.0000
  Fe  Fe68      1.0  0.42669  0.72347  0.30626  1.0000
  H   H489      1.0  0.36562  0.83934  0.31824  1.0000
  H   H490      1.0  0.08082  0.66690  0.38218  1.0000
  S   S138      1.0  0.40385  0.75370  0.31145  1.0000
  Fe  Fe69      1.0  0.13591  0.73250  0.27516  1.0000
  S   S139      1.0  0.14499  0.76558  0.27284  1.0000
  H   H491      1.0  0.01337  0.71240  0.26797  1.0000
  Fe  Fe70      1.0  0.17476  0.74911  0.28826  1.0000
  S   S140      1.0  0.18266  0.75978  0.31866  1.0000
  H   H492      1.0  0.29494  0.84219  0.43951  1.0000
  S   S141      1.0  0.16415  0.71645  0.29285  1.0000
  C   C305      1.0  0.30521  0.75860  0.49867  1.0000
  C   C306      1.0  0.08131  0.66167  0.30680  1.0000
  N   N33       1.0  0.48878  0.84244  0.28448  1.0000
  Fe  Fe71      1.0  0.39260  0.86233  0.49368  1.0000
  H   H493      1.0  0.45278  0.82274  0.40185  1.0000
  H   H494      1.0  0.31649  0.72112  0.33796  1.0000
  C   C307      1.0  0.47639  0.78024  0.33538  1.0000
  C   C308      1.0  0.45855  0.79681  0.33539  1.0000
  C   C309      1.0  0.07575  0.66072  0.43515  1.0000
  H   H495      1.0  0.47653  0.76675  0.32681  1.0000
  H   H496      1.0  0.25591  0.67181  0.43669  1.0000
  C   C310      1.0  0.35545  0.69211  0.36555  1.0000
  H   H497      1.0  0.30019  0.71273  0.32056  1.0000
  H   H498      1.0  0.22530  0.69070  0.40426  1.0000
  C   C311      1.0  0.39791  0.69116  0.34190  1.0000
  C   C312      1.0  0.38797  0.70933  0.35158  1.0000
  C   C313      1.0  0.36682  0.70974  0.36355  1.0000
  H   H499      1.0  0.39679  0.72288  0.35029  1.0000
  H   H500      1.0  0.35947  0.72358  0.37143  1.0000
  C   C314      1.0  0.25179  0.77199  0.32489  1.0000
  C   C315      1.0  0.23454  0.77462  0.34198  1.0000
  C   C316      1.0  0.21326  0.77161  0.33944  1.0000
  C   C317      1.0  0.20927  0.76505  0.32022  1.0000
  C   C318      1.0  0.22657  0.76224  0.30315  1.0000
  C   C319      1.0  0.24775  0.76603  0.30537  1.0000
  H   H501      1.0  0.23749  0.77961  0.35690  1.0000
  H   H502      1.0  0.19981  0.77441  0.35242  1.0000
  H   H503      1.0  0.22361  0.75724  0.28826  1.0000
  H   H504      1.0  0.26102  0.76413  0.29205  1.0000
  Fe  Fe72      1.0  0.45164  0.74420  0.26500  1.0000
  C   C320      1.0  0.49435  0.78136  0.34622  1.0000
  S   S142      1.0  0.19606  0.74547  0.25599  1.0000
  H   H505      1.0  0.50228  0.75354  0.27169  1.0000
  H   H506      1.0  0.37886  0.83373  0.34257  1.0000
  C   C321      1.0  0.22444  0.68315  0.45412  1.0000
  C   C322      1.0  0.24520  0.68565  0.44224  1.0000
  C   C323      1.0  0.25209  0.70603  0.43716  1.0000
  C   C324      1.0  0.23832  0.72395  0.44426  1.0000
  C   C325      1.0  0.21776  0.72141  0.45653  1.0000
  C   C326      1.0  0.21076  0.70109  0.46131  1.0000
  H   H507      1.0  0.10013  0.68213  0.36427  1.0000
  H   H508      1.0  0.26803  0.70783  0.42773  1.0000
  H   H509      1.0  0.20705  0.73527  0.46201  1.0000
  H   H510      1.0  0.19478  0.69938  0.47055  1.0000
  C   C327      1.0  0.43774  0.87279  0.45270  1.0000
  C   C328      1.0  0.46023  0.87426  0.44670  1.0000
  C   C329      1.0  0.46860  0.88111  0.42491  1.0000
  C   C330      1.0  0.45453  0.88679  0.40892  1.0000
  C   C331      1.0  0.43185  0.88614  0.41507  1.0000
  C   C332      1.0  0.42347  0.87899  0.43689  1.0000
  H   H511      1.0  0.47133  0.86982  0.45890  1.0000
  H   H512      1.0  0.48596  0.88224  0.42055  1.0000
  H   H513      1.0  0.42084  0.89067  0.40280  1.0000
  H   H514      1.0  0.40608  0.87791  0.44134  1.0000
  C   C333      1.0  0.32763  0.83749  0.44848  1.0000
  C   C334      1.0  0.34891  0.82630  0.44507  1.0000
  C   C335      1.0  0.35384  0.81103  0.43043  1.0000
  C   C336      1.0  0.33744  0.80660  0.41943  1.0000
  C   C337      1.0  0.31618  0.81784  0.42274  1.0000
  C   C338      1.0  0.31137  0.83340  0.43708  1.0000
  H   H515      1.0  0.36159  0.82951  0.45360  1.0000
  H   H516      1.0  0.37033  0.80240  0.42788  1.0000
  H   H517      1.0  0.30348  0.81467  0.41418  1.0000
  N   N34       1.0  0.36270  0.80817  0.33680  1.0000
  C   C339      1.0  0.34168  0.81564  0.34992  1.0000
  C   C340      1.0  0.35813  0.79898  0.31796  1.0000
  C   C341      1.0  0.37597  0.79162  0.35062  1.0000
  C   C342      1.0  0.37508  0.82650  0.32874  1.0000
  H   H518      1.0  0.34449  0.82252  0.36440  1.0000
  H   H519      1.0  0.33197  0.80218  0.35632  1.0000
  H   H520      1.0  0.33122  0.82820  0.34010  1.0000
  H   H521      1.0  0.37355  0.79400  0.30715  1.0000
  H   H522      1.0  0.34956  0.78458  0.32343  1.0000
  H   H523      1.0  0.34747  0.81079  0.30763  1.0000
  H   H524      1.0  0.39229  0.78616  0.34154  1.0000
  H   H525      1.0  0.36745  0.77727  0.35667  1.0000
  H   H526      1.0  0.37913  0.79788  0.36532  1.0000
  H   H527      1.0  0.39109  0.82135  0.31886  1.0000
  H   H528      1.0  0.06174  0.71396  0.31238  1.0000
  H   H529      1.0  0.07190  0.67799  0.43139  1.0000
  H   H530      1.0  0.18275  0.71172  0.36757  1.0000
  N   N35       1.0  0.33065  0.72304  0.30413  1.0000
  H   H531      1.0  0.32315  0.75052  0.45878  1.0000
  C   C343      1.0  0.31739  0.71264  0.32353  1.0000
  H   H532      1.0  0.46152  0.68957  0.29289  1.0000
  Fe  Fe73      1.0  0.18319  0.71401  0.25936  1.0000
  H   H533      1.0  0.47101  0.83942  0.40802  1.0000
  H   H534      1.0  0.04035  0.75536  0.25321  1.0000
  H   H535      1.0  0.49146  0.80947  0.29950  1.0000
  H   H536      1.0  0.25690  0.68862  0.49400  1.0000
  H   H537      1.0  0.44425  0.94310  0.47539  1.0000
  H   H538      1.0  0.48161  0.80679  0.46117  1.0000
  H   H539      1.0  0.30315  0.74690  0.29652  1.0000
  S   S143      1.0  0.10553  0.66941  0.45939  1.0000
  H   H540      1.0  0.32462  0.69566  0.32831  1.0000
  H   H541      1.0  0.47025  0.85248  0.31413  1.0000
  S   S144      1.0  0.15531  0.68057  0.48101  1.0000
  H   H542      1.0  0.33219  0.77478  0.46307  1.0000
  H   H543      1.0  0.01677  0.70146  0.30734  1.0000
  S   S145      1.0  0.10000  0.72935  0.28677  1.0000
  H   H544      1.0  0.48904  0.67874  0.28268  1.0000
  S   S146      1.0  0.43115  0.77655  0.26658  1.0000
  H   H545      1.0  0.05151  0.67721  0.32365  1.0000
  N   N36       1.0  0.46365  0.66319  0.27469  1.0000
  N   N37       1.0  0.46726  0.81097  0.43133  1.0000
  H   H546      1.0  0.36116  0.70548  0.31338  1.0000
  C   C344      1.0  0.07283  0.70020  0.30718  1.0000
  H   H547      1.0  0.44406  0.83900  0.42341  1.0000
  S   S147      1.0  0.42361  0.69102  0.32555  1.0000
  Fe  Fe74      1.0  0.50012  0.88017  0.37000  1.0000
  H   H548      1.0  0.42108  0.96341  0.47084  1.0000
  H   H549      1.0  0.47605  0.82859  0.36623  1.0000
  H   H550      1.0  0.34108  0.71916  0.27032  1.0000
  C   C345      1.0  0.50088  0.82333  0.29633  1.0000
  C   C346      1.0  0.33113  0.71163  0.28520  1.0000
  H   H551      1.0  0.35367  0.73126  0.32265  1.0000
  H   H552      1.0  0.31311  0.77574  0.44407  1.0000
  Fe  Fe75      1.0  0.34563  0.86024  0.48832  1.0000
  C   C347      1.0  0.31771  0.76783  0.46022  1.0000
  S   S148      1.0  0.50425  0.85786  0.34483  1.0000
  H   H553      1.0  0.20417  0.68373  0.39136  1.0000
  H   H554      1.0  0.19698  0.69891  0.41403  1.0000
  C   C348      1.0  0.06700  0.67945  0.31354  1.0000
  H   H555      1.0  0.21535  0.74926  0.38365  1.0000
  C   C349      1.0  0.46762  0.84892  0.29791  1.0000
  H   H556      1.0  0.36399  0.72952  0.29440  1.0000
  H   H557      1.0  0.06815  0.69318  0.49129  1.0000
  H   H558      1.0  0.23141  0.72907  0.40014  1.0000
  H   H559      1.0  0.49354  0.78434  0.43146  1.0000
  H   H560      1.0  0.03973  0.68034  0.27934  1.0000
  C   C350      1.0  0.32070  0.74565  0.29896  1.0000
  H   H561      1.0  0.48637  0.83099  0.44296  1.0000
  N   N38       1.0  0.29906  0.77087  0.47785  1.0000
  H   H562      1.0  0.45698  0.83597  0.30108  1.0000
  S   S149      1.0  0.42280  0.72598  0.27099  1.0000
  H   H563      1.0  0.38287  0.95448  0.48244  1.0000
  H   H564      1.0  0.49990  0.80810  0.41344  1.0000
  C   C351      1.0  0.21494  0.73372  0.39465  1.0000
  H   H565      1.0  0.20289  0.73668  0.40945  1.0000
  S   S150      1.0  0.37343  0.83452  0.49697  1.0000
  C   C352      1.0  0.45852  0.81410  0.34674  1.0000
  H   H566      1.0  0.47541  0.85127  0.25408  1.0000
  C   C353      1.0  0.18745  0.72389  0.37626  1.0000
  C   C354      1.0  0.29354  0.79395  0.48018  1.0000
  N   N39       1.0  0.20932  0.71691  0.38354  1.0000
  C   C355      1.0  0.45006  0.79717  0.44036  1.0000
  H   H567      1.0  0.18722  0.73910  0.36460  1.0000
  C   C356      1.0  0.36562  0.67375  0.35633  1.0000
  C   C357      1.0  0.20888  0.69669  0.39894  1.0000
  H   H568      1.0  0.22692  0.72826  0.35239  1.0000
  S   S151      1.0  0.36924  0.76721  0.26431  1.0000
  C   C358      1.0  0.38688  0.67322  0.34463  1.0000
  C   C359      1.0  0.49460  0.79910  0.35692  1.0000
  H   H569      1.0  0.33848  0.69449  0.28855  1.0000
  H   H570      1.0  0.32116  0.75508  0.31236  1.0000
  C   C360      1.0  0.47184  0.68250  0.27884  1.0000
  C   C361      1.0  0.22606  0.71332  0.36433  1.0000
  H   H571      1.0  0.44470  0.82686  0.34706  1.0000
  H   H572      1.0  0.40592  0.93935  0.45096  1.0000
  H   H573      1.0  0.37884  0.92800  0.49569  1.0000
  C   C362      1.0  0.02615  0.67046  0.28111  1.0000
  H   H574      1.0  0.47447  0.82378  0.26611  1.0000
  C   C363      1.0  0.47407  0.81976  0.44932  1.0000
  C   C364      1.0  0.06900  0.78243  0.25442  1.0000
  C   C365      1.0  0.48651  0.79816  0.42017  1.0000
  H   H575      1.0  0.27444  0.77225  0.45681  1.0000
  Fe  Fe76      1.0  0.40262  0.75778  0.27539  1.0000
  H   H576      1.0  0.45977  0.82880  0.45868  1.0000
  H   H577      1.0  0.24278  0.70803  0.36922  1.0000
  H   H578      1.0  0.43524  0.80647  0.44879  1.0000
  H   H579      1.0  0.28808  0.80357  0.46500  1.0000
  C   C366      1.0  0.10748  0.68541  0.28787  1.0000
  H   H580      1.0  0.49370  0.87495  0.27104  1.0000
  H   H581      1.0  0.09864  0.71474  0.48447  1.0000
  C   C367      1.0  0.48453  0.83719  0.26346  1.0000
  H   H582      1.0  0.45612  0.78360  0.45252  1.0000
  H   H583      1.0  0.44464  0.79017  0.42721  1.0000
  C   C368      1.0  0.09280  0.66692  0.36689  1.0000
  C   C369      1.0  0.45839  0.82880  0.41546  1.0000
  C   C370      1.0  0.09316  0.70319  0.29450  1.0000
  H   H584      1.0  0.42736  0.95420  0.49818  1.0000
  H   H585      1.0  0.12313  0.68762  0.27796  1.0000
  H   H586      1.0  0.22226  0.70084  0.35544  1.0000
  H   H587      1.0  0.13329  0.66377  0.34444  1.0000
  C   C371      1.0  0.47641  0.81523  0.35744  1.0000
  C   C372      1.0  0.39004  0.94043  0.49339  1.0000
  H   H588      1.0  0.28334  0.74585  0.46993  1.0000
  C   C373      1.0  0.10141  0.66472  0.29375  1.0000
  H   H589      1.0  0.50396  0.82653  0.31252  1.0000
  C   C374      1.0  0.42699  0.94895  0.48207  1.0000
  H   H590      1.0  0.30797  0.80068  0.48353  1.0000
  H   H591      1.0  0.40235  0.91260  0.46382  1.0000
  H   H592      1.0  0.50020  0.83230  0.25293  1.0000
  C   C375      1.0  0.50207  0.86030  0.28025  1.0000
  H   H593      1.0  0.00710  0.67723  0.32146  1.0000
  C   C376      1.0  0.44099  0.66911  0.26915  1.0000
  S   S152      1.0  0.20474  0.68311  0.25308  1.0000
  H   H594      1.0  0.24810  0.66372  0.49169  1.0000
  H   H595      1.0  0.45826  0.86358  0.28972  1.0000
  H   H596      1.0  0.28000  0.79675  0.49384  1.0000
  H   H597      1.0  0.12955  0.66235  0.38550  1.0000
  H   H598      1.0  0.07820  0.77320  0.26768  1.0000
  C   C377      1.0  0.27973  0.76310  0.47230  1.0000
  H   H599      1.0  0.42949  0.91947  0.45517  1.0000
  H   H600      1.0  0.06618  0.74021  0.25942  1.0000
  H   H601      1.0  0.26535  0.76486  0.48534  1.0000
  H   H602      1.0  0.42960  0.67591  0.28279  1.0000
  C   C378      1.0  0.41260  0.92565  0.46262  1.0000
  H   H603      1.0  0.44036  0.68140  0.25435  1.0000
  H   H604      1.0  0.08333  0.66742  0.35310  1.0000
  H   H605      1.0  0.02704  0.66407  0.26537  1.0000
  H   H606      1.0  0.35696  0.65999  0.35807  1.0000
  H   H607      1.0  0.30966  0.74113  0.49753  1.0000
  H   H608      1.0  0.43795  0.90583  0.49247  1.0000
  H   H609      1.0  0.05200  0.78800  0.26196  1.0000
  H   H610      1.0  0.39458  0.65906  0.33735  1.0000
  Fe  Fe77      1.0  0.15100  0.67008  0.51720  1.0000
  S   S153      1.0  0.38395  0.86642  0.52931  1.0000
  S   S154      1.0  0.34405  0.92051  0.53375  1.0000
  Fe  Fe78      1.0  0.36183  0.84146  0.53141  1.0000
  S   S155      1.0  0.35695  0.81778  0.56206  1.0000
  S   S156      1.0  0.33279  0.86522  0.52311  1.0000
  H   H611      1.0  0.24851  0.70292  0.53022  1.0000
  H   H612      1.0  0.10946  0.72182  0.50719  1.0000
  S   S157      1.0  0.14469  0.69746  0.53721  1.0000
  C   C379      1.0  0.24553  0.68647  0.53797  1.0000
  H   H613      1.0  0.33106  0.89260  0.62603  1.0000
  H   H614      1.0  0.34654  0.86896  0.63875  1.0000
  H   H615      1.0  0.16726  0.66059  0.56193  1.0000
  H   H616      1.0  0.26856  0.96524  0.70327  1.0000
  H   H617      1.0  0.23347  0.68822  0.55305  1.0000
  Fe  Fe79      1.0  0.26943  0.74226  0.59017  1.0000
  S   S158      1.0  0.23254  0.74911  0.59707  1.0000
  S   S159      1.0  0.28514  0.75881  0.55805  1.0000
  Fe  Fe80      1.0  0.27249  0.71209  0.63296  1.0000
  S   S160      1.0  0.23609  0.71713  0.64348  1.0000
  S   S161      1.0  0.29341  0.68998  0.65571  1.0000
  Fe  Fe81      1.0  0.23385  0.71366  0.60860  1.0000
  S   S162      1.0  0.21556  0.68791  0.60194  1.0000
  Fe  Fe82      1.0  0.23854  0.75187  0.63110  1.0000
  S   S163      1.0  0.22262  0.78068  0.64771  1.0000
  S   S164      1.0  0.27039  0.70656  0.59889  1.0000
  S   S165      1.0  0.27528  0.74719  0.62341  1.0000
  H   H618      1.0  0.29137  0.76031  0.51226  1.0000
  S   S166      1.0  0.41842  0.96924  0.64208  1.0000
  S   S167      1.0  0.40375  0.95167  0.59255  1.0000
  Fe  Fe83      1.0  0.38924  0.96839  0.66841  1.0000
  S   S168      1.0  0.38462  0.94481  0.69925  1.0000
  Fe  Fe84      1.0  0.30065  0.86658  0.71484  1.0000
  S   S169      1.0  0.26552  0.86378  0.71220  1.0000
  S   S170      1.0  0.32419  0.87851  0.68560  1.0000
  Fe  Fe85      1.0  0.27207  0.83109  0.73181  1.0000
  S   S171      1.0  0.26550  0.79811  0.72772  1.0000
  S   S172      1.0  0.30782  0.83296  0.73177  1.0000
  C   C380      1.0  0.36954  0.92481  0.69578  1.0000
  C   C381      1.0  0.35675  0.91479  0.71386  1.0000
  C   C382      1.0  0.34317  0.90011  0.71100  1.0000
  C   C383      1.0  0.34237  0.89538  0.69004  1.0000
  C   C384      1.0  0.35576  0.90483  0.67209  1.0000
  C   C385      1.0  0.36936  0.91945  0.67496  1.0000
  H   H619      1.0  0.35687  0.91890  0.72998  1.0000
  H   H620      1.0  0.33307  0.89283  0.72494  1.0000
  H   H621      1.0  0.31969  0.98147  0.71558  1.0000
  Fe  Fe86      1.0  0.39305  0.97317  0.61914  1.0000
  H   H622      1.0  0.39500  0.83461  0.73027  1.0000
  C   C386      1.0  0.28261  0.66566  0.66443  1.0000
  C   C387      1.0  0.08649  0.69732  0.53881  1.0000
  H   H623      1.0  0.27941  0.98044  0.71990  1.0000
  H   H624      1.0  0.29402  0.94600  0.67517  1.0000
  H   H625      1.0  0.20974  0.67870  0.50509  1.0000
  N   N40       1.0  0.24439  0.69207  0.72197  1.0000
  C   C388      1.0  0.23510  0.78561  0.66955  1.0000
  C   C389      1.0  0.24959  0.76954  0.67996  1.0000
  C   C390      1.0  0.25898  0.77366  0.69765  1.0000
  C   C391      1.0  0.25452  0.79404  0.70457  1.0000
  C   C392      1.0  0.24055  0.81031  0.69371  1.0000
  C   C393      1.0  0.23062  0.80600  0.67645  1.0000
  H   H626      1.0  0.25325  0.75383  0.67465  1.0000
  H   H627      1.0  0.26981  0.76104  0.70597  1.0000
  H   H628      1.0  0.23681  0.82598  0.69912  1.0000
  H   H629      1.0  0.21929  0.81844  0.66858  1.0000
  C   C394      1.0  0.16361  0.69517  0.55593  1.0000
  C   C395      1.0  0.17041  0.71364  0.56084  1.0000
  C   C396      1.0  0.18643  0.71180  0.57493  1.0000
  C   C397      1.0  0.19520  0.69149  0.58455  1.0000
  C   C398      1.0  0.18806  0.67312  0.57990  1.0000
  C   C399      1.0  0.17254  0.67491  0.56544  1.0000
  H   H630      1.0  0.16357  0.72936  0.55349  1.0000
  H   H631      1.0  0.19182  0.72604  0.57850  1.0000
  Fe  Fe87      1.0  0.25796  0.87620  0.74490  1.0000
  H   H632      1.0  0.32319  0.94617  0.67311  1.0000
  C   C400      1.0  0.36040  0.92873  0.55066  1.0000
  C   C401      1.0  0.38232  0.91949  0.55115  1.0000
  C   C402      1.0  0.39533  0.92680  0.56406  1.0000
  C   C403      1.0  0.38640  0.94301  0.57704  1.0000
  C   C404      1.0  0.36430  0.95192  0.57702  1.0000
  C   C405      1.0  0.35139  0.94492  0.56367  1.0000
  H   H633      1.0  0.38937  0.90698  0.54132  1.0000
  H   H634      1.0  0.41242  0.91983  0.56408  1.0000
  H   H635      1.0  0.35732  0.96452  0.58689  1.0000
  H   H636      1.0  0.33443  0.95218  0.56333  1.0000
  C   C406      1.0  0.30548  0.77471  0.55935  1.0000
  C   C407      1.0  0.31028  0.79079  0.54187  1.0000
  C   C408      1.0  0.32623  0.80388  0.54252  1.0000
  C   C409      1.0  0.33742  0.80103  0.56075  1.0000
  C   C410      1.0  0.33254  0.78504  0.57831  1.0000
  C   C411      1.0  0.31663  0.77187  0.57760  1.0000
  H   H637      1.0  0.30145  0.79337  0.52791  1.0000
  H   H638      1.0  0.32982  0.81623  0.52894  1.0000
  H   H639      1.0  0.34126  0.78267  0.59239  1.0000
  H   H640      1.0  0.31330  0.75928  0.59099  1.0000
  H   H641      1.0  0.35543  0.90115  0.65586  1.0000
  H   H642      1.0  0.07198  0.73772  0.52206  1.0000
  N   N41       1.0  0.23732  0.67492  0.52286  1.0000
  Fe  Fe88      1.0  0.35562  0.88992  0.51860  1.0000
  H   H643      1.0  0.26679  0.68677  0.74584  1.0000
  H   H644      1.0  0.24153  0.66566  0.70540  1.0000
  H   H645      1.0  0.08361  0.67294  0.50814  1.0000
  H   H646      1.0  0.38951  0.94566  0.50968  1.0000
  C   C412      1.0  0.22202  0.70327  0.71922  1.0000
  H   H647      1.0  0.38358  0.87382  0.73111  1.0000
  C   C413      1.0  0.32223  0.96697  0.70711  1.0000
  H   H648      1.0  0.09402  0.70945  0.54511  1.0000
  C   C414      1.0  0.25008  0.69528  0.74321  1.0000
  H   H649      1.0  0.04968  0.72199  0.52708  1.0000
  H   H650      1.0  0.31600  0.98640  0.66669  1.0000
  H   H651      1.0  0.41045  0.90039  0.50184  1.0000
  S   S173      1.0  0.36427  0.97038  0.64570  1.0000
  C   C415      1.0  0.30090  0.98554  0.67891  1.0000
  N   N42       1.0  0.35378  0.87461  0.60356  1.0000
  C   C416      1.0  0.37171  0.88727  0.60373  1.0000
  C   C417      1.0  0.34201  0.88350  0.58458  1.0000
  C   C418      1.0  0.36317  0.85197  0.60180  1.0000
  H   H652      1.0  0.32441  0.86649  0.62449  1.0000
  H   H653      1.0  0.38055  0.88148  0.61820  1.0000
  H   H654      1.0  0.38409  0.88625  0.58882  1.0000
  H   H655      1.0  0.35330  0.88301  0.56888  1.0000
  H   H656      1.0  0.33469  0.90061  0.58521  1.0000
  H   H657      1.0  0.32853  0.87425  0.58370  1.0000
  H   H658      1.0  0.37239  0.84470  0.61568  1.0000
  H   H659      1.0  0.37472  0.85050  0.58633  1.0000
  H   H660      1.0  0.35012  0.84190  0.60165  1.0000
  H   H661      1.0  0.36532  0.90462  0.60423  1.0000
  H   H662      1.0  0.26047  0.67107  0.64019  1.0000
  H   H663      1.0  0.29132  0.79219  0.61370  1.0000
  C   C419      1.0  0.35347  0.84750  0.74728  1.0000
  H   H664      1.0  0.23299  0.66172  0.73456  1.0000
  H   H665      1.0  0.30879  0.93190  0.69678  1.0000
  C   C420      1.0  0.25380  0.67266  0.50320  1.0000
  H   H666      1.0  0.35590  0.85054  0.72904  1.0000
  N   N43       1.0  0.26476  0.81651  0.60460  1.0000
  C   C421      1.0  0.27762  0.80341  0.62125  1.0000
  C   C422      1.0  0.25490  0.80227  0.59359  1.0000
  C   C423      1.0  0.27945  0.82895  0.58820  1.0000
  C   C424      1.0  0.24704  0.83134  0.61535  1.0000
  H   H667      1.0  0.28490  0.81359  0.63028  1.0000
  H   H668      1.0  0.26714  0.79346  0.63360  1.0000
  H   H669      1.0  0.24564  0.81147  0.58043  1.0000
  H   H670      1.0  0.26767  0.79031  0.58605  1.0000
  H   H671      1.0  0.24324  0.79306  0.60531  1.0000
  H   H672      1.0  0.27032  0.83906  0.57538  1.0000
  H   H673      1.0  0.29282  0.81811  0.57969  1.0000
  H   H674      1.0  0.28741  0.83970  0.59592  1.0000
  H   H675      1.0  0.23701  0.84152  0.60329  1.0000
  H   H676      1.0  0.25377  0.84213  0.62417  1.0000
  H   H677      1.0  0.23559  0.82230  0.62763  1.0000
  C   C425      1.0  0.21660  0.68716  0.51616  1.0000
  C   C426      1.0  0.33826  0.87571  0.62406  1.0000
  H   H678      1.0  0.22098  0.72089  0.71929  1.0000
  H   H679      1.0  0.37978  0.92654  0.66102  1.0000
  H   H680      1.0  0.26118  0.67774  0.54340  1.0000
  C   C427      1.0  0.28307  0.96587  0.71144  1.0000
  H   H681      1.0  0.07155  0.69380  0.55040  1.0000
  C   C428      1.0  0.30753  0.94675  0.68466  1.0000
  H   H682      1.0  0.28441  0.95156  0.72429  1.0000
  C   C429      1.0  0.24510  0.66883  0.72142  1.0000
  C   C430      1.0  0.26612  0.66048  0.65415  1.0000
  H   H683      1.0  0.26076  0.71827  0.70419  1.0000
  H   H684      1.0  0.32480  0.95260  0.71964  1.0000
  H   H685      1.0  0.31953  0.76427  0.50356  1.0000
  H   H686      1.0  0.21725  0.70098  0.70337  1.0000
  H   H687      1.0  0.26160  0.65980  0.72406  1.0000
  H   H688      1.0  0.26978  0.66372  0.50758  1.0000
  H   H689      1.0  0.09866  0.68239  0.53945  1.0000
  H   H690      1.0  0.20387  0.68943  0.53054  1.0000
  C   C431      1.0  0.26035  0.70089  0.70400  1.0000
  H   H691      1.0  0.27736  0.69232  0.70494  1.0000
  N   N44       1.0  0.30342  0.96628  0.69554  1.0000
  H   H692      1.0  0.25610  0.69927  0.68774  1.0000
  C   C432      1.0  0.07188  0.68813  0.50839  1.0000
  H   H693      1.0  0.21905  0.70342  0.50737  1.0000
  H   H694      1.0  0.05643  0.68428  0.51892  1.0000
  N   N45       1.0  0.08130  0.70489  0.51631  1.0000
  S   S174      1.0  0.29257  0.88131  0.74594  1.0000
  C   C433      1.0  0.06528  0.72477  0.51622  1.0000
  H   H695      1.0  0.33786  0.96739  0.69558  1.0000
  H   H696      1.0  0.20952  0.69711  0.73257  1.0000
  H   H697      1.0  0.28694  0.98563  0.66973  1.0000
  H   H698      1.0  0.24987  0.71261  0.74421  1.0000
  H   H699      1.0  0.42230  0.91751  0.51557  1.0000
  C   C434      1.0  0.39143  0.83218  0.74848  1.0000
  C   C435      1.0  0.10167  0.70937  0.50173  1.0000
  H   H700      1.0  0.11399  0.69470  0.50170  1.0000
  C   C436      1.0  0.42124  0.91318  0.49924  1.0000
  H   H701      1.0  0.06112  0.73093  0.49945  1.0000
  S   S175      1.0  0.16681  0.95436  0.89091  1.0000
  H   H702      1.0  0.25077  0.77164  0.93513  1.0000
  H   H703      1.0  0.26666  0.91599  0.76426  1.0000
  H   H704      1.0  0.36115  0.66724  0.97926  1.0000
  C   C437      1.0  0.18014  0.93807  0.98677  1.0000
  H   H705      1.0  0.17580  0.89025  0.94566  1.0000
  C   C438      1.0  0.26025  0.75809  0.94481  1.0000
  H   H706      1.0  0.16641  0.94591  0.97748  1.0000
  S   S176      1.0  0.17967  0.79058  0.97070  1.0000
  Fe  Fe89      1.0  0.29546  0.71640  0.90527  1.0000
  S   S177      1.0  0.26109  0.71083  0.90360  1.0000
  S   S178      1.0  0.30474  0.71138  0.93932  1.0000
  Fe  Fe90      1.0  0.30504  0.72907  0.85612  1.0000
  S   S179      1.0  0.27147  0.72436  0.85060  1.0000
  S   S180      1.0  0.32821  0.73898  0.82600  1.0000
  Fe  Fe91      1.0  0.25960  0.74139  0.88004  1.0000
  S   S181      1.0  0.23340  0.77042  0.87940  1.0000
  Fe  Fe92      1.0  0.27645  0.69423  0.87445  1.0000
  H   H707      1.0  0.22983  0.75202  0.97997  1.0000
  S   S182      1.0  0.29294  0.74827  0.88383  1.0000
  S   S183      1.0  0.31107  0.69761  0.87796  1.0000
  S   S184      1.0  0.21519  0.98793  0.85994  1.0000
  N   N46       1.0  0.26102  0.76288  0.96705  1.0000
  C   C439      1.0  0.36933  0.84475  0.78060  1.0000
  H   H708      1.0  0.27085  0.79660  0.78099  1.0000
  H   H709      1.0  0.37841  0.71134  0.97421  1.0000
  S   S185      1.0  0.31350  0.83881  0.79289  1.0000
  C   C440      1.0  0.18159  0.93644  0.90997  1.0000
  H   H710      1.0  0.27904  0.79182  0.81904  1.0000
  C   C441      1.0  0.21446  0.95354  0.78492  1.0000
  C   C442      1.0  0.25401  0.94383  0.78031  1.0000
  C   C443      1.0  0.25210  0.92639  0.76986  1.0000
  C   C444      1.0  0.23137  0.92249  0.76675  1.0000
  H   H711      1.0  0.27012  0.94668  0.78269  1.0000
  H   H712      1.0  0.24838  0.74838  0.81188  1.0000
  C   C445      1.0  0.32506  0.76673  0.81685  1.0000
  C   C446      1.0  0.32304  0.78159  0.83154  1.0000
  C   C447      1.0  0.32005  0.80374  0.82397  1.0000
  C   C448      1.0  0.31823  0.81106  0.80186  1.0000
  C   C449      1.0  0.32007  0.79620  0.78720  1.0000
  C   C450      1.0  0.32387  0.77408  0.79462  1.0000
  H   H713      1.0  0.32401  0.77600  0.84870  1.0000
  H   H714      1.0  0.31863  0.81518  0.83538  1.0000
  Fe  Fe93      1.0  0.29665  0.84733  0.76274  1.0000
  H   H715      1.0  0.32537  0.76261  0.78322  1.0000
  H   H716      1.0  0.26704  0.72946  0.98015  1.0000
  H   H717      1.0  0.19648  0.93344  0.77167  1.0000
  S   S186      1.0  0.17219  0.85138  0.98684  1.0000
  C   C451      1.0  0.26746  0.66712  0.80573  1.0000
  C   C452      1.0  0.27060  0.67111  0.82641  1.0000
  S   S187      1.0  0.26936  0.66113  0.87120  1.0000
  H   H718      1.0  0.27741  0.68532  0.82787  1.0000
  H   H719      1.0  0.18683  0.95083  0.99287  1.0000
  C   C453      1.0  0.38854  0.70620  0.98782  1.0000
  H   H720      1.0  0.35783  0.74023  0.99490  1.0000
  C   C454      1.0  0.20447  0.90643  0.94000  1.0000
  C   C455      1.0  0.18336  0.90381  0.93675  1.0000
  H   H721      1.0  0.24716  0.78700  0.77502  1.0000
  H   H722      1.0  0.40344  0.71447  0.98355  1.0000
  H   H723      1.0  0.38289  0.69141  0.91238  1.0000
  C   C456      1.0  0.19519  0.78514  0.94551  1.0000
  C   C457      1.0  0.19903  0.76404  0.94047  1.0000
  C   C458      1.0  0.21141  0.75928  0.92053  1.0000
  C   C459      1.0  0.21937  0.77575  0.90519  1.0000
  C   C460      1.0  0.21557  0.79685  0.91024  1.0000
  C   C461      1.0  0.20389  0.80148  0.93054  1.0000
  H   H724      1.0  0.19234  0.75135  0.95200  1.0000
  H   H725      1.0  0.21411  0.74299  0.91669  1.0000
  H   H726      1.0  0.22169  0.80965  0.89843  1.0000
  H   H727      1.0  0.20098  0.81779  0.93430  1.0000
  N   N47       1.0  0.25113  0.78195  0.80923  1.0000
  C   C462      1.0  0.37450  0.67795  0.94604  1.0000
  C   C463      1.0  0.35774  0.67654  0.96382  1.0000
  C   C464      1.0  0.33650  0.68734  0.96173  1.0000
  C   C465      1.0  0.33177  0.69908  0.94168  1.0000
  C   C466      1.0  0.34848  0.70053  0.92386  1.0000
  C   C467      1.0  0.36993  0.69021  0.92615  1.0000
  H   H728      1.0  0.22301  0.80567  0.80371  1.0000
  H   H729      1.0  0.32357  0.68611  0.97552  1.0000
  H   H730      1.0  0.34493  0.70974  0.90837  1.0000
  H   H731      1.0  0.19341  0.93079  0.97483  1.0000
  N   N48       1.0  0.37368  0.84868  0.75642  1.0000
  H   H732      1.0  0.15560  0.91671  0.91948  1.0000
  H   H733      1.0  0.21039  0.95241  0.90399  1.0000
  Fe  Fe94      1.0  0.20677  0.85945  0.98083  1.0000
  H   H734      1.0  0.26317  0.77640  0.84039  1.0000
  C   C468      1.0  0.23521  0.95732  0.78805  1.0000
  H   H735      1.0  0.24629  0.81609  0.80960  1.0000
  H   H736      1.0  0.31871  0.80166  0.77012  1.0000
  C   C469      1.0  0.21257  0.93623  0.77419  1.0000
  H   H737      1.0  0.26197  0.79655  0.95618  1.0000
  C   C470      1.0  0.16355  0.90546  0.99602  1.0000
  C   C471      1.0  0.20278  0.93893  0.91304  1.0000
  H   H738      1.0  0.22409  0.76629  0.80540  1.0000
  H   H739      1.0  0.23835  0.68874  0.75715  1.0000
  H   H740      1.0  0.22830  0.78013  0.97034  1.0000
  H   H741      1.0  0.36392  0.82870  0.78651  1.0000
  C   C472      1.0  0.23809  0.76388  0.81504  1.0000
  H   H742      1.0  0.38420  0.84540  0.78818  1.0000
  N   N49       1.0  0.20664  0.91450  0.84620  1.0000
  C   C473      1.0  0.21767  0.93186  0.85082  1.0000
  C   C474      1.0  0.20200  0.89958  0.86656  1.0000
  C   C475      1.0  0.22114  0.90267  0.82961  1.0000
  C   C476      1.0  0.18571  0.92396  0.83786  1.0000
  H   H743      1.0  0.20723  0.94099  0.86339  1.0000
  H   H744      1.0  0.22118  0.94356  0.83586  1.0000
  H   H745      1.0  0.23358  0.92541  0.85706  1.0000
  H   H746      1.0  0.19047  0.90790  0.87910  1.0000
  H   H747      1.0  0.19425  0.88593  0.86356  1.0000
  H   H748      1.0  0.21727  0.89280  0.87390  1.0000
  H   H749      1.0  0.21305  0.88998  0.82501  1.0000
  H   H750      1.0  0.23683  0.89483  0.83561  1.0000
  H   H751      1.0  0.22555  0.91361  0.81433  1.0000
  H   H752      1.0  0.17683  0.91136  0.83426  1.0000
  H   H753      1.0  0.18855  0.93528  0.82250  1.0000
  H   H754      1.0  0.17446  0.93315  0.84998  1.0000
  Fe  Fe95      1.0  0.18863  0.81715  0.98593  1.0000
  S   S188      1.0  0.23830  0.97863  0.80163  1.0000
  C   C477      1.0  0.26932  0.77819  0.82257  1.0000
  S   S189      1.0  0.22273  0.82569  0.97714  1.0000
  S   S190      1.0  0.26139  0.84319  0.76428  1.0000
  H   H755      1.0  0.31351  0.66125  0.93610  1.0000
  H   H756      1.0  0.23118  0.76209  0.83275  1.0000
  H   H757      1.0  0.38682  0.81571  0.75361  1.0000
  H   H758      1.0  0.27706  0.75511  0.93555  1.0000
  H   H759      1.0  0.27179  0.67841  0.79139  1.0000
  H   H760      1.0  0.28075  0.76335  0.81929  1.0000
  H   H761      1.0  0.22972  0.80133  0.83126  1.0000
  C   C478      1.0  0.26034  0.78356  0.78577  1.0000
  H   H762      1.0  0.19989  0.96414  0.79044  1.0000
  H   H763      1.0  0.23042  0.92620  0.93053  1.0000
  C   C479      1.0  0.21411  0.92402  0.92806  1.0000
  C   C480      1.0  0.23687  0.80217  0.81363  1.0000
  C   C481      1.0  0.17194  0.91884  0.92190  1.0000
  C   C482      1.0  0.23842  0.76628  0.97884  1.0000
  S   S191      1.0  0.21892  0.88889  0.95960  1.0000
  H   H764      1.0  0.25229  0.74351  0.94534  1.0000
  Fe  Fe96      1.0  0.17989  0.98235  0.86778  1.0000
  H   H765      1.0  0.28849  0.78049  0.95679  1.0000
  H   H766      1.0  0.27090  0.76843  0.78181  1.0000
  C   C483      1.0  0.27134  0.78254  0.96541  1.0000
  H   H767      1.0  0.34264  0.66448  0.90422  1.0000
  C   C484      1.0  0.27407  0.74466  0.97916  1.0000
  H   H768      1.0  0.27188  0.78683  0.98192  1.0000
  S   S192      1.0  0.40101  0.66419  0.94858  1.0000
  H   H769      1.0  0.35588  0.85686  0.78714  1.0000
  H   H770      1.0  0.29133  0.74190  0.97090  1.0000
  S   S193      1.0  0.17486  0.98458  0.83243  1.0000
  H   H771      1.0  0.34797  0.83141  0.75240  1.0000
  H   H772      1.0  0.40698  0.83258  0.75503  1.0000
  S   S194      1.0  0.22833  0.90046  0.75409  1.0000
  H   H773      1.0  0.17610  0.89717  0.98427  1.0000
  H   H774      1.0  0.27460  0.74761  0.99616  1.0000
  H   H775      1.0  0.14943  0.91286  0.98713  1.0000
  H   H776      1.0  0.39561  0.87178  0.75583  1.0000
  H   H777      1.0  0.36726  0.88305  0.75507  1.0000
  H   H778      1.0  0.23837  0.76979  0.99576  1.0000
  H   H779      1.0  0.39422  0.68867  0.98800  1.0000
  H   H780      1.0  0.33964  0.85954  0.75319  1.0000
  C   C485      1.0  0.38035  0.87026  0.74931  1.0000
  H   H781      1.0  0.79146  0.18803  0.19383  1.0000
  H   H782      1.0  0.88101  0.06071  0.13449  1.0000
  Fe  Fe97      1.0  0.88453  0.00807  0.14006  1.0000
  S   S195      1.0  0.89902  0.01253  0.16948  1.0000
  S   S196      1.0  0.89829  0.02544  0.10728  1.0000
  H   H783      1.0  0.77345  0.26456  0.22549  1.0000
  C   C486      1.0  0.84181  0.08193  0.14856  1.0000
  Fe  Fe98      1.0  0.86415  0.01447  0.18663  1.0000
  H   H784      1.0  0.81541  0.08158  0.04732  1.0000
  H   H785      1.0  0.72876  0.30888  0.04010  1.0000
  S   S197      1.0  0.84958  0.01140  0.15659  1.0000
  Fe  Fe99      1.0  0.85390  0.18210  0.01931  1.0000
  S   S198      1.0  0.83209  0.15724  0.02060  1.0000
  S   S199      1.0  0.84073  0.21551  0.02717  1.0000
  H   H786      1.0  0.77937  0.09154  0.00330  1.0000
  S   S200      1.0  0.85016  0.04524  0.20112  1.0000
  H   H787      1.0  0.69217  0.32028  0.02834  1.0000
  H   H788      1.0  0.73816  0.29900  0.00081  1.0000
  C   C487      1.0  0.86333  0.09961  0.16723  1.0000
  Fe  Fe100     1.0  0.85956  0.13331  0.03320  1.0000
  S   S201      1.0  0.84521  0.10925  0.06038  1.0000
  H   H789      1.0  0.69893  0.29206  0.10619  1.0000
  S   S202      1.0  0.88011  0.15896  0.03481  1.0000
  Fe  Fe101     1.0  0.77109  0.29854  0.15000  1.0000
  S   S203      1.0  0.73662  0.29415  0.14688  1.0000
  H   H790      1.0  0.85547  0.11808  0.12652  1.0000
  Fe  Fe102     1.0  0.79087  0.25536  0.13398  1.0000
  S   S204      1.0  0.75797  0.24749  0.13026  1.0000
  S   S205      1.0  0.82058  0.23076  0.12667  1.0000
  Fe  Fe103     1.0  0.75149  0.28198  0.11508  1.0000
  C   C488      1.0  0.67451  0.31375  0.06069  1.0000
  Fe  Fe104     1.0  0.74656  0.26012  0.16233  1.0000
  S   S206      1.0  0.72683  0.24315  0.19161  1.0000
  S   S207      1.0  0.78535  0.28909  0.11696  1.0000
  S   S208      1.0  0.78010  0.26538  0.16736  1.0000
  H   H791      1.0  0.80832  0.12024  0.03461  1.0000
  C   C489      1.0  0.77654  0.19513  0.20304  1.0000
  C   C490      1.0  0.71632  0.29962  0.07386  1.0000
  H   H792      1.0  0.77003  0.30196  0.23874  1.0000
  H   H793      1.0  0.93832  0.19752  0.01074  1.0000
  C   C491      1.0  0.73814  0.21384  0.22663  1.0000
  H   H794      1.0  0.78216  0.11790  0.02732  1.0000
  H   H795      1.0  0.77784  0.24144  0.21169  1.0000
  H   H796      1.0  0.88096  0.22907  0.04665  1.0000
  C   C492      1.0  0.89440  0.21513  0.04664  1.0000
  C   C493      1.0  0.76263  0.21182  0.19254  1.0000
  H   H797      1.0  0.88450  0.10946  0.12676  1.0000
  C   C494      1.0  0.83407  0.21882  0.05505  1.0000
  C   C495      1.0  0.82216  0.23826  0.06070  1.0000
  C   C496      1.0  0.81744  0.24174  0.08271  1.0000
  C   C497      1.0  0.82520  0.22606  0.09915  1.0000
  C   C498      1.0  0.83720  0.20661  0.09349  1.0000
  C   C499      1.0  0.84130  0.20283  0.07152  1.0000
  H   H798      1.0  0.81656  0.25071  0.04808  1.0000
  H   H799      1.0  0.80817  0.25677  0.08690  1.0000
  H   H800      1.0  0.84308  0.19438  0.10618  1.0000
  H   H801      1.0  0.85024  0.18768  0.06737  1.0000
  H   H802      1.0  0.91930  0.18217  0.02836  1.0000
  C   C500      1.0  0.92673  0.19727  0.02633  1.0000
  H   H803      1.0  0.82846  0.09587  0.14820  1.0000
  C   C501      1.0  0.74781  0.26322  0.02875  1.0000
  S   S209      1.0  0.78998  0.16783  0.23815  1.0000
  C   C502      1.0  0.74346  0.22127  0.20432  1.0000
  H   H804      1.0  0.66182  0.30464  0.09455  1.0000
  C   C503      1.0  0.81191  0.22027  0.23169  1.0000
  H   H805      1.0  0.85046  0.11396  0.16760  1.0000
  H   H806      1.0  0.76688  0.21749  0.17532  1.0000
  N   N50       1.0  0.70413  0.15824  0.23681  1.0000
  C   C504      1.0  0.86834  0.10373  0.12766  1.0000
  C   C505      1.0  0.86022  0.08544  0.07214  1.0000
  C   C506      1.0  0.88298  0.08057  0.06662  1.0000
  C   C507      1.0  0.89442  0.06188  0.07723  1.0000
  C   C508      1.0  0.88321  0.04806  0.09346  1.0000
  C   C509      1.0  0.86039  0.05278  0.09868  1.0000
  C   C510      1.0  0.84895  0.07139  0.08803  1.0000
  H   H807      1.0  0.89182  0.09129  0.05441  1.0000
  H   H808      1.0  0.91208  0.05825  0.07308  1.0000
  H   H809      1.0  0.85160  0.04206  0.11095  1.0000
  H   H810      1.0  0.83131  0.07503  0.09232  1.0000
  C   C511      1.0  0.88077  0.06977  0.14834  1.0000
  H   H811      1.0  0.84224  0.09787  0.01893  1.0000
  H   H812      1.0  0.82926  0.08440  0.21582  1.0000
  H   H813      1.0  0.72350  0.22139  0.23584  1.0000
  C   C512      1.0  0.69345  0.31440  0.04536  1.0000
  H   H814      1.0  0.84142  0.07344  0.13446  1.0000
  N   N51       1.0  0.86356  0.08876  0.14794  1.0000
  H   H815      1.0  0.89747  0.07431  0.14735  1.0000
  H   H816      1.0  0.85983  0.08860  0.18277  1.0000
  H   H817      1.0  0.87949  0.10493  0.16739  1.0000
  C   C513      1.0  0.75602  0.29309  0.00116  1.0000
  C   C514      1.0  0.83278  0.09497  0.00626  1.0000
  C   C515      1.0  0.81655  0.25488  0.21048  1.0000
  H   H818      1.0  0.88624  0.20043  0.04930  1.0000
  S   S210      1.0  0.87595  0.12650  0.99970  1.0000
  H   H819      1.0  0.67045  0.15365  0.23761  1.0000
  C   C516      1.0  0.82852  0.07205  0.22987  1.0000
  H   H820      1.0  0.75030  0.24549  0.03366  1.0000
  H   H821      1.0  0.83431  0.25305  0.21231  1.0000
  H   H822      1.0  0.76160  0.30148  0.01319  1.0000
  C   C517      1.0  0.83639  0.03489  0.24581  1.0000
  H   H823      1.0  0.90301  0.21476  0.06103  1.0000
  N   N52       1.0  0.80915  0.09542  0.01478  1.0000
  C   C518      1.0  0.68703  0.14414  0.23855  1.0000
  H   H824      1.0  0.87799  0.05837  0.16362  1.0000
  C   C519      1.0  0.71421  0.30761  0.05197  1.0000
  H   H825      1.0  0.81546  0.24843  0.19518  1.0000
  H   H826      1.0  0.83762  0.07064  0.16364  1.0000
  H   H827      1.0  0.81324  0.06243  0.02988  1.0000
  H   H828      1.0  0.88889  0.20280  0.00928  1.0000
  C   C520      1.0  0.77426  0.31498  0.22619  1.0000
  H   H829      1.0  0.86904  0.09582  0.11286  1.0000
  H   H830      1.0  0.93653  0.19608  0.04001  1.0000
  C   C521      1.0  0.83744  0.05071  0.22745  1.0000
  C   C522      1.0  0.75215  0.19714  0.23716  1.0000
  C   C523      1.0  0.69739  0.29841  0.08927  1.0000
  H   H831      1.0  0.81032  0.21347  0.21674  1.0000
  C   C524      1.0  0.67645  0.30542  0.08264  1.0000
  C   C525      1.0  0.77136  0.18777  0.22534  1.0000
  C   C526      1.0  0.80008  0.11679  0.02123  1.0000
  H   H832      1.0  0.93181  0.23757  0.00755  1.0000
  C   C527      1.0  0.70474  0.17265  0.21571  1.0000
  H   H833      1.0  0.73909  0.15479  0.23759  1.0000
  H   H834      1.0  0.71798  0.18298  0.21361  1.0000
  N   N53       1.0  0.76011  0.26946  0.00697  1.0000
  H   H835      1.0  0.81034  0.27242  0.20796  1.0000
  N   N54       1.0  0.80382  0.24359  0.22970  1.0000
  H   H836      1.0  0.90777  0.25076  0.02275  1.0000
  S   S211      1.0  0.74302  0.29097  0.08061  1.0000
  H   H837      1.0  0.78999  0.27003  0.02002  1.0000
  H   H838      1.0  0.68891  0.18353  0.21447  1.0000
  H   H839      1.0  0.80240  0.21111  0.24574  1.0000
  H   H840      1.0  0.75326  0.27054  0.04168  1.0000
  H   H841      1.0  0.72980  0.26859  0.02911  1.0000
  C   C528      1.0  0.80651  0.07878  0.03408  1.0000
  H   H842      1.0  0.76904  0.29924  0.19955  1.0000
  H   H843      1.0  0.78889  0.07871  0.04109  1.0000
  H   H844      1.0  0.78760  0.24472  0.01217  1.0000
  C   C529      1.0  0.77376  0.31338  0.20406  1.0000
  H   H845      1.0  0.70805  0.16339  0.20157  1.0000
  C   C530      1.0  0.72578  0.14484  0.23800  1.0000
  H   H846      1.0  0.69052  0.13383  0.22525  1.0000
  C   C531      1.0  0.89727  0.21724  0.00741  1.0000
  C   C532      1.0  0.78029  0.24721  0.22686  1.0000
  N   N55       1.0  0.90968  0.21642  0.02589  1.0000
  H   H847      1.0  0.84334  0.01843  0.24412  1.0000
  H   H848      1.0  0.73055  0.13526  0.22415  1.0000
  H   H849      1.0  0.92978  0.23598  0.03680  1.0000
  C   C533      1.0  0.92025  0.23606  0.02311  1.0000
  H   H850      1.0  0.80234  0.12982  0.00717  1.0000
  H   H851      1.0  0.77019  0.23850  0.24073  1.0000
  H   H852      1.0  0.88418  0.23144  0.00651  1.0000
  H   H853      1.0  0.82956  0.21680  0.23409  1.0000
  C   C534      1.0  0.78392  0.26247  0.00765  1.0000
  H   H854      1.0  0.84017  0.07915  0.00107  1.0000
  Fe  Fe105     1.0  0.89415  0.15431  0.99996  1.0000
  H   H855      1.0  0.80069  0.26958  0.24864  1.0000
  C   C535      1.0  0.83421  0.32065  0.43289  1.0000
  Fe  Fe106     1.0  0.77777  0.14777  0.26951  1.0000
  S   S212      1.0  0.80069  0.13385  0.29435  1.0000
  C   C536      1.0  0.69901  0.17118  0.25510  1.0000
  Fe  Fe107     1.0  0.74030  0.12529  0.29462  1.0000
  S   S213      1.0  0.75987  0.10983  0.32141  1.0000
  S   S214      1.0  0.70534  0.11897  0.29757  1.0000
  Fe  Fe108     1.0  0.77105  0.14210  0.31897  1.0000
  S   S215      1.0  0.76995  0.15518  0.35090  1.0000
  Fe  Fe109     1.0  0.78740  0.10296  0.29433  1.0000
  S   S216      1.0  0.80572  0.06905  0.29480  1.0000
  S   S217      1.0  0.74910  0.15821  0.29406  1.0000
  S   S218      1.0  0.76684  0.11624  0.26766  1.0000
  C   C537      1.0  0.70004  0.26048  0.42242  1.0000
  S   S219      1.0  0.65034  0.02839  0.41166  1.0000
  S   S220      1.0  0.65205  0.01264  0.35512  1.0000
  N   N56       1.0  0.88533  0.27418  0.45808  1.0000
  H   H856      1.0  0.56576  0.99153  0.43937  1.0000
  Fe  Fe110     1.0  0.78878  0.26174  0.38055  1.0000
  S   S221      1.0  0.75698  0.25983  0.40269  1.0000
  S   S222      1.0  0.79250  0.24970  0.34783  1.0000
  Fe  Fe111     1.0  0.80624  0.28659  0.41075  1.0000
  S   S223      1.0  0.77578  0.28610  0.43537  1.0000
  S   S224      1.0  0.83503  0.30357  0.41301  1.0000
  Fe  Fe112     1.0  0.77778  0.25178  0.42985  1.0000
  S   S225      1.0  0.77037  0.22674  0.45895  1.0000
  Fe  Fe113     1.0  0.75788  0.29402  0.40606  1.0000
  H   H857      1.0  0.68615  0.13318  0.25444  1.0000
  S   S226      1.0  0.80996  0.25132  0.40749  1.0000
  S   S227      1.0  0.78806  0.29697  0.38157  1.0000
  C   C538      1.0  0.75070  0.21097  0.45548  1.0000
  C   C539      1.0  0.69882  0.04662  0.43887  1.0000
  H   H858      1.0  0.78388  0.31988  0.30782  1.0000
  H   H859      1.0  0.75539  0.21726  0.42029  1.0000
  H   H860      1.0  0.71417  0.27034  0.46993  1.0000
  H   H861      1.0  0.72913  0.25311  0.45095  1.0000
  C   C540      1.0  0.81777  0.06200  0.26882  1.0000
  H   H862      1.0  0.72383  0.28145  0.44250  1.0000
  H   H863      1.0  0.72751  0.29198  0.34115  1.0000
  H   H864      1.0  0.69829  0.23135  0.45869  1.0000
  H   H865      1.0  0.88148  0.24080  0.46644  1.0000
  H   H866      1.0  0.73478  0.04954  0.36274  1.0000
  H   H867      1.0  0.74843  0.19193  0.25451  1.0000
  H   H868      1.0  0.69690  0.02397  0.41704  1.0000
  C   C541      1.0  0.77607  0.18156  0.34966  1.0000
  C   C542      1.0  0.78188  0.19407  0.32962  1.0000
  C   C543      1.0  0.78688  0.21497  0.32919  1.0000
  C   C544      1.0  0.78608  0.22347  0.34875  1.0000
  C   C545      1.0  0.78013  0.21100  0.36875  1.0000
  C   C546      1.0  0.77512  0.19015  0.36920  1.0000
  H   H869      1.0  0.78271  0.18756  0.31449  1.0000
  H   H870      1.0  0.79155  0.22447  0.31368  1.0000
  H   H871      1.0  0.77966  0.21732  0.38391  1.0000
  H   H872      1.0  0.77071  0.18059  0.38476  1.0000
  C   C547      1.0  0.81871  0.07767  0.25040  1.0000
  N   N57       1.0  0.76006  0.03684  0.33847  1.0000
  H   H873      1.0  0.75421  0.28197  0.34912  1.0000
  C   C548      1.0  0.82664  0.04057  0.26648  1.0000
  C   C549      1.0  0.57189  0.00098  0.42363  1.0000
  H   H874      1.0  0.91773  0.26773  0.46792  1.0000
  C   C550      1.0  0.70383  0.04662  0.30469  1.0000
  C   C551      1.0  0.68863  0.05927  0.31808  1.0000
  C   C552      1.0  0.68873  0.08162  0.31551  1.0000
  C   C553      1.0  0.70448  0.09122  0.30006  1.0000
  C   C554      1.0  0.71971  0.07853  0.28677  1.0000
  C   C555      1.0  0.71906  0.05638  0.28876  1.0000
  H   H875      1.0  0.67681  0.05186  0.33042  1.0000
  H   H876      1.0  0.67691  0.09139  0.32582  1.0000
  H   H877      1.0  0.73182  0.08581  0.27471  1.0000
  H   H878      1.0  0.73073  0.04672  0.27822  1.0000
  H   H879      1.0  0.82610  0.02837  0.28068  1.0000
  H   H880      1.0  0.90345  0.24637  0.44478  1.0000
  C   C556      1.0  0.86253  0.28159  0.46755  1.0000
  Fe  Fe114     1.0  0.68642  0.00321  0.33932  1.0000
  H   H881      1.0  0.78650  0.18886  0.48442  1.0000
  H   H882      1.0  0.81219  0.09424  0.25200  1.0000
  H   H883      1.0  0.66404  0.28324  0.44177  1.0000
  H   H884      1.0  0.79382  0.04006  0.33953  1.0000
  H   H885      1.0  0.78077  0.02916  0.30886  1.0000
  Fe  Fe115     1.0  0.66618  0.00582  0.38696  1.0000
  H   H886      1.0  0.77837  0.00543  0.34531  1.0000
  H   H887      1.0  0.71196  0.24560  0.42056  1.0000
  H   H888      1.0  0.67103  0.24369  0.45444  1.0000
  H   H889      1.0  0.89575  0.26254  0.48969  1.0000
  C   C557      1.0  0.68659  0.24651  0.45951  1.0000
  H   H890      1.0  0.68270  0.18137  0.25485  1.0000
  H   H891      1.0  0.85062  0.28137  0.45605  1.0000
  H   H892      1.0  0.72292  0.10986  0.38374  1.0000
  H   H893      1.0  0.74790  0.12170  0.37861  1.0000
  H   H894      1.0  0.80517  0.16668  0.49521  1.0000
  N   N58       1.0  0.69579  0.26480  0.44538  1.0000
  S   S228      1.0  0.66176  0.12935  0.47655  1.0000
  S   S229      1.0  0.71398  0.12498  0.48373  1.0000
  H   H895      1.0  0.75878  0.01394  0.36782  1.0000
  C   C558      1.0  0.68786  0.03636  0.42627  1.0000
  H   H896      1.0  0.68469  0.25829  0.41650  1.0000
  H   H897      1.0  0.63603  0.06203  0.43853  1.0000
  Fe  Fe116     1.0  0.68862  0.10288  0.48593  1.0000
  H   H898      1.0  0.70702  0.27398  0.41129  1.0000
  H   H899      1.0  0.71307  0.18074  0.48576  1.0000
  H   H900      1.0  0.74219  0.28600  0.30288  1.0000
  C   C559      1.0  0.74581  0.20992  0.43462  1.0000
  C   C560      1.0  0.67997  0.28469  0.44703  1.0000
  H   H901      1.0  0.85734  0.27123  0.48303  1.0000
  H   H902      1.0  0.75196  0.02787  0.30927  1.0000
  S   S230      1.0  0.70547  0.01845  0.30852  1.0000
  C   C561      1.0  0.66462  0.06819  0.45088  1.0000
  H   H903      1.0  0.69868  0.16075  0.27125  1.0000
  C   C562      1.0  0.81729  0.32200  0.45054  1.0000
  C   C563      1.0  0.76177  0.01447  0.34969  1.0000
  C   C564      1.0  0.73785  0.04826  0.34492  1.0000
  H   H904      1.0  0.76889  0.27612  0.31106  1.0000
  C   C565      1.0  0.77681  0.04789  0.34471  1.0000
  H   H905      1.0  0.72337  0.32204  0.31059  1.0000
  H   H906      1.0  0.72551  0.13331  0.25340  1.0000
  H   H907      1.0  0.78684  0.29825  0.32993  1.0000
  H   H908      1.0  0.68307  0.24918  0.47697  1.0000
  H   H909      1.0  0.67648  0.28855  0.46410  1.0000
  H   H910      1.0  0.74248  0.20094  0.49006  1.0000
  H   H911      1.0  0.59211  0.00505  0.38204  1.0000
  H   H912      1.0  0.60864  0.01109  0.43509  1.0000
  H   H913      1.0  0.73547  0.06484  0.33581  1.0000
  H   H914      1.0  0.74938  0.00569  0.34519  1.0000
  H   H915      1.0  0.56083  0.00013  0.41150  1.0000
  N   N59       1.0  0.72527  0.13137  0.40625  1.0000
  C   C566      1.0  0.71406  0.15024  0.39322  1.0000
  C   C567      1.0  0.70911  0.12192  0.42363  1.0000
  C   C568      1.0  0.74252  0.13819  0.41631  1.0000
  C   C569      1.0  0.73546  0.11515  0.39181  1.0000
  H   H916      1.0  0.70090  0.14574  0.38538  1.0000
  H   H917      1.0  0.72588  0.15771  0.37996  1.0000
  H   H918      1.0  0.70625  0.16282  0.40364  1.0000
  H   H919      1.0  0.69600  0.11622  0.41672  1.0000
  H   H920      1.0  0.71710  0.10789  0.43405  1.0000
  H   H921      1.0  0.70084  0.13380  0.43465  1.0000
  H   H922      1.0  0.75130  0.12441  0.42635  1.0000
  H   H923      1.0  0.73535  0.15047  0.42728  1.0000
  H   H924      1.0  0.75500  0.14538  0.40358  1.0000
  H   H925      1.0  0.74392  0.10064  0.40118  1.0000
  H   H926      1.0  0.71632  0.04201  0.43922  1.0000
  Fe  Fe117     1.0  0.68665  0.15128  0.47633  1.0000
  C   C570      1.0  0.71665  0.18868  0.45065  1.0000
  C   C571      1.0  0.72858  0.19909  0.43221  1.0000
  H   H927      1.0  0.72462  0.19868  0.41604  1.0000
  S   S231      1.0  0.69427  0.17640  0.44760  1.0000
  H   H928      1.0  0.79693  0.24387  0.26450  1.0000
  H   H929      1.0  0.72482  0.03967  0.34146  1.0000
  H   H930      1.0  0.65552  0.08034  0.46040  1.0000
  C   C572      1.0  0.72220  0.18881  0.47145  1.0000
  C   C573      1.0  0.68727  0.06249  0.45132  1.0000
  C   C574      1.0  0.73902  0.20016  0.47387  1.0000
  H   H931      1.0  0.90893  0.28407  0.43065  1.0000
  H   H932      1.0  0.86074  0.29836  0.47128  1.0000
  H   H933      1.0  0.77479  0.04808  0.36269  1.0000
  S   S232      1.0  0.70181  0.07429  0.46749  1.0000
  H   H934      1.0  0.87533  0.25264  0.43956  1.0000
  C   C575      1.0  0.65361  0.05776  0.43848  1.0000
  C   C576      1.0  0.88646  0.25251  0.45195  1.0000
  C   C577      1.0  0.89189  0.28923  0.43838  1.0000
  N   N60       1.0  0.75413  0.30655  0.32113  1.0000
  C   C578      1.0  0.74367  0.29668  0.34251  1.0000
  C   C579      1.0  0.66513  0.04174  0.42619  1.0000
  H   H935      1.0  0.76585  0.29789  0.28903  1.0000
  C   C580      1.0  0.76380  0.03674  0.31451  1.0000
  H   H936      1.0  0.88067  0.29043  0.42584  1.0000
  C   C581      1.0  0.90038  0.27341  0.47438  1.0000
  C   C582      1.0  0.71661  0.26755  0.45252  1.0000
  H   H937      1.0  0.77582  0.06483  0.33659  1.0000
  C   C583      1.0  0.75790  0.29092  0.30532  1.0000
  H   H938      1.0  0.68653  0.29874  0.43644  1.0000
  C   C584      1.0  0.60234  0.00570  0.39497  1.0000
  H   H939      1.0  0.80373  0.31293  0.45194  1.0000
  H   H940      1.0  0.89140  0.30572  0.44247  1.0000
  C   C585      1.0  0.77548  0.31255  0.32373  1.0000
  H   H941      1.0  0.76189  0.05339  0.30551  1.0000
  H   H942      1.0  0.90010  0.28956  0.47916  1.0000
  H   H943      1.0  0.61950  0.99960  0.38863  1.0000
  N   N61       1.0  0.59495  0.99270  0.41584  1.0000
  H   H944      1.0  0.74071  0.30795  0.35488  1.0000
  C   C586      1.0  0.60913  0.99414  0.43230  1.0000
  H   H945      1.0  0.71152  0.18201  0.25436  1.0000
  S   S233      1.0  0.72549  0.31547  0.40634  1.0000
  H   H946      1.0  0.57025  0.01808  0.42631  1.0000
  S   S234      1.0  0.70102  0.99909  0.37057  1.0000
  H   H947      1.0  0.60204  0.02284  0.39695  1.0000
  H   H948      1.0  0.82403  0.24935  0.25249  1.0000
  H   H949      1.0  0.80488  0.21478  0.49750  1.0000
  C   C587      1.0  0.80647  0.25198  0.24973  1.0000
  H   H950      1.0  0.56907  0.05080  0.60746  1.0000
  H   H951      1.0  0.90164  0.29552  0.59639  1.0000
  Fe  Fe118     1.0  0.54552  0.11807  0.69143  1.0000
  S   S235      1.0  0.54976  0.13826  0.65864  1.0000
  H   H952      1.0  0.79529  0.18053  0.55190  1.0000
  C   C588      1.0  0.58174  0.14139  0.71335  1.0000
  Fe  Fe119     1.0  0.55122  0.10748  0.64471  1.0000
  S   S236      1.0  0.57690  0.09221  0.61945  1.0000
  C   C589      1.0  0.66672  0.11834  0.61169  1.0000
  S   S237      1.0  0.54995  0.08696  0.67770  1.0000
  S   S238      1.0  0.92208  0.29280  0.66562  1.0000
  H   H953      1.0  0.70308  0.22968  0.67100  1.0000
  H   H954      1.0  0.66941  0.16080  0.59979  1.0000
  S   S239      1.0  0.64767  0.25791  0.74255  1.0000
  S   S240      1.0  0.90849  0.28980  0.52501  1.0000
  H   H955      1.0  0.52717  0.01465  0.63081  1.0000
  H   H956      1.0  0.90943  0.32388  0.61628  1.0000
  H   H957      1.0  0.66901  0.21851  0.66351  1.0000
  H   H958      1.0  0.51747  0.02835  0.60589  1.0000
  S   S241      1.0  0.89562  0.27607  0.72835  1.0000
  S   S242      1.0  0.72495  0.12797  0.54397  1.0000
  H   H959      1.0  0.52297  0.05602  0.65256  1.0000
  S   S243      1.0  0.62034  0.14215  0.53098  1.0000
  H   H960      1.0  0.82056  0.31035  0.56733  1.0000
  S   S244      1.0  0.89317  0.19310  0.69135  1.0000
  S   S245      1.0  0.67909  0.10338  0.52239  1.0000
  H   H961      1.0  0.71686  0.17726  0.64968  1.0000
  Fe  Fe120     1.0  0.77537  0.24714  0.62499  1.0000
  S   S246      1.0  0.77380  0.21207  0.62631  1.0000
  S   S247      1.0  0.76331  0.26120  0.65626  1.0000
  Fe  Fe121     1.0  0.79824  0.25116  0.57790  1.0000
  S   S248      1.0  0.79862  0.21634  0.57552  1.0000
  S   S249      1.0  0.80905  0.27389  0.54804  1.0000
  Fe  Fe122     1.0  0.76392  0.22074  0.59263  1.0000
  S   S250      1.0  0.73348  0.21266  0.58172  1.0000
  Fe  Fe123     1.0  0.80854  0.21110  0.60936  1.0000
  S   S251      1.0  0.83387  0.18387  0.62042  1.0000
  S   S252      1.0  0.76273  0.25619  0.59271  1.0000
  S   S253      1.0  0.81091  0.24564  0.61033  1.0000
  H   H962      1.0  0.66892  0.16077  0.57105  1.0000
  C   C590      1.0  0.55240  0.18576  0.68255  1.0000
  Fe  Fe124     1.0  0.66678  0.22471  0.74661  1.0000
  Fe  Fe125     1.0  0.70194  0.12824  0.51899  1.0000
  C   C591      1.0  0.67289  0.15049  0.58652  1.0000
  C   C592      1.0  0.73222  0.18914  0.57074  1.0000
  C   C593      1.0  0.71629  0.18960  0.55702  1.0000
  C   C594      1.0  0.71448  0.17118  0.54807  1.0000
  C   C595      1.0  0.72807  0.15189  0.55339  1.0000
  C   C596      1.0  0.74384  0.15136  0.56736  1.0000
  C   C597      1.0  0.74614  0.17000  0.57580  1.0000
  H   H963      1.0  0.70545  0.20437  0.55305  1.0000
  H   H964      1.0  0.70231  0.17187  0.53736  1.0000
  H   H965      1.0  0.75429  0.13643  0.57172  1.0000
  H   H966      1.0  0.75832  0.16942  0.58656  1.0000
  C   C598      1.0  0.88122  0.28411  0.53116  1.0000
  C   C599      1.0  0.87515  0.26843  0.54859  1.0000
  C   C600      1.0  0.85302  0.26479  0.55388  1.0000
  C   C601      1.0  0.83717  0.27637  0.54125  1.0000
  C   C602      1.0  0.84354  0.29128  0.52327  1.0000
  C   C603      1.0  0.86531  0.29558  0.51863  1.0000
  H   H967      1.0  0.88740  0.25946  0.55834  1.0000
  H   H968      1.0  0.84825  0.25315  0.56775  1.0000
  C   C604      1.0  0.76922  0.20214  0.52338  1.0000
  H   H969      1.0  0.96509  0.21862  0.73910  1.0000
  C   C605      1.0  0.87691  0.19161  0.67107  1.0000
  C   C606      1.0  0.86673  0.21000  0.65903  1.0000
  C   C607      1.0  0.85337  0.20796  0.64341  1.0000
  C   C608      1.0  0.85037  0.18752  0.63970  1.0000
  C   C609      1.0  0.86090  0.16926  0.65153  1.0000
  C   C610      1.0  0.87400  0.17129  0.66718  1.0000
  H   H970      1.0  0.86942  0.22572  0.66151  1.0000
  H   H971      1.0  0.84576  0.22214  0.63401  1.0000
  H   H972      1.0  0.85882  0.15344  0.64865  1.0000
  H   H973      1.0  0.88192  0.15700  0.67628  1.0000
  C   C611      1.0  0.52054  0.03060  0.62240  1.0000
  H   H974      1.0  0.51106  0.16311  0.69765  1.0000
  H   H975      1.0  0.95075  0.30920  0.55740  1.0000
  C   C612      1.0  0.68839  0.27397  0.67178  1.0000
  C   C613      1.0  0.69856  0.27783  0.65011  1.0000
  C   C614      1.0  0.72158  0.27373  0.64518  1.0000
  C   C615      1.0  0.73452  0.26668  0.66203  1.0000
  C   C616      1.0  0.72439  0.26368  0.68379  1.0000
  C   C617      1.0  0.70135  0.26699  0.68863  1.0000
  H   H976      1.0  0.68858  0.28339  0.63706  1.0000
  H   H977      1.0  0.72932  0.27636  0.62838  1.0000
  H   H978      1.0  0.73430  0.25826  0.69690  1.0000
  C   C618      1.0  0.58848  0.10631  0.59477  1.0000
  C   C619      1.0  0.58073  0.12783  0.58797  1.0000
  C   C620      1.0  0.59043  0.13847  0.56816  1.0000
  C   C621      1.0  0.60812  0.12781  0.55519  1.0000
  C   C622      1.0  0.61584  0.10629  0.56199  1.0000
  C   C623      1.0  0.60599  0.09557  0.58168  1.0000
  H   H979      1.0  0.56716  0.13621  0.59787  1.0000
  H   H980      1.0  0.58429  0.15510  0.56289  1.0000
  H   H981      1.0  0.62923  0.09785  0.55194  1.0000
  H   H982      1.0  0.61198  0.07887  0.58680  1.0000
  H   H983      1.0  0.54871  0.17700  0.69937  1.0000
  S   S254      1.0  0.51462  0.11114  0.64395  1.0000
  H   H984      1.0  0.59183  0.13250  0.68106  1.0000
  C   C624      1.0  0.94058  0.30823  0.67229  1.0000
  H   H985      1.0  0.62644  0.12670  0.59932  1.0000
  N   N62       1.0  0.66023  0.13214  0.59172  1.0000
  C   C625      1.0  0.66493  0.11951  0.57322  1.0000
  H   H986      1.0  0.65647  0.10497  0.57684  1.0000
  H   H987      1.0  0.68291  0.11404  0.56930  1.0000
  H   H988      1.0  0.65923  0.12919  0.55814  1.0000
  H   H989      1.0  0.56792  0.17715  0.67469  1.0000
  H   H990      1.0  0.90109  0.31437  0.57159  1.0000
  H   H991      1.0  0.68803  0.24270  0.63547  1.0000
  H   H992      1.0  0.51923  0.21812  0.68561  1.0000
  H   H993      1.0  0.82110  0.20751  0.72388  1.0000
  H   H994      1.0  0.84176  0.21452  0.70140  1.0000
  H   H995      1.0  0.55578  0.03648  0.59201  1.0000
  N   N63       1.0  0.53576  0.04654  0.62097  1.0000
  C   C626      1.0  0.67954  0.20468  0.65646  1.0000
  C   C627      1.0  0.52649  0.06732  0.60935  1.0000
  H   H996      1.0  0.53905  0.18421  0.67317  1.0000
  H   H997      1.0  0.69092  0.14485  0.58421  1.0000
  H   H998      1.0  0.55071  0.06071  0.64284  1.0000
  H   H999      1.0  0.95415  0.18307  0.72647  1.0000
  H   H1000     1.0  0.63093  0.15042  0.58038  1.0000
  H   H1001     1.0  0.54488  0.03395  0.65292  1.0000
  Fe  Fe126     1.0  0.89454  0.22511  0.70169  1.0000
  Fe  Fe127     1.0  0.90757  0.26977  0.69364  1.0000
  S   S255      1.0  0.92631  0.23712  0.70319  1.0000
  S   S256      1.0  0.55945  0.12654  0.71968  1.0000
  H   H1002     1.0  0.70690  0.18713  0.62383  1.0000
  C   C628      1.0  0.55734  0.03893  0.60891  1.0000
  C   C629      1.0  0.63643  0.14019  0.59530  1.0000
  S   S257      1.0  0.65956  0.27618  0.67742  1.0000
  H   H1003     1.0  0.69362  0.26405  0.70542  1.0000
  S   S258      1.0  0.87676  0.25719  0.68965  1.0000
  C   C630      1.0  0.59491  0.14187  0.69296  1.0000
  H   H1004     1.0  0.95737  0.30365  0.60544  1.0000
  H   H1005     1.0  0.86975  0.30779  0.50524  1.0000
  Fe  Fe128     1.0  0.51306  0.13985  0.66155  1.0000
  H   H1006     1.0  0.62242  0.15455  0.67232  1.0000
  H   H1007     1.0  0.68075  0.19105  0.67005  1.0000
  H   H1008     1.0  0.56502  0.02346  0.61739  1.0000
  H   H1009     1.0  0.92849  0.18906  0.71564  1.0000
  C   C631      1.0  0.60329  0.16594  0.72387  1.0000
  H   H1010     1.0  0.68456  0.11177  0.60937  1.0000
  H   H1011     1.0  0.95129  0.28292  0.59184  1.0000
  H   H1012     1.0  0.80517  0.25941  0.67383  1.0000
  H   H1013     1.0  0.71507  0.20225  0.67690  1.0000
  N   N64       1.0  0.70149  0.21020  0.64648  1.0000
  C   C632      1.0  0.61226  0.15429  0.68808  1.0000
  H   H1014     1.0  0.65732  0.10440  0.61608  1.0000
  Fe  Fe129     1.0  0.64966  0.25341  0.70739  1.0000
  H   H1015     1.0  0.79601  0.20370  0.69783  1.0000
  C   C633      1.0  0.94411  0.30762  0.69397  1.0000
  H   H1016     1.0  0.63221  0.14993  0.60905  1.0000
  C   C634      1.0  0.94374  0.29656  0.60093  1.0000
  H   H1017     1.0  0.66358  0.12738  0.62598  1.0000
  S   S259      1.0  0.67083  0.22165  0.71095  1.0000
  C   C635      1.0  0.94286  0.32185  0.56768  1.0000
  H   H1018     1.0  0.81695  0.21022  0.67552  1.0000
  S   S260      1.0  0.61819  0.23927  0.71206  1.0000
  C   C636      1.0  0.80281  0.21725  0.68670  1.0000
  H   H1019     1.0  0.60647  0.17518  0.73585  1.0000
  Fe  Fe130     1.0  0.91196  0.24226  0.73761  1.0000
  H   H1020     1.0  0.53411  0.23645  0.69436  1.0000
  H   H1021     1.0  0.89504  0.17552  0.73783  1.0000
  C   C637      1.0  0.58607  0.15334  0.72883  1.0000
  Fe  Fe131     1.0  0.51330  0.09203  0.67751  1.0000
  C   C638      1.0  0.55859  0.21940  0.66030  1.0000
  H   H1022     1.0  0.54500  0.21876  0.65083  1.0000
  H   H1023     1.0  0.71509  0.23415  0.62202  1.0000
  C   C639      1.0  0.82694  0.22113  0.71209  1.0000
  H   H1024     1.0  0.52988  0.21147  0.71130  1.0000
  C   C640      1.0  0.53347  0.21915  0.69404  1.0000
  N   N65       1.0  0.55427  0.20853  0.68299  1.0000
  C   C641      1.0  0.79030  0.24115  0.71393  1.0000
  S   S261      1.0  0.83115  0.27089  0.73870  1.0000
  H   H1025     1.0  0.76898  0.21014  0.53806  1.0000
  H   H1026     1.0  0.72924  0.22052  0.65654  1.0000
  H   H1027     1.0  0.91911  0.28943  0.57167  1.0000
  N   N66       1.0  0.80952  0.23246  0.69912  1.0000
  H   H1028     1.0  0.82335  0.26207  0.69264  1.0000
  N   N67       1.0  0.92951  0.31278  0.58777  1.0000
  H   H1029     1.0  0.84104  0.32421  0.54971  1.0000
  H   H1030     1.0  0.83233  0.24453  0.67210  1.0000
  C   C642      1.0  0.81800  0.25040  0.68374  1.0000
  H   H1031     1.0  0.58861  0.20229  0.68688  1.0000
  H   H1032     1.0  0.99896  0.19296  0.74564  1.0000
  H   H1033     1.0  0.92400  0.15161  0.71769  1.0000
  H   H1034     1.0  0.93144  0.19990  0.73956  1.0000
  H   H1035     1.0  0.79485  0.25271  0.72353  1.0000
  H   H1036     1.0  0.57599  0.15290  0.74467  1.0000
  C   C643      1.0  0.95866  0.32037  0.69889  1.0000
  C   C644      1.0  0.93596  0.18541  0.73108  1.0000
  Fe  Fe132     1.0  0.63937  0.20747  0.71790  1.0000
  C   C645      1.0  0.71471  0.19158  0.63701  1.0000
  Fe  Fe133     1.0  0.86652  0.26060  0.72519  1.0000
  H   H1037     1.0  0.53744  0.07980  0.60828  1.0000
  H   H1038     1.0  0.56023  0.23661  0.65995  1.0000
  H   H1039     1.0  0.93428  0.28982  0.61654  1.0000
  C   C646      1.0  0.53871  0.04940  0.64329  1.0000
  H   H1040     1.0  0.78336  0.22816  0.72583  1.0000
  H   H1041     1.0  0.57410  0.21163  0.65148  1.0000
  H   H1042     1.0  0.83237  0.23209  0.72170  1.0000
  H   H1043     1.0  0.77690  0.24986  0.70456  1.0000
  H   H1044     1.0  0.57012  0.20116  0.71203  1.0000
  C   C647      1.0  0.71277  0.21584  0.66345  1.0000
  H   H1045     1.0  0.69166  0.22475  0.61533  1.0000
  C   C648      1.0  0.61643  0.16640  0.70348  1.0000
  H   H1046     1.0  0.93552  0.29745  0.70696  1.0000
  H   H1047     1.0  0.57426  0.22669  0.69611  1.0000
  H   H1048     1.0  0.83150  0.29986  0.51310  1.0000
  S   S262      1.0  0.88182  0.22742  0.73686  1.0000
  C   C649      1.0  0.69893  0.22876  0.62908  1.0000
  C   C650      1.0  0.57258  0.20977  0.69502  1.0000
  H   H1049     1.0  0.67060  0.20004  0.64427  1.0000
  S   S263      1.0  0.63755  0.18266  0.69629  1.0000
  C   C651      1.0  0.91204  0.30258  0.58164  1.0000
  H   H1050     1.0  0.52429  0.06586  0.59235  1.0000
  H   H1051     1.0  0.78994  0.22531  0.67645  1.0000
  H   H1052     1.0  0.73138  0.19525  0.62944  1.0000
  S   S264      1.0  0.67650  0.15641  0.51131  1.0000
  H   H1053     1.0  0.75546  0.19236  0.52691  1.0000
  H   H1054     1.0  0.51014  0.07350  0.61790  1.0000
  C   C652      1.0  0.80807  0.20264  0.51205  1.0000
  H   H1055     1.0  0.96117  0.31997  0.71570  1.0000
  N   N68       1.0  0.92824  0.16637  0.74508  1.0000
  Fe  Fe134     1.0  0.65404  0.13171  0.51279  1.0000
  H   H1056     1.0  0.80911  0.21160  0.52570  1.0000
  H   H1057     1.0  0.79611  0.31991  0.53846  1.0000
  H   H1058     1.0  0.94919  0.32204  0.63883  1.0000
  C   C653      1.0  0.93272  0.14802  0.73246  1.0000
  S   S265      1.0  0.50873  0.12089  0.69489  1.0000
  H   H1059     1.0  0.95063  0.14423  0.72668  1.0000
  H   H1060     1.0  0.92713  0.13329  0.74246  1.0000
  H   H1061     1.0  0.76560  0.21505  0.50960  1.0000
  H   H1062     1.0  0.78288  0.16146  0.54144  1.0000
  C   C654      1.0  0.79536  0.17271  0.53718  1.0000
  N   N69       1.0  0.79056  0.18872  0.51801  1.0000
  H   H1063     1.0  0.81176  0.16286  0.53403  1.0000
  H   H1064     1.0  0.82448  0.19311  0.50799  1.0000
  C   C655      1.0  0.95185  0.32146  0.65557  1.0000
  C   C656      1.0  0.78953  0.17737  0.49938  1.0000
  H   H1065     1.0  0.77597  0.16725  0.50306  1.0000
  Fe  Fe135     1.0  0.61815  0.24044  0.74781  1.0000
  Fe  Fe136     1.0  0.90749  0.32408  0.50885  1.0000
  H   H1066     1.0  0.87809  0.20998  0.89265  1.0000
  C   C657      1.0  0.93298  0.15134  0.92409  1.0000
  C   C658      1.0  0.59104  0.30947  0.77967  1.0000
  H   H1067     1.0  0.83656  0.31064  0.81903  1.0000
  H   H1068     1.0  0.85769  0.22285  0.91201  1.0000
  S   S266      1.0  0.73662  0.31637  0.87451  1.0000
  C   C659      1.0  0.67990  0.30263  0.91420  1.0000
  H   H1069     1.0  0.95813  0.15819  0.75984  1.0000
  H   H1070     1.0  0.67149  0.28331  0.82383  1.0000
  S   S267      1.0  0.58637  0.24891  0.76983  1.0000
  H   H1071     1.0  0.60609  0.28821  0.75604  1.0000
  H   H1072     1.0  0.97489  0.18301  0.81433  1.0000
  S   S268      1.0  0.00497  0.18481  0.84349  1.0000
  H   H1073     1.0  0.79911  0.10367  0.98277  1.0000
  Fe  Fe137     1.0  0.72991  0.23901  0.86859  1.0000
  S   S269      1.0  0.74747  0.26372  0.84568  1.0000
  S   S270      1.0  0.70099  0.22600  0.86027  1.0000
  Fe  Fe138     1.0  0.75609  0.23966  0.90571  1.0000
  S   S271      1.0  0.77590  0.26402  0.88569  1.0000
  S   S272      1.0  0.76267  0.23171  0.94075  1.0000
  Fe  Fe139     1.0  0.74411  0.28058  0.87520  1.0000
  H   H1074     1.0  0.78704  0.28330  0.83437  1.0000
  Fe  Fe140     1.0  0.77788  0.24490  0.85821  1.0000
  S   S273      1.0  0.81234  0.23896  0.84039  1.0000
  S   S274      1.0  0.72380  0.25773  0.89716  1.0000
  S   S275      1.0  0.76073  0.21871  0.87914  1.0000
  H   H1075     1.0  0.78545  0.32143  0.85880  1.0000
  S   S276      1.0  0.96340  0.15269  0.88731  1.0000
  N   N70       1.0  0.80141  0.31240  0.82773  1.0000
  H   H1076     1.0  0.75555  0.24125  0.99416  1.0000
  H   H1077     1.0  0.51976  0.28226  0.78589  1.0000
  C   C660      1.0  0.97307  0.19092  0.79796  1.0000
  C   C661      1.0  0.82240  0.21303  0.89802  1.0000
  S   S277      1.0  0.92613  0.23246  0.76950  1.0000
  C   C662      1.0  0.96720  0.21080  0.75548  1.0000
  S   S278      1.0  0.93012  0.15708  0.98842  1.0000
  H   H1078     1.0  0.81933  0.22782  0.88611  1.0000
  H   H1079     1.0  0.93649  0.17463  0.77453  1.0000
  H   H1080     1.0  0.66411  0.25711  0.83423  1.0000
  C   C663      1.0  0.95092  0.21525  0.77305  1.0000
  C   C664      1.0  0.95403  0.20536  0.79426  1.0000
  Fe  Fe141     1.0  0.50739  0.31489  0.86292  1.0000
  C   C665      1.0  0.52481  0.23968  0.78406  1.0000
  C   C666      1.0  0.81698  0.24729  0.81199  1.0000
  C   C667      1.0  0.79958  0.25497  0.79981  1.0000
  C   C668      1.0  0.80397  0.26240  0.77732  1.0000
  C   C669      1.0  0.82575  0.26192  0.76691  1.0000
  C   C670      1.0  0.84309  0.25421  0.77913  1.0000
  C   C671      1.0  0.83872  0.24690  0.80158  1.0000
  H   H1081     1.0  0.78276  0.25504  0.80764  1.0000
  H   H1082     1.0  0.79049  0.26827  0.76791  1.0000
  H   H1083     1.0  0.85995  0.25408  0.77134  1.0000
  H   H1084     1.0  0.85228  0.24106  0.81088  1.0000
  C   C672      1.0  0.93928  0.15634  0.96022  1.0000
  C   C673      1.0  0.51004  0.28423  0.91807  1.0000
  C   C674      1.0  0.80848  0.18787  0.96828  1.0000
  C   C675      1.0  0.66668  0.26881  0.81905  1.0000
  C   C676      1.0  0.78389  0.29998  0.82579  1.0000
  H   H1085     1.0  0.52567  0.23384  0.80173  1.0000
  H   H1086     1.0  0.81046  0.20230  0.89635  1.0000
  S   S279      1.0  0.86913  0.17910  0.98465  1.0000
  C   C677      1.0  0.62822  0.28373  0.82285  1.0000
  C   C678      1.0  0.96848  0.15930  0.92905  1.0000
  C   C679      1.0  0.96088  0.15990  0.95148  1.0000
  H   H1087     1.0  0.76743  0.30739  0.83314  1.0000
  H   H1088     1.0  0.97174  0.16325  0.96206  1.0000
  C   C680      1.0  0.81030  0.17058  0.95652  1.0000
  C   C681      1.0  0.79703  0.17188  0.94006  1.0000
  C   C682      1.0  0.78221  0.19057  0.93516  1.0000
  C   C683      1.0  0.78048  0.20787  0.94690  1.0000
  C   C684      1.0  0.79346  0.20639  0.96361  1.0000
  H   H1089     1.0  0.79832  0.15851  0.93098  1.0000
  H   H1090     1.0  0.77199  0.19152  0.92245  1.0000
  H   H1091     1.0  0.98505  0.16231  0.92243  1.0000
  H   H1092     1.0  0.69133  0.29558  0.92636  1.0000
  C   C685      1.0  0.69981  0.21975  0.78856  1.0000
  C   C686      1.0  0.68287  0.21335  0.80466  1.0000
  C   C687      1.0  0.68376  0.21457  0.82678  1.0000
  C   C688      1.0  0.70157  0.22219  0.83286  1.0000
  C   C689      1.0  0.71883  0.22791  0.81682  1.0000
  C   C690      1.0  0.71798  0.22659  0.79475  1.0000
  H   H1093     1.0  0.66913  0.20743  0.80005  1.0000
  H   H1094     1.0  0.67052  0.20983  0.83918  1.0000
  H   H1095     1.0  0.73277  0.23349  0.82136  1.0000
  H   H1096     1.0  0.73131  0.23120  0.78238  1.0000
  C   C691      1.0  0.98639  0.19635  0.75922  1.0000
  H   H1097     1.0  0.86600  0.17474  0.90812  1.0000
  C   C692      1.0  0.59424  0.29021  0.77051  1.0000
  C   C693      1.0  0.58210  0.27361  0.78012  1.0000
  C   C694      1.0  0.56635  0.27655  0.79850  1.0000
  C   C695      1.0  0.56317  0.29574  0.80766  1.0000
  H   H1098     1.0  0.86675  0.18745  0.86837  1.0000
  C   C696      1.0  0.64116  0.25438  0.80186  1.0000
  H   H1099     1.0  0.55696  0.26375  0.80605  1.0000
  H   H1100     1.0  0.55124  0.29768  0.82206  1.0000
  C   C697      1.0  0.73469  0.31228  0.94018  1.0000
  C   C698      1.0  0.99606  0.09339  0.89026  1.0000
  H   H1101     1.0  0.84573  0.18758  0.92748  1.0000
  H   H1102     1.0  0.62482  0.27258  0.83825  1.0000
  H   H1103     1.0  0.64085  0.29806  0.93970  1.0000
  C   C699      1.0  0.75271  0.25910  0.99040  1.0000
  C   C700      1.0  0.95454  0.15491  0.91530  1.0000
  C   C701      1.0  0.65122  0.28956  0.78793  1.0000
  H   H1104     1.0  0.79220  0.21972  0.97272  1.0000
  S   S280      1.0  0.82993  0.14782  0.96153  1.0000
  H   H1105     1.0  0.63155  0.29901  0.82734  1.0000
  C   C702      1.0  0.92534  0.15213  0.94642  1.0000
  S   S281      1.0  0.54309  0.30796  0.86749  1.0000
  S   S282      1.0  0.63715  0.20720  0.75432  1.0000
  N   N71       1.0  0.84537  0.20238  0.89401  1.0000
  H   H1106     1.0  0.84746  0.20993  0.85897  1.0000
  H   H1107     1.0  0.78292  0.29881  0.80838  1.0000
  H   H1108     1.0  0.63678  0.29362  0.77884  1.0000
  H   H1109     1.0  0.63928  0.31659  0.90227  1.0000
  Fe  Fe142     1.0  0.84959  0.15202  0.98743  1.0000
  H   H1110     1.0  0.83545  0.10754  0.99186  1.0000
  H   H1111     1.0  0.61283  0.28744  0.81518  1.0000
  H   H1112     1.0  0.90870  0.14932  0.95298  1.0000
  H   H1113     1.0  0.66056  0.30338  0.95565  1.0000
  C   C703      1.0  0.57577  0.31210  0.79849  1.0000
  H   H1114     1.0  0.81831  0.21774  0.91477  1.0000
  H   H1115     1.0  0.60066  0.32218  0.77238  1.0000
  H   H1116     1.0  0.69023  0.30900  0.89902  1.0000
  H   H1117     1.0  0.51089  0.28559  0.90000  1.0000
  H   H1118     1.0  0.66537  0.28279  0.77652  1.0000
  N   N72       1.0  0.64680  0.27413  0.80794  1.0000
  C   C704      1.0  0.93994  0.16115  0.76453  1.0000
  H   H1119     1.0  0.51370  0.29966  0.92187  1.0000
  C   C705      1.0  0.73768  0.30701  0.91884  1.0000
  H   H1120     1.0  0.92213  0.14787  0.91357  1.0000
  H   H1121     1.0  0.85844  0.23213  0.88317  1.0000
  C   C706      1.0  0.84884  0.18321  0.91058  1.0000
  H   H1122     1.0  0.56856  0.31877  0.96167  1.0000
  H   H1123     1.0  0.94149  0.20869  0.80791  1.0000
  H   H1124     1.0  0.67222  0.28933  0.91033  1.0000
  S   S283      1.0  0.69890  0.21950  0.76058  1.0000
  H   H1125     1.0  0.93488  0.14662  0.77533  1.0000
  C   C707      1.0  0.64997  0.31067  0.94283  1.0000
  H   H1126     1.0  0.52354  0.27151  0.92305  1.0000
  H   H1127     1.0  0.81870  0.18709  0.98093  1.0000
  C   C708      1.0  0.98942  0.18649  0.78053  1.0000
  H   H1128     1.0  0.83758  0.17143  0.91000  1.0000
  H   H1129     1.0  0.74257  0.29045  0.91620  1.0000
  H   H1130     1.0  0.97707  0.09346  0.94441  1.0000
  H   H1131     1.0  0.79376  0.26684  0.99150  1.0000
  H   H1132     1.0  0.73728  0.29975  0.95379  1.0000
  N   N73       1.0  0.66313  0.31972  0.92263  1.0000
  C   C709      1.0  0.82291  0.30152  0.81835  1.0000
  H   H1133     1.0  0.80504  0.29744  0.86060  1.0000
  H   H1134     1.0  0.83811  0.18474  0.87002  1.0000
  H   H1135     1.0  0.81448  0.32322  0.85331  1.0000
  H   H1136     1.0  0.89777  0.15697  0.76252  1.0000
  H   H1137     1.0  0.63877  0.24190  0.81638  1.0000
  H   H1138     1.0  0.62574  0.25763  0.79419  1.0000
  H   H1139     1.0  0.99935  0.12633  0.91031  1.0000
  H   H1140     1.0  0.65517  0.30483  0.79186  1.0000
  C   C710      1.0  0.86058  0.21751  0.89553  1.0000
  C   C711      1.0  0.84966  0.19580  0.87189  1.0000
  C   C712      1.0  0.97614  0.09370  0.92671  1.0000
  H   H1141     1.0  0.76472  0.29849  0.98468  1.0000
  H   H1142     1.0  0.52516  0.22539  0.77572  1.0000
  H   H1143     1.0  0.54010  0.24683  0.77730  1.0000
  H   H1144     1.0  0.96549  0.10886  0.92129  1.0000
  N   N74       1.0  0.99823  0.09248  0.91363  1.0000
  H   H1145     1.0  0.51952  0.27055  0.74990  1.0000
  C   C713      1.0  0.73424  0.32309  0.90113  1.0000
  C   C714      1.0  0.90431  0.17107  0.75216  1.0000
  H   H1146     1.0  0.68099  0.26144  0.80825  1.0000
  C   C715      1.0  0.80166  0.31372  0.85112  1.0000
  H   H1147     1.0  0.73482  0.26405  0.98945  1.0000
  H   H1148     1.0  0.65440  0.24728  0.78983  1.0000
  H   H1149     1.0  0.98836  0.07967  0.88741  1.0000
  H   H1150     1.0  0.80374  0.07530  0.99214  1.0000
  H   H1151     1.0  0.98563  0.10845  0.88424  1.0000
  H   H1152     1.0  0.76167  0.26344  0.97374  1.0000
  Fe  Fe143     1.0  0.99736  0.15655  0.86855  1.0000
  H   H1153     1.0  0.82301  0.29957  0.80090  1.0000
  H   H1154     1.0  0.96759  0.08009  0.92510  1.0000
  H   H1155     1.0  0.50555  0.26892  0.81025  1.0000
  H   H1156     1.0  0.63761  0.32337  0.94987  1.0000
  H   H1157     1.0  0.82684  0.28509  0.82736  1.0000
  H   H1158     1.0  0.90823  0.21780  0.99145  1.0000
  H   H1159     1.0  0.90043  0.18478  0.76188  1.0000
  H   H1160     1.0  0.00443  0.05794  0.91910  1.0000
  C   C716      1.0  0.79730  0.09126  0.99750  1.0000
  H   H1161     1.0  0.64606  0.36921  0.05795  1.0000
  Fe  Fe144     1.0  0.53369  0.62161  0.14067  1.0000
  S   S284      1.0  0.54684  0.58615  0.14696  1.0000
  Fe  Fe145     1.0  0.66348  0.51767  0.11963  1.0000
  S   S285      1.0  0.69583  0.51204  0.09776  1.0000
  S   S286      1.0  0.64275  0.54840  0.10627  1.0000
  Fe  Fe146     1.0  0.67871  0.48130  0.15447  1.0000
  S   S287      1.0  0.71171  0.47392  0.13495  1.0000
  S   S288      1.0  0.67407  0.46131  0.18766  1.0000
  Fe  Fe147     1.0  0.71109  0.50960  0.12848  1.0000
  S   S289      1.0  0.74079  0.52598  0.12924  1.0000
  Fe  Fe148     1.0  0.69288  0.47689  0.10650  1.0000
  S   S290      1.0  0.70483  0.45013  0.08547  1.0000
  S   S291      1.0  0.67907  0.51688  0.14985  1.0000
  S   S292      1.0  0.65946  0.48237  0.12643  1.0000
  C   C717      1.0  0.75710  0.50228  0.23882  1.0000
  S   S293      1.0  0.77200  0.63547  0.19944  1.0000
  S   S294      1.0  0.54372  0.64419  0.11054  1.0000
  S   S295      1.0  0.79673  0.58570  0.20965  1.0000
  H   H1162     1.0  0.63563  0.36518  0.10783  1.0000
  Fe  Fe149     1.0  0.80625  0.61911  0.20363  1.0000
  S   S296      1.0  0.83433  0.62902  0.17853  1.0000
  Fe  Fe150     1.0  0.76211  0.60245  0.20902  1.0000
  S   S297      1.0  0.73368  0.59055  0.19824  1.0000
  H   H1163     1.0  0.72671  0.59734  0.09355  1.0000
  H   H1164     1.0  0.75173  0.41977  0.19165  1.0000
  C   C718      1.0  0.71944  0.58792  0.10878  1.0000
  H   H1165     1.0  0.64610  0.40153  0.10256  1.0000
  H   H1166     1.0  0.57866  0.57074  0.06897  1.0000
  H   H1167     1.0  0.62586  0.64351  0.21545  1.0000
  H   H1168     1.0  0.76211  0.55240  0.24823  1.0000
  C   C719      1.0  0.73143  0.38100  0.17237  1.0000
  H   H1169     1.0  0.69524  0.36233  0.08693  1.0000
  H   H1170     1.0  0.78923  0.36173  0.18123  1.0000
  H   H1171     1.0  0.68765  0.57882  0.14102  1.0000
  S   S298      1.0  0.68277  0.36544  0.01653  1.0000
  H   H1172     1.0  0.58206  0.60644  0.11880  1.0000
  C   C720      1.0  0.71863  0.43915  0.22989  1.0000
  S   S299      1.0  0.53520  0.64411  0.16452  1.0000
  S   S300      1.0  0.63048  0.37575  0.00914  1.0000
  Fe  Fe151     1.0  0.76868  0.63696  0.23539  1.0000
  C   C721      1.0  0.71990  0.41937  0.16717  1.0000
  H   H1173     1.0  0.66634  0.59675  0.09837  1.0000
  H   H1174     1.0  0.55982  0.60735  0.07186  1.0000
  H   H1175     1.0  0.77458  0.49486  0.23893  1.0000
  H   H1176     1.0  0.70808  0.57657  0.07260  1.0000
  H   H1177     1.0  0.66300  0.35327  0.11302  1.0000
  C   C722      1.0  0.68901  0.56969  0.12697  1.0000
  N   N75       1.0  0.75495  0.52599  0.23416  1.0000
  H   H1178     1.0  0.53112  0.61194  0.08265  1.0000
  H   H1179     1.0  0.52446  0.55389  0.09444  1.0000
  H   H1180     1.0  0.65433  0.39531  0.05352  1.0000
  C   C723      1.0  0.69080  0.44458  0.06495  1.0000
  C   C724      1.0  0.70018  0.42769  0.05291  1.0000
  C   C725      1.0  0.68907  0.42206  0.03715  1.0000
  C   C726      1.0  0.66855  0.43341  0.03316  1.0000
  C   C727      1.0  0.65930  0.45048  0.04498  1.0000
  C   C728      1.0  0.67030  0.45598  0.06091  1.0000
  H   H1181     1.0  0.71610  0.41889  0.05584  1.0000
  H   H1182     1.0  0.69651  0.40912  0.02790  1.0000
  H   H1183     1.0  0.64347  0.45939  0.04191  1.0000
  H   H1184     1.0  0.66294  0.46902  0.07007  1.0000
  C   C729      1.0  0.69741  0.45821  0.20126  1.0000
  C   C730      1.0  0.69933  0.44287  0.21991  1.0000
  S   S301      1.0  0.76108  0.44563  0.23233  1.0000
  C   C731      1.0  0.73612  0.45068  0.22116  1.0000
  C   C732      1.0  0.73401  0.46626  0.20274  1.0000
  C   C733      1.0  0.71468  0.47013  0.19293  1.0000
  H   H1185     1.0  0.68597  0.43371  0.22653  1.0000
  H   H1186     1.0  0.67934  0.61173  0.11349  1.0000
  H   H1187     1.0  0.74747  0.47519  0.19578  1.0000
  H   H1188     1.0  0.71324  0.48228  0.17882  1.0000
  C   C734      1.0  0.74004  0.54215  0.14994  1.0000
  C   C735      1.0  0.75721  0.55424  0.14930  1.0000
  C   C736      1.0  0.75586  0.56883  0.16437  1.0000
  C   C737      1.0  0.73708  0.57166  0.17984  1.0000
  C   C738      1.0  0.72018  0.55929  0.18073  1.0000
  C   C739      1.0  0.72189  0.54426  0.16621  1.0000
  H   H1189     1.0  0.77142  0.55260  0.13685  1.0000
  H   H1190     1.0  0.76902  0.57829  0.16361  1.0000
  H   H1191     1.0  0.70568  0.56128  0.19278  1.0000
  H   H1192     1.0  0.70891  0.53462  0.16742  1.0000
  H   H1193     1.0  0.69963  0.55421  0.13078  1.0000
  C   C740      1.0  0.57447  0.57645  0.13757  1.0000
  C   C741      1.0  0.58251  0.55467  0.14331  1.0000
  C   C742      1.0  0.60379  0.54599  0.13454  1.0000
  C   C743      1.0  0.61696  0.55897  0.11959  1.0000
  C   C744      1.0  0.60899  0.58080  0.11400  1.0000
  C   C745      1.0  0.58797  0.58960  0.12320  1.0000
  H   H1194     1.0  0.57217  0.54439  0.15443  1.0000
  H   H1195     1.0  0.60976  0.52913  0.13889  1.0000
  H   H1196     1.0  0.61909  0.59093  0.10242  1.0000
  H   H1197     1.0  0.68608  0.56229  0.08681  1.0000
  C   C746      1.0  0.53728  0.58022  0.05805  1.0000
  H   H1198     1.0  0.76662  0.55017  0.20884  1.0000
  H   H1199     1.0  0.67237  0.56579  0.12615  1.0000
  C   C747      1.0  0.68249  0.60113  0.10046  1.0000
  H   H1200     1.0  0.68883  0.61066  0.08487  1.0000
  H   H1201     1.0  0.71384  0.55336  0.09235  1.0000
  H   H1202     1.0  0.63061  0.38991  0.07280  1.0000
  H   H1203     1.0  0.73167  0.57347  0.11266  1.0000
  H   H1204     1.0  0.77107  0.39201  0.15538  1.0000
  C   C748      1.0  0.77965  0.33365  0.23215  1.0000
  Fe  Fe152     1.0  0.50742  0.65581  0.11103  1.0000
  C   C749      1.0  0.74606  0.40396  0.19205  1.0000
  H   H1205     1.0  0.71765  0.59771  0.12239  1.0000
  H   H1206     1.0  0.72437  0.52894  0.22121  1.0000
  H   H1207     1.0  0.65086  0.34525  0.09194  1.0000
  N   N76       1.0  0.69816  0.58171  0.10620  1.0000
  H   H1208     1.0  0.60043  0.65009  0.18730  1.0000
  C   C750      1.0  0.52700  0.57019  0.09688  1.0000
  S   S302      1.0  0.75617  0.60526  0.24491  1.0000
  C   C751      1.0  0.78474  0.34879  0.19378  1.0000
  H   H1209     1.0  0.72467  0.43558  0.16657  1.0000
  N   N77       1.0  0.54403  0.57882  0.07994  1.0000
  H   H1210     1.0  0.67373  0.39068  0.10765  1.0000
  H   H1211     1.0  0.69170  0.38020  0.06202  1.0000
  H   H1212     1.0  0.64937  0.64429  0.19454  1.0000
  C   C752      1.0  0.68412  0.36781  0.07421  1.0000
  C   C753      1.0  0.77904  0.33030  0.18780  1.0000
  H   H1213     1.0  0.84594  0.63834  0.21939  1.0000
  C   C754      1.0  0.54662  0.60050  0.08383  1.0000
  S   S303      1.0  0.65378  0.42647  0.01392  1.0000
  H   H1214     1.0  0.54977  0.58678  0.04494  1.0000
  H   H1215     1.0  0.56403  0.54801  0.07797  1.0000
  C   C755      1.0  0.63649  0.65437  0.20445  1.0000
  H   H1216     1.0  0.71781  0.37843  0.18600  1.0000
  H   H1217     1.0  0.74519  0.36772  0.17514  1.0000
  H   H1218     1.0  0.70566  0.41791  0.18038  1.0000
  H   H1219     1.0  0.71995  0.42731  0.24426  1.0000
  H   H1220     1.0  0.72561  0.37922  0.15689  1.0000
  H   H1221     1.0  0.66902  0.40824  0.08291  1.0000
  H   H1222     1.0  0.78924  0.36490  0.22036  1.0000
  H   H1223     1.0  0.76002  0.39126  0.19576  1.0000
  C   C756      1.0  0.65238  0.35927  0.09993  1.0000
  C   C757      1.0  0.66266  0.39495  0.09478  1.0000
  N   N78       1.0  0.66168  0.37626  0.08382  1.0000
  H   H1224     1.0  0.71397  0.41901  0.15134  1.0000
  C   C758      1.0  0.56521  0.56448  0.08109  1.0000
  H   H1225     1.0  0.75160  0.40391  0.13700  1.0000
  C   C759      1.0  0.64753  0.38297  0.06631  1.0000
  H   H1226     1.0  0.73262  0.40235  0.20606  1.0000
  H   H1227     1.0  0.76271  0.42066  0.15179  1.0000
  C   C760      1.0  0.75681  0.40483  0.15305  1.0000
  H   H1228     1.0  0.51091  0.58083  0.09684  1.0000
  N   N79       1.0  0.73855  0.40227  0.17117  1.0000
  C   C761      1.0  0.85345  0.64874  0.20584  1.0000
  C   C762      1.0  0.70167  0.56793  0.08867  1.0000
  H   H1229     1.0  0.68393  0.35383  0.06565  1.0000
  S   S304      1.0  0.80372  0.62281  0.23905  1.0000
  H   H1230     1.0  0.53516  0.56415  0.05451  1.0000
  H   H1231     1.0  0.55104  0.60007  0.10044  1.0000
  Fe  Fe153     1.0  0.65422  0.34707  0.02055  1.0000
  C   C763      1.0  0.78479  0.35059  0.21590  1.0000
  H   H1232     1.0  0.57054  0.56285  0.09755  1.0000
  H   H1233     1.0  0.52137  0.59100  0.05670  1.0000
  C   C764      1.0  0.76748  0.53237  0.21255  1.0000
  C   C765      1.0  0.73147  0.53491  0.23400  1.0000
  S   S305      1.0  0.77812  0.32922  0.15995  1.0000
  H   H1234     1.0  0.84095  0.57219  0.24765  1.0000
  H   H1235     1.0  0.53173  0.56880  0.11359  1.0000
  C   C766      1.0  0.85059  0.64709  0.18438  1.0000
  H   H1236     1.0  0.72924  0.55280  0.23052  1.0000
  Fe  Fe154     1.0  0.65993  0.39342  0.00284  1.0000
  H   H1237     1.0  0.62389  0.65011  0.16632  1.0000
  H   H1238     1.0  0.83614  0.48415  0.24736  1.0000
  Fe  Fe155     1.0  0.79156  0.59069  0.24493  1.0000
  H   H1239     1.0  0.85701  0.46250  0.23990  1.0000
  H   H1240     1.0  0.78519  0.52558  0.21187  1.0000
  H   H1241     1.0  0.75055  0.49541  0.22628  1.0000
  H   H1242     1.0  0.76090  0.52685  0.19913  1.0000
  H   H1243     1.0  0.72411  0.64859  0.22860  1.0000
  S   S306      1.0  0.64881  0.32524  0.05261  1.0000
  Fe  Fe156     1.0  0.91382  0.46570  0.35325  1.0000
  S   S307      1.0  0.89128  0.47715  0.38200  1.0000
  S   S308      1.0  0.93870  0.43595  0.35789  1.0000
  Fe  Fe157     1.0  0.89612  0.50431  0.32130  1.0000
  S   S309      1.0  0.87246  0.51779  0.34817  1.0000
  S   S310      1.0  0.89577  0.52410  0.28802  1.0000
  Fe  Fe158     1.0  0.90097  0.50975  0.36746  1.0000
  S   S311      1.0  0.91034  0.53527  0.38455  1.0000
  Fe  Fe159     1.0  0.86603  0.48362  0.35867  1.0000
  S   S312      1.0  0.83203  0.47374  0.36403  1.0000
  S   S313      1.0  0.92499  0.49779  0.34001  1.0000
  S   S314      1.0  0.88831  0.47067  0.33051  1.0000
  C   C767      1.0  0.84365  0.55987  0.26145  1.0000
  H   H1244     1.0  0.91904  0.49265  0.41068  1.0000
  Fe  Fe160     1.0  0.74905  0.39418  0.30309  1.0000
  S   S315      1.0  0.77958  0.37033  0.30440  1.0000
  S   S316      1.0  0.72023  0.39315  0.32972  1.0000
  Fe  Fe161     1.0  0.79726  0.39884  0.29195  1.0000
  S   S317      1.0  0.82779  0.40154  0.30624  1.0000
  H   H1245     1.0  0.90296  0.58139  0.35416  1.0000
  S   S318      1.0  0.76677  0.42299  0.29323  1.0000
  H   H1246     1.0  0.92931  0.45269  0.44338  1.0000
  C   C768      1.0  0.83612  0.34601  0.46556  1.0000
  C   C769      1.0  0.74407  0.34444  0.37384  1.0000
  H   H1247     1.0  0.97813  0.45130  0.42410  1.0000
  H   H1248     1.0  0.80523  0.33551  0.48053  1.0000
  S   S319      1.0  0.94570  0.37135  0.44630  1.0000
  C   C770      1.0  0.78085  0.38343  0.38981  1.0000
  C   C771      1.0  0.72241  0.37237  0.35173  1.0000
  C   C772      1.0  0.70316  0.36617  0.36425  1.0000
  H   H1249     1.0  0.96419  0.48072  0.38366  1.0000
  H   H1250     1.0  0.84522  0.47677  0.30572  1.0000
  C   C773      1.0  0.74291  0.36172  0.35677  1.0000
  H   H1251     1.0  0.68728  0.37451  0.36054  1.0000
  H   H1252     1.0  0.68929  0.34407  0.39063  1.0000
  H   H1253     1.0  0.75779  0.36695  0.34766  1.0000
  H   H1254     1.0  0.77928  0.38661  0.40705  1.0000
  C   C774      1.0  0.93870  0.41791  0.38262  1.0000
  C   C775      1.0  0.92001  0.41612  0.39845  1.0000
  C   C776      1.0  0.92150  0.40166  0.41814  1.0000
  C   C777      1.0  0.94171  0.38914  0.42194  1.0000
  C   C778      1.0  0.96011  0.39104  0.40600  1.0000
  C   C779      1.0  0.95858  0.40513  0.38649  1.0000
  H   H1255     1.0  0.90447  0.42572  0.39548  1.0000
  H   H1256     1.0  0.90716  0.40026  0.43033  1.0000
  H   H1257     1.0  0.97572  0.38140  0.40870  1.0000
  H   H1258     1.0  0.97302  0.40620  0.37434  1.0000
  C   C780      1.0  0.93643  0.54426  0.37687  1.0000
  C   C781      1.0  0.93981  0.56384  0.38261  1.0000
  C   C782      1.0  0.96056  0.57109  0.37708  1.0000
  C   C783      1.0  0.97818  0.55858  0.36607  1.0000
  C   C784      1.0  0.97481  0.53896  0.36051  1.0000
  C   C785      1.0  0.95406  0.53190  0.36576  1.0000
  H   H1259     1.0  0.92633  0.57349  0.39135  1.0000
  H   H1260     1.0  0.96293  0.58622  0.38153  1.0000
  H   H1261     1.0  0.98834  0.52917  0.35200  1.0000
  H   H1262     1.0  0.95190  0.51671  0.36148  1.0000
  C   C786      1.0  0.83011  0.45275  0.34938  1.0000
  C   C787      1.0  0.81033  0.45160  0.34173  1.0000
  C   C788      1.0  0.80914  0.43569  0.32881  1.0000
  C   C789      1.0  0.82774  0.42083  0.32361  1.0000
  C   C790      1.0  0.84718  0.42149  0.33202  1.0000
  C   C791      1.0  0.84835  0.43732  0.34488  1.0000
  H   H1263     1.0  0.79608  0.46337  0.34534  1.0000
  H   H1264     1.0  0.79399  0.43524  0.32260  1.0000
  H   H1265     1.0  0.86153  0.40984  0.32838  1.0000
  H   H1266     1.0  0.86338  0.43745  0.35147  1.0000
  C   C792      1.0  0.86879  0.53508  0.28312  1.0000
  C   C793      1.0  0.85073  0.52786  0.29701  1.0000
  H   H1267     1.0  0.85319  0.51528  0.31056  1.0000
  H   H1268     1.0  0.81538  0.53097  0.30413  1.0000
  C   C794      1.0  0.70430  0.34895  0.38126  1.0000
  H   H1269     1.0  0.93987  0.63193  0.32504  1.0000
  H   H1270     1.0  0.89434  0.61393  0.31346  1.0000
  C   C795      1.0  0.96777  0.46707  0.42610  1.0000
  N   N80       1.0  0.94773  0.46943  0.41548  1.0000
  C   C796      1.0  0.93441  0.49050  0.41833  1.0000
  C   C797      1.0  0.93466  0.45206  0.42560  1.0000
  C   C798      1.0  0.95412  0.46802  0.39188  1.0000
  C   C799      1.0  0.84464  0.46805  0.25351  1.0000
  H   H1271     1.0  0.94354  0.50406  0.41052  1.0000
  H   H1272     1.0  0.92938  0.49229  0.43592  1.0000
  C   C800      1.0  0.90697  0.59947  0.31190  1.0000
  C   C801      1.0  0.72472  0.33787  0.38590  1.0000
  N   N81       1.0  0.80419  0.37865  0.38036  1.0000
  H   H1273     1.0  0.96378  0.45213  0.38901  1.0000
  C   C802      1.0  0.85265  0.34508  0.44758  1.0000
  H   H1274     1.0  0.93942  0.46992  0.38331  1.0000
  C   C803      1.0  0.81577  0.39699  0.38117  1.0000
  H   H1275     1.0  0.85437  0.43525  0.28428  1.0000
  H   H1276     1.0  0.83215  0.45674  0.25734  1.0000
  H   H1277     1.0  0.87223  0.56232  0.31639  1.0000
  C   C804      1.0  0.81468  0.35915  0.39311  1.0000
  S   S320      1.0  0.89434  0.38580  0.49095  1.0000
  H   H1278     1.0  0.77169  0.36979  0.38981  1.0000
  C   C805      1.0  0.88956  0.58001  0.34478  1.0000
  H   H1279     1.0  0.82523  0.46541  0.29506  1.0000
  C   C806      1.0  0.91527  0.56078  0.31902  1.0000
  H   H1280     1.0  0.73629  0.33806  0.32452  1.0000
  H   H1281     1.0  0.83330  0.39422  0.37362  1.0000
  C   C807      1.0  0.82562  0.55267  0.27551  1.0000
  H   H1282     1.0  0.92937  0.56181  0.32763  1.0000
  H   H1283     1.0  0.75987  0.33637  0.37775  1.0000
  H   H1284     1.0  0.77232  0.39785  0.38030  1.0000
  H   H1285     1.0  0.87951  0.48516  0.28165  1.0000
  H   H1286     1.0  0.80641  0.34491  0.39295  1.0000
  H   H1287     1.0  0.86378  0.50051  0.26129  1.0000
  H   H1288     1.0  0.86613  0.35430  0.44603  1.0000
  C   C808      1.0  0.80546  0.37504  0.35737  1.0000
  H   H1289     1.0  0.82286  0.37201  0.34946  1.0000
  H   H1290     1.0  0.75479  0.52997  0.26781  1.0000
  S   S321      1.0  0.89855  0.33720  0.47548  1.0000
  C   C809      1.0  0.87959  0.57724  0.30961  1.0000
  H   H1291     1.0  0.97799  0.47995  0.41886  1.0000
  H   H1292     1.0  0.87347  0.44706  0.29577  1.0000
  S   S322      1.0  0.79831  0.56277  0.27133  1.0000
  Fe  Fe162     1.0  0.77732  0.36866  0.26923  1.0000
  Fe  Fe163     1.0  0.87297  0.35979  0.49304  1.0000
  H   H1293     1.0  0.86617  0.59108  0.31077  1.0000
  H   H1294     1.0  0.80797  0.41210  0.37218  1.0000
  S   S323      1.0  0.78023  0.33524  0.25994  1.0000
  H   H1295     1.0  0.86458  0.33197  0.41749  1.0000
  H   H1296     1.0  0.87641  0.59387  0.34720  1.0000
  H   H1297     1.0  0.92085  0.60154  0.32029  1.0000
  H   H1298     1.0  0.88256  0.56507  0.35242  1.0000
  H   H1299     1.0  0.79727  0.38928  0.34736  1.0000
  Fe  Fe164     1.0  0.00292  0.64619  0.36538  1.0000
  C   C810      1.0  0.73956  0.32596  0.31296  1.0000
  S   S324      1.0  0.83792  0.36088  0.48666  1.0000
  C   C811      1.0  0.87150  0.48400  0.26724  1.0000
  H   H1300     1.0  0.96355  0.46788  0.44397  1.0000
  S   S325      1.0  0.74520  0.39056  0.26879  1.0000
  H   H1301     1.0  0.87914  0.55655  0.25428  1.0000
  H   H1302     1.0  0.83231  0.35499  0.38642  1.0000
  H   H1303     1.0  0.74784  0.49681  0.25499  1.0000
  H   H1304     1.0  0.74702  0.33396  0.29696  1.0000
  H   H1305     1.0  0.90890  0.54543  0.32607  1.0000
  S   S326      1.0  0.00149  0.61712  0.39110  1.0000
  N   N82       1.0  0.85509  0.46889  0.27297  1.0000
  N   N83       1.0  0.89784  0.57939  0.32132  1.0000
  H   H1306     1.0  0.81407  0.36132  0.41055  1.0000
  H   H1307     1.0  0.91957  0.45312  0.41775  1.0000
  H   H1308     1.0  0.82960  0.49271  0.28555  1.0000
  C   C812      1.0  0.86614  0.44722  0.28058  1.0000
  C   C813      1.0  0.86523  0.55100  0.26521  1.0000
  H   H1309     1.0  0.94431  0.43592  0.42392  1.0000
  H   H1310     1.0  0.92169  0.55954  0.30150  1.0000
  C   C814      1.0  0.85164  0.33255  0.43131  1.0000
  H   H1311     1.0  0.79740  0.36097  0.35615  1.0000
  H   H1312     1.0  0.91327  0.59964  0.29417  1.0000
  H   H1313     1.0  0.88535  0.57634  0.29191  1.0000
  H   H1314     1.0  0.96493  0.63679  0.35039  1.0000
  H   H1315     1.0  0.81563  0.39990  0.39831  1.0000
  Fe  Fe165     1.0  0.92047  0.36213  0.47516  1.0000
  C   C815      1.0  0.82926  0.53662  0.29322  1.0000
  H   H1316     1.0  0.88478  0.47891  0.25415  1.0000
  C   C816      1.0  0.94127  0.64793  0.32788  1.0000
  Fe  Fe166     1.0  0.76592  0.41725  0.25883  1.0000
  C   C817      1.0  0.83805  0.47627  0.29058  1.0000
  C   C818      1.0  0.81819  0.33475  0.46678  1.0000
  H   H1317     1.0  0.78149  0.52846  0.25162  1.0000
  H   H1318     1.0  0.87959  0.44141  0.26800  1.0000
  S   S327      1.0  0.79811  0.39501  0.25659  1.0000
  C   C819      1.0  0.95561  0.65069  0.34210  1.0000
  C   C820      1.0  0.76369  0.53450  0.25121  1.0000
  H   H1319     1.0  0.77331  0.32443  0.33543  1.0000
  S   S328      1.0  0.00495  0.56609  0.35976  1.0000
  H   H1320     1.0  0.72150  0.53043  0.25004  1.0000
  H   H1321     1.0  0.98879  0.65558  0.30233  1.0000
  C   C821      1.0  0.81710  0.36349  0.54707  1.0000
  N   N84       1.0  0.80879  0.34257  0.55359  1.0000
  H   H1322     1.0  0.79375  0.34974  0.58553  1.0000
  C   C822      1.0  0.91939  0.33018  0.60081  1.0000
  H   H1323     1.0  0.97633  0.41616  0.59913  1.0000
  C   C823      1.0  0.78946  0.34466  0.57068  1.0000
  H   H1324     1.0  0.83171  0.33103  0.57674  1.0000
  S   S329      1.0  0.98819  0.34936  0.68859  1.0000
  H   H1325     1.0  0.97539  0.47160  0.56921  1.0000
  Fe  Fe167     1.0  0.90551  0.36816  0.52261  1.0000
  S   S330      1.0  0.90991  0.38024  0.55378  1.0000
  C   C824      1.0  0.97993  0.37591  0.57108  1.0000
  C   C825      1.0  0.97661  0.37490  0.54957  1.0000
  C   C826      1.0  0.95529  0.37608  0.54418  1.0000
  C   C827      1.0  0.93696  0.37864  0.56019  1.0000
  C   C828      1.0  0.94021  0.37978  0.58173  1.0000
  C   C829      1.0  0.96163  0.37810  0.58725  1.0000
  H   H1326     1.0  0.99065  0.37327  0.53694  1.0000
  H   H1327     1.0  0.95306  0.37543  0.52750  1.0000
  H   H1328     1.0  0.92612  0.38180  0.59423  1.0000
  H   H1329     1.0  0.96396  0.37878  0.60392  1.0000
  C   C830      1.0  0.99138  0.46096  0.56655  1.0000
  H   H1330     1.0  0.99330  0.43825  0.61947  1.0000
  H   H1331     1.0  0.00345  0.35667  0.73226  1.0000
  H   H1332     1.0  0.97614  0.42300  0.57031  1.0000
  H   H1333     1.0  0.82225  0.36921  0.56114  1.0000
  H   H1334     1.0  0.97519  0.34418  0.64744  1.0000
  H   H1335     1.0  0.90848  0.34274  0.59142  1.0000
  H   H1336     1.0  0.95612  0.32990  0.57160  1.0000
  S   S331      1.0  0.88083  0.34530  0.52649  1.0000
  H   H1337     1.0  0.83164  0.36236  0.53411  1.0000
  C   C831      1.0  0.96997  0.33353  0.68214  1.0000
  H   H1338     1.0  0.80442  0.37608  0.54022  1.0000
  H   H1339     1.0  0.97598  0.46187  0.60927  1.0000
  S   S332      1.0  0.99932  0.39277  0.63592  1.0000
  H   H1340     1.0  0.93254  0.33410  0.55740  1.0000
  H   H1341     1.0  0.95883  0.43964  0.58884  1.0000
  H   H1342     1.0  0.77590  0.35674  0.56469  1.0000
  C   C832      1.0  0.97532  0.42996  0.58574  1.0000
  C   C833      1.0  0.96661  0.33399  0.66044  1.0000
  C   C834      1.0  0.80231  0.33573  0.53429  1.0000
  N   N85       1.0  0.99330  0.44292  0.58455  1.0000
  H   H1343     1.0  0.78924  0.34763  0.52719  1.0000
  C   C835      1.0  0.99188  0.45143  0.60550  1.0000
  H   H1344     1.0  0.78288  0.32906  0.57584  1.0000
  C   C836      1.0  0.82629  0.32635  0.56226  1.0000
  H   H1345     1.0  0.99240  0.45501  0.55055  1.0000
  S   S333      1.0  0.93281  0.34595  0.50674  1.0000
  H   H1346     1.0  0.81651  0.33406  0.52111  1.0000
  H   H1347     1.0  0.93215  0.33832  0.60549  1.0000
  H   H1348     1.0  0.00479  0.47097  0.56519  1.0000
  S   S334      1.0  0.54229  0.36033  0.86337  1.0000
  Fe  Fe168     1.0  0.68961  0.35598  0.98270  1.0000
  H   H1349     1.0  0.79673  0.33380  0.79801  1.0000
  C   C837      1.0  0.59225  0.36469  0.92109  1.0000
  S   S335      1.0  0.66950  0.38591  0.96823  1.0000
  C   C838      1.0  0.53803  0.39296  0.80896  1.0000
  H   H1350     1.0  0.59761  0.33676  0.97158  1.0000
  C   C839      1.0  0.57595  0.35448  0.91540  1.0000
  H   H1351     1.0  0.59875  0.37760  0.90973  1.0000
  C   C840      1.0  0.60020  0.35839  0.94133  1.0000
  Fe  Fe169     1.0  0.54747  0.33541  0.84063  1.0000
  C   C841      1.0  0.53935  0.37345  0.77859  1.0000
  H   H1352     1.0  0.53124  0.40775  0.81658  1.0000
  H   H1353     1.0  0.53284  0.37922  0.82085  1.0000
  H   H1354     1.0  0.56998  0.35958  0.89980  1.0000
  H   H1355     1.0  0.63618  0.34226  0.91164  1.0000
  C   C842      1.0  0.72811  0.34452  0.90484  1.0000
  H   H1356     1.0  0.71968  0.36628  0.92914  1.0000
  S   S336      1.0  0.51256  0.34028  0.83428  1.0000
  Fe  Fe170     1.0  0.50659  0.36329  0.85903  1.0000
  S   S337      1.0  0.66236  0.33580  0.98756  1.0000
  Fe  Fe171     1.0  0.53481  0.33323  0.89001  1.0000
  Fe  Fe172     1.0  0.64133  0.36630  0.97544  1.0000
  H   H1357     1.0  0.78081  0.34278  0.82237  1.0000
  C   C843      1.0  0.72472  0.34975  0.92628  1.0000
  H   H1358     1.0  0.66228  0.35000  0.93412  1.0000
  H   H1359     1.0  0.68540  0.33056  0.94005  1.0000
  H   H1360     1.0  0.65801  0.33553  0.89039  1.0000
  N   N86       1.0  0.53000  0.39349  0.78782  1.0000
  H   H1361     1.0  0.68399  0.34431  0.91263  1.0000
  C   C844      1.0  0.56728  0.33791  0.92998  1.0000
  C   C845      1.0  0.79703  0.33428  0.81571  1.0000
  S   S338      1.0  0.62142  0.37140  0.94684  1.0000
  H   H1362     1.0  0.55522  0.41122  0.76961  1.0000
  S   S339      1.0  0.57347  0.33533  0.81106  1.0000
  C   C846      1.0  0.72790  0.33359  0.94399  1.0000
  H   H1363     1.0  0.72552  0.35704  0.89121  1.0000
  C   C847      1.0  0.59167  0.34170  0.95592  1.0000
  H   H1364     1.0  0.53015  0.42752  0.77907  1.0000
  H   H1365     1.0  0.53441  0.35904  0.78977  1.0000
  C   C848      1.0  0.57522  0.33154  0.95025  1.0000
  H   H1366     1.0  0.55633  0.39112  0.80715  1.0000
  S   S340      1.0  0.72356  0.33959  0.97097  1.0000
  H   H1367     1.0  0.53119  0.41309  0.75635  1.0000
  H   H1368     1.0  0.55770  0.37127  0.77613  1.0000
  C   C849      1.0  0.67423  0.33686  0.92755  1.0000
  H   H1369     1.0  0.80988  0.34419  0.81690  1.0000
  C   C850      1.0  0.53695  0.41216  0.77251  1.0000
  C   C851      1.0  0.64852  0.32887  0.90595  1.0000
  H   H1370     1.0  0.53381  0.37326  0.76255  1.0000
  S   S341      1.0  0.54653  0.32491  0.92339  1.0000
  C   C852      1.0  0.50569  0.39540  0.79133  1.0000
  H   H1371     1.0  0.89682  0.76187  0.15893  1.0000
  C   C853      1.0  0.81208  0.78908  0.23309  1.0000
  S   S342      1.0  0.98640  0.87858  0.14378  1.0000
  H   H1372     1.0  0.53977  0.78362  0.22959  1.0000
  S   S343      1.0  0.57236  0.68522  0.13156  1.0000
  H   H1373     1.0  0.99400  0.89679  0.09310  1.0000
  C   C854      1.0  0.98953  0.77011  0.20337  1.0000
  C   C855      1.0  0.95664  0.78678  0.22420  1.0000
  Fe  Fe173     1.0  0.63972  0.73360  0.22584  1.0000
  C   C856      1.0  0.63839  0.68473  0.17590  1.0000
  S   S344      1.0  0.63629  0.75308  0.19293  1.0000
  Fe  Fe174     1.0  0.54313  0.66744  0.13436  1.0000
  H   H1374     1.0  0.89308  0.74537  0.18507  1.0000
  S   S345      1.0  0.60315  0.78938  0.21900  1.0000
  C   C857      1.0  0.72201  0.79443  0.20971  1.0000
  Fe  Fe175     1.0  0.60024  0.75946  0.20551  1.0000
  S   S346      1.0  0.56918  0.75689  0.19222  1.0000
  Fe  Fe176     1.0  0.63956  0.78079  0.21006  1.0000
  S   S347      1.0  0.66192  0.80547  0.19591  1.0000
  C   C858      1.0  0.68368  0.69164  0.23196  1.0000
  H   H1375     1.0  0.77940  0.96717  0.22739  1.0000
  S   S348      1.0  0.65629  0.69931  0.22664  1.0000
  S   S349      1.0  0.83672  0.94870  0.16678  1.0000
  H   H1376     1.0  0.51312  0.71166  0.21268  1.0000
  C   C859      1.0  0.97347  0.90140  0.17926  1.0000
  H   H1377     1.0  0.95749  0.73260  0.23047  1.0000
  S   S350      1.0  0.86768  0.97900  0.19897  1.0000
  C   C860      1.0  0.72684  0.67725  0.24158  1.0000
  S   S351      1.0  0.73569  0.87448  0.23152  1.0000
  H   H1378     1.0  0.00210  0.85241  0.07795  1.0000
  N   N87       1.0  0.62350  0.67094  0.19039  1.0000
  C   C861      1.0  0.97646  0.78854  0.21009  1.0000
  H   H1379     1.0  0.56433  0.76999  0.23958  1.0000
  C   C862      1.0  0.79304  0.80042  0.24331  1.0000
  H   H1380     1.0  0.82268  0.72586  0.21177  1.0000
  S   S352      1.0  0.87862  0.73858  0.23457  1.0000
  H   H1381     1.0  0.94143  0.73728  0.14232  1.0000
  H   H1382     1.0  0.78358  0.72788  0.22826  1.0000
  H   H1383     1.0  0.98511  0.88989  0.18781  1.0000
  Fe  Fe177     1.0  0.89071  0.70431  0.23000  1.0000
  H   H1384     1.0  0.79780  0.70433  0.19957  1.0000
  H   H1385     1.0  0.95281  0.72960  0.18866  1.0000
  S   S353      1.0  0.89203  0.69652  0.19595  1.0000
  H   H1386     1.0  0.81167  0.97416  0.19958  1.0000
  H   H1387     1.0  0.55363  0.73515  0.23625  1.0000
  C   C863      1.0  0.98267  0.74992  0.21084  1.0000
  C   C864      1.0  0.96272  0.74818  0.22480  1.0000
  C   C865      1.0  0.94963  0.76665  0.23145  1.0000
  C   C866      1.0  0.82186  0.76961  0.24370  1.0000
  H   H1388     1.0  0.61520  0.69288  0.21425  1.0000
  H   H1389     1.0  0.85438  0.93237  0.21136  1.0000
  C   C867      1.0  0.67156  0.84769  0.24530  1.0000
  C   C868      1.0  0.88750  0.88502  0.20527  1.0000
  H   H1390     1.0  0.92551  0.72721  0.20254  1.0000
  H   H1391     1.0  0.88495  0.93679  0.18114  1.0000
  C   C869      1.0  0.88774  0.91904  0.18195  1.0000
  H   H1392     1.0  0.98160  0.80416  0.20444  1.0000
  S   S354      1.0  0.75473  0.93157  0.23861  1.0000
  H   H1393     1.0  0.91376  0.91189  0.21337  1.0000
  H   H1394     1.0  0.64743  0.69280  0.18551  1.0000
  C   C870      1.0  0.94558  0.93341  0.17883  1.0000
  C   C871      1.0  0.96073  0.91826  0.18973  1.0000
  C   C872      1.0  0.94335  0.93158  0.15730  1.0000
  H   H1395     1.0  0.93195  0.94320  0.14861  1.0000
  C   C873      1.0  0.81422  0.94408  0.18715  1.0000
  C   C874      1.0  0.80548  0.92471  0.18937  1.0000
  C   C875      1.0  0.78764  0.92044  0.20554  1.0000
  C   C876      1.0  0.77804  0.93581  0.21916  1.0000
  C   C877      1.0  0.78682  0.95516  0.21700  1.0000
  C   C878      1.0  0.80506  0.95917  0.20122  1.0000
  H   H1396     1.0  0.81245  0.91302  0.17846  1.0000
  H   H1397     1.0  0.78086  0.90557  0.20699  1.0000
  H   H1398     1.0  0.99421  0.89158  0.06563  1.0000
  S   S355      1.0  0.88958  0.97208  0.14792  1.0000
  Fe  Fe178     1.0  0.90122  0.97666  0.17867  1.0000
  C   C879      1.0  0.65100  0.82237  0.23478  1.0000
  H   H1399     1.0  0.88174  0.68492  0.15700  1.0000
  H   H1400     1.0  0.94659  0.80111  0.22934  1.0000
  H   H1401     1.0  0.83094  0.71861  0.23853  1.0000
  C   C880      1.0  0.87392  0.67487  0.17071  1.0000
  H   H1402     1.0  0.62914  0.69763  0.16532  1.0000
  C   C881      1.0  0.94087  0.75132  0.15109  1.0000
  H   H1403     1.0  0.72225  0.81163  0.21106  1.0000
  H   H1404     1.0  0.59672  0.69668  0.19424  1.0000
  C   C882      1.0  0.54677  0.77592  0.24476  1.0000
  H   H1405     1.0  0.90526  0.91438  0.17531  1.0000
  H   H1406     1.0  0.96267  0.91960  0.20635  1.0000
  H   H1407     1.0  0.73707  0.78907  0.19864  1.0000
  H   H1408     1.0  0.99279  0.73562  0.20570  1.0000
  C   C883      1.0  0.95597  0.91468  0.14689  1.0000
  H   H1409     1.0  0.50953  0.68326  0.19097  1.0000
  C   C884      1.0  0.66409  0.82301  0.21432  1.0000
  C   C885      1.0  0.68038  0.83655  0.20913  1.0000
  C   C886      1.0  0.68436  0.84860  0.22470  1.0000
  S   S356      1.0  0.50794  0.68151  0.13180  1.0000
  H   H1410     1.0  0.75598  0.77768  0.23148  1.0000
  H   H1411     1.0  0.87723  0.91493  0.17078  1.0000
  H   H1412     1.0  0.69033  0.83734  0.19322  1.0000
  H   H1413     1.0  0.69717  0.85876  0.22066  1.0000
  H   H1414     1.0  0.81950  0.79555  0.21701  1.0000
  C   C887      1.0  0.69446  0.67140  0.22744  1.0000
  H   H1415     1.0  0.95403  0.91343  0.13026  1.0000
  H   H1416     1.0  0.85415  0.90739  0.22948  1.0000
  N   N88       1.0  0.80779  0.69977  0.23167  1.0000
  H   H1417     1.0  0.95811  0.75257  0.15308  1.0000
  C   C888      1.0  0.97110  0.89954  0.15777  1.0000
  N   N89       1.0  0.88246  0.90859  0.20465  1.0000
  C   C889      1.0  0.57084  0.70562  0.14801  1.0000
  C   C890      1.0  0.58959  0.71545  0.14760  1.0000
  C   C891      1.0  0.58937  0.73096  0.16135  1.0000
  C   C892      1.0  0.57013  0.73719  0.17512  1.0000
  C   C893      1.0  0.55120  0.72780  0.17511  1.0000
  C   C894      1.0  0.55163  0.71180  0.16185  1.0000
  H   H1418     1.0  0.60434  0.71101  0.13659  1.0000
  H   H1419     1.0  0.60389  0.73845  0.16094  1.0000
  H   H1420     1.0  0.53617  0.73291  0.18540  1.0000
  H   H1421     1.0  0.53703  0.70447  0.16211  1.0000
  H   H1422     1.0  0.94353  0.76985  0.18580  1.0000
  S   S357      1.0  0.60347  0.73799  0.23714  1.0000
  H   H1423     1.0  0.83659  0.76119  0.23569  1.0000
  H   H1424     1.0  0.52887  0.74882  0.22638  1.0000
  H   H1425     1.0  0.91940  0.78293  0.17419  1.0000
  H   H1426     1.0  0.91675  0.76617  0.20026  1.0000
  C   C895      1.0  0.85881  0.91459  0.21228  1.0000
  H   H1427     1.0  0.82799  0.67049  0.24266  1.0000
  H   H1428     1.0  0.89237  0.93354  0.21881  1.0000
  H   H1429     1.0  0.70753  0.79369  0.20152  1.0000
  H   H1430     1.0  0.90528  0.88007  0.19962  1.0000
  C   C896      1.0  0.89580  0.91578  0.21895  1.0000
  C   C897      1.0  0.92657  0.76780  0.18365  1.0000
  Fe  Fe179     1.0  0.85595  0.97574  0.16766  1.0000
  C   C898      1.0  0.71601  0.66429  0.23207  1.0000
  H   H1431     1.0  0.65090  0.67528  0.16505  1.0000
  S   S358      1.0  0.92927  0.95387  0.19288  1.0000
  H   H1432     1.0  0.88361  0.87656  0.22214  1.0000
  C   C899      1.0  0.82652  0.71207  0.22460  1.0000
  N   N90       1.0  0.92676  0.74893  0.17250  1.0000
  H   H1433     1.0  0.78882  0.68149  0.21748  1.0000
  H   H1434     1.0  0.84831  0.90923  0.20190  1.0000
  H   H1435     1.0  0.93471  0.76604  0.14034  1.0000
  H   H1436     1.0  0.60225  0.67240  0.16599  1.0000
  S   S359      1.0  0.78174  0.82498  0.22954  1.0000
  N   N91       1.0  0.72094  0.78113  0.23145  1.0000
  C   C900      1.0  0.80261  0.69122  0.21270  1.0000
  H   H1437     1.0  0.93530  0.71455  0.17861  1.0000
  H   H1438     1.0  0.87782  0.87918  0.19443  1.0000
  C   C901      1.0  0.74028  0.78298  0.24172  1.0000
  H   H1439     1.0  0.89244  0.90816  0.23621  1.0000
  C   C902      1.0  0.78844  0.71408  0.24067  1.0000
  C   C903      1.0  0.93556  0.72922  0.18615  1.0000
  H   H1440     1.0  0.90360  0.73308  0.16105  1.0000
  H   H1441     1.0  0.84144  0.70185  0.21772  1.0000
  C   C904      1.0  0.90408  0.74733  0.16918  1.0000
  C   C905      1.0  0.87657  0.67684  0.19208  1.0000
  H   H1442     1.0  0.59586  0.67437  0.21575  1.0000
  H   H1443     1.0  0.81696  0.68056  0.20538  1.0000
  C   C906      1.0  0.60709  0.68428  0.20428  1.0000
  H   H1444     1.0  0.73590  0.75205  0.21844  1.0000
  C   C907      1.0  0.53626  0.74182  0.24156  1.0000
  C   C908      1.0  0.86656  0.66352  0.20968  1.0000
  H   H1445     1.0  0.74064  0.79998  0.24386  1.0000
  H   H1446     1.0  0.86907  0.66444  0.22619  1.0000
  H   H1447     1.0  0.00160  0.85792  0.10530  1.0000
  H   H1448     1.0  0.63832  0.81203  0.23888  1.0000
  H   H1449     1.0  0.70637  0.75670  0.22108  1.0000
  S   S360      1.0  0.64545  0.76078  0.24221  1.0000
  C   C909      1.0  0.00485  0.89425  0.07739  1.0000
  H   H1450     1.0  0.64507  0.66179  0.21506  1.0000
  C   C910      1.0  0.72081  0.75846  0.22889  1.0000
  C   C911      1.0  0.69462  0.70487  0.24109  1.0000
  H   H1451     1.0  0.68569  0.78728  0.23832  1.0000
  C   C912      1.0  0.86112  0.66001  0.16688  1.0000
  C   C913      1.0  0.70061  0.78875  0.24546  1.0000
  H   H1452     1.0  0.85918  0.65863  0.15026  1.0000
  H   H1453     1.0  0.68611  0.66106  0.22043  1.0000
  C   C914      1.0  0.71615  0.69759  0.24606  1.0000
  H   H1454     1.0  0.68628  0.72038  0.24486  1.0000
  H   H1455     1.0  0.71978  0.74800  0.24501  1.0000
  H   H1456     1.0  0.77400  0.70530  0.24625  1.0000
  C   C915      1.0  0.61206  0.66039  0.17695  1.0000
  H   H1457     1.0  0.69984  0.80596  0.24742  1.0000
  S   S361      1.0  0.92418  0.76539  0.24827  1.0000
  Fe  Fe180     1.0  0.75955  0.84934  0.24848  1.0000
  S   S362      1.0  0.92109  0.70271  0.24577  1.0000
  S   S363      1.0  0.75364  0.66815  0.24809  1.0000
  C   C916      1.0  0.81356  0.68174  0.24882  1.0000
  H   H1458     1.0  0.97033  0.67854  0.29286  1.0000
  H   H1459     1.0  0.54451  0.76008  0.28749  1.0000
  Fe  Fe181     1.0  0.53574  0.87041  0.33098  1.0000
  S   S364      1.0  0.55622  0.84694  0.35269  1.0000
  S   S365      1.0  0.54988  0.87073  0.29545  1.0000
  C   C917      1.0  0.65458  0.83488  0.25015  1.0000
  H   H1460     1.0  0.00055  0.69641  0.25376  1.0000
  Fe  Fe182     1.0  0.54848  0.87202  0.37524  1.0000
  S   S366      1.0  0.57728  0.88052  0.38900  1.0000
  H   H1461     1.0  0.72857  0.97795  0.31957  1.0000
  S   S367      1.0  0.52922  0.89634  0.35275  1.0000
  H   H1462     1.0  0.59554  0.90632  0.32146  1.0000
  H   H1463     1.0  0.98425  0.71153  0.27404  1.0000
  Fe  Fe183     1.0  0.64885  0.97732  0.36046  1.0000
  S   S368      1.0  0.66113  0.97096  0.39309  1.0000
  S   S369      1.0  0.61639  0.96848  0.35476  1.0000
  Fe  Fe184     1.0  0.71239  0.86751  0.26241  1.0000
  C   C918      1.0  0.61692  0.86888  0.33913  1.0000
  Fe  Fe185     1.0  0.69458  0.96489  0.37342  1.0000
  S   S370      1.0  0.72187  0.93870  0.38246  1.0000
  C   C919      1.0  0.54509  0.74820  0.27604  1.0000
  S   S371      1.0  0.68199  0.96860  0.34123  1.0000
  S   S372      1.0  0.75674  0.86299  0.32555  1.0000
  H   H1464     1.0  0.64457  0.83416  0.26602  1.0000
  C   C920      1.0  0.74093  0.96331  0.31877  1.0000
  H   H1465     1.0  0.76114  0.92889  0.28179  1.0000
  H   H1466     1.0  0.59107  0.95961  0.42769  1.0000
  S   S373      1.0  0.73556  0.84079  0.27809  1.0000
  H   H1467     1.0  0.80458  0.84396  0.32802  1.0000
  H   H1468     1.0  0.78069  0.81729  0.32781  1.0000
  C   C921      1.0  0.93083  0.68646  0.32097  1.0000
  H   H1469     1.0  0.60415  0.98453  0.44830  1.0000
  C   C922      1.0  0.81245  0.76114  0.26446  1.0000
  C   C923      1.0  0.78820  0.81526  0.31070  1.0000
  S   S374      1.0  0.77334  0.87296  0.26367  1.0000
  H   H1470     1.0  0.75469  0.92294  0.31084  1.0000
  H   H1471     1.0  0.76645  0.97618  0.28128  1.0000
  H   H1472     1.0  0.79191  0.72066  0.25508  1.0000
  C   C924      1.0  0.81162  0.84197  0.31078  1.0000
  C   C925      1.0  0.82001  0.81826  0.28311  1.0000
  C   C926      1.0  0.73004  0.91716  0.36702  1.0000
  C   C927      1.0  0.71805  0.91373  0.35097  1.0000
  C   C928      1.0  0.72596  0.89704  0.33816  1.0000
  C   C929      1.0  0.74573  0.88364  0.34155  1.0000
  C   C930      1.0  0.75729  0.88677  0.35798  1.0000
  C   C931      1.0  0.74955  0.90349  0.37056  1.0000
  H   H1473     1.0  0.70264  0.92379  0.34856  1.0000
  H   H1474     1.0  0.71657  0.89434  0.32597  1.0000
  H   H1475     1.0  0.77244  0.87637  0.36088  1.0000
  H   H1476     1.0  0.75879  0.90591  0.38304  1.0000
  C   C932      1.0  0.58837  0.90483  0.37905  1.0000
  C   C933      1.0  0.57791  0.92104  0.36477  1.0000
  C   C934      1.0  0.58692  0.94023  0.35730  1.0000
  C   C935      1.0  0.60662  0.94344  0.36381  1.0000
  C   C936      1.0  0.61732  0.92716  0.37789  1.0000
  C   C937      1.0  0.60815  0.90799  0.38555  1.0000
  H   H1477     1.0  0.56267  0.91901  0.35971  1.0000
  H   H1478     1.0  0.57848  0.95275  0.34649  1.0000
  H   H1479     1.0  0.63253  0.92939  0.38304  1.0000
  H   H1480     1.0  0.61644  0.89553  0.39655  1.0000
  C   C938      1.0  0.55991  0.84408  0.29067  1.0000
  C   C939      1.0  0.57482  0.83989  0.27199  1.0000
  C   C940      1.0  0.58362  0.81857  0.26894  1.0000
  C   C941      1.0  0.57738  0.80142  0.28450  1.0000
  C   C942      1.0  0.56205  0.80567  0.30281  1.0000
  C   C943      1.0  0.55333  0.82687  0.30583  1.0000
  H   H1481     1.0  0.77761  0.82635  0.29972  1.0000
  H   H1482     1.0  0.79965  0.67222  0.25456  1.0000
  H   H1483     1.0  0.55710  0.79253  0.31493  1.0000
  H   H1484     1.0  0.54146  0.82974  0.32002  1.0000
  N   N92       1.0  0.74301  0.95531  0.29749  1.0000
  C   C944      1.0  0.75012  0.97206  0.27966  1.0000
  H   H1485     1.0  0.63548  0.89924  0.30996  1.0000
  H   H1486     1.0  0.75684  0.96733  0.32177  1.0000
  Fe  Fe186     1.0  0.86033  0.72509  0.26626  1.0000
  H   H1487     1.0  0.82098  0.80156  0.27945  1.0000
  Fe  Fe187     1.0  0.52423  0.83531  0.36761  1.0000
  H   H1488     1.0  0.51843  0.85588  0.27060  1.0000
  H   H1489     1.0  0.56277  0.74183  0.27174  1.0000
  H   H1490     1.0  0.81846  0.80515  0.33824  1.0000
  C   C945      1.0  0.82473  0.80431  0.32062  1.0000
  H   H1491     1.0  0.60772  0.86080  0.28901  1.0000
  H   H1492     1.0  0.54654  0.78843  0.25540  1.0000
  N   N93       1.0  0.61354  0.87536  0.31596  1.0000
  C   C946      1.0  0.00402  0.69083  0.30821  1.0000
  H   H1493     1.0  0.64830  0.87286  0.30468  1.0000
  C   C947      1.0  0.95768  0.67134  0.34572  1.0000
  H   H1494     1.0  0.80158  0.85412  0.30014  1.0000
  H   H1495     1.0  0.58000  0.85310  0.26012  1.0000
  C   C948      1.0  0.75945  0.93572  0.29735  1.0000
  H   H1496     1.0  0.77599  0.93908  0.29931  1.0000
  H   H1497     1.0  0.82467  0.78751  0.31762  1.0000
  C   C949      1.0  0.59373  0.89164  0.31468  1.0000
  H   H1498     1.0  0.62529  0.84387  0.30685  1.0000
  C   C950      1.0  0.59645  0.97003  0.41234  1.0000
  H   H1499     1.0  0.70871  0.96466  0.29421  1.0000
  H   H1500     1.0  0.83692  0.82267  0.27894  1.0000
  C   C951      1.0  0.98696  0.66935  0.28901  1.0000
  H   H1501     1.0  0.80946  0.82897  0.27177  1.0000
  H   H1502     1.0  0.60245  0.86210  0.34905  1.0000
  H   H1503     1.0  0.82866  0.84607  0.30796  1.0000
  N   N94       1.0  0.81115  0.81995  0.30629  1.0000
  S   S375      1.0  0.67701  0.86182  0.26539  1.0000
  H   H1504     1.0  0.94645  0.70521  0.33829  1.0000
  H   H1505     1.0  0.57884  0.88529  0.32415  1.0000
  H   H1506     1.0  0.73549  0.95117  0.33258  1.0000
  C   C952      1.0  0.92901  0.66580  0.31713  1.0000
  Fe  Fe188     1.0  0.74689  0.86693  0.29188  1.0000
  C   C953      1.0  0.63298  0.88457  0.30360  1.0000
  C   C954      1.0  0.61054  0.85638  0.30643  1.0000
  C   C955      1.0  0.00052  0.70167  0.26994  1.0000
  S   S376      1.0  0.51898  0.85695  0.39367  1.0000
  H   H1507     1.0  0.63161  0.85647  0.34079  1.0000
  H   H1508     1.0  0.92133  0.70032  0.31285  1.0000
  S   S377      1.0  0.58812  0.77448  0.28173  1.0000
  H   H1509     1.0  0.74017  0.77315  0.25815  1.0000
  S   S378      1.0  0.97704  0.67503  0.36194  1.0000
  H   H1510     1.0  0.59035  0.89657  0.29747  1.0000
  C   C956      1.0  0.72150  0.95020  0.29417  1.0000
  H   H1511     1.0  0.62670  0.98820  0.42685  1.0000
  H   H1512     1.0  0.61936  0.88282  0.34676  1.0000
  S   S379      1.0  0.88793  0.72485  0.28563  1.0000
  H   H1513     1.0  0.78529  0.76531  0.29026  1.0000
  S   S380      1.0  0.82482  0.73710  0.27840  1.0000
  H   H1514     1.0  0.59608  0.84892  0.31541  1.0000
  H   H1515     1.0  0.84219  0.80732  0.31774  1.0000
  H   H1516     1.0  0.63137  0.88902  0.28587  1.0000
  C   C957      1.0  0.51163  0.76657  0.26283  1.0000
  H   H1517     1.0  0.72441  0.70750  0.25367  1.0000
  H   H1518     1.0  0.50826  0.76869  0.34596  1.0000
  C   C958      1.0  0.94503  0.68921  0.33539  1.0000
  Fe  Fe189     1.0  0.89964  0.69165  0.27671  1.0000
  N   N95       1.0  0.53493  0.75812  0.25630  1.0000
  H   H1519     1.0  0.51006  0.77901  0.27380  1.0000
  S   S381      1.0  0.72182  0.89299  0.27880  1.0000
  C   C959      1.0  0.79284  0.77202  0.27434  1.0000
  H   H1520     1.0  0.78721  0.79854  0.30831  1.0000
  H   H1521     1.0  0.98773  0.70003  0.31352  1.0000
  C   C960      1.0  0.78332  0.79183  0.26393  1.0000
  H   H1522     1.0  0.72258  0.94417  0.27817  1.0000
  Fe  Fe190     1.0  0.60857  0.76746  0.24992  1.0000
  H   H1523     1.0  0.71554  0.93759  0.30722  1.0000
  H   H1524     1.0  0.69937  0.77933  0.26212  1.0000
  H   H1525     1.0  0.53665  0.73464  0.28513  1.0000
  S   S382      1.0  0.87023  0.69079  0.26022  1.0000
  H   H1526     1.0  0.51719  0.81831  0.28695  1.0000
  S   S383      1.0  0.91217  0.66183  0.29848  1.0000
  S   S384      1.0  0.51760  0.80109  0.36951  1.0000
  H   H1527     1.0  0.59559  0.81551  0.25483  1.0000
  Fe  Fe191     1.0  0.90710  0.73592  0.25319  1.0000
  H   H1528     1.0  0.76843  0.80033  0.27178  1.0000
  H   H1529     1.0  0.73808  0.98711  0.27953  1.0000
  H   H1530     1.0  0.81764  0.68761  0.26335  1.0000
  H   H1531     1.0  0.58611  0.96842  0.39982  1.0000
  H   H1532     1.0  0.75151  0.96665  0.26333  1.0000
  H   H1533     1.0  0.98709  0.66267  0.27357  1.0000
  Fe  Fe192     1.0  0.74751  0.89751  0.24938  1.0000
  H   H1534     1.0  0.61362  0.96335  0.40624  1.0000
  N   N96       1.0  0.00443  0.68307  0.28705  1.0000
  H   H1535     1.0  0.50525  0.86487  0.29580  1.0000
  H   H1536     1.0  0.52733  0.72822  0.24956  1.0000
