data_image0
_chemical_formula_structural       H2SC4NH3SH4CHFeSH3C3H3CFeHS2H3C2NSH2CHCHC2SFeHSFeS2CH3Fe2S2FeS3HSHFeSH4FeSFeS2HSCFeSFeS3CSHFeS2FeS2FeSFeS3H2SFeS2HC6H4CH2C3H4C7H4CH3FeCFeH4CHC2SH2CHC2HSCH2C6H5CH4SH2C7H4C6H2CNC4H12NC3H7NC4H11CHCHCFeH3CFeH2CHC3HC2H5NHFeHSH5CH2CNCHC2SH7C2N2CH2SCHCHSC2NSFeCH3CHNCHSFeCH6C3H2FeH2SH3SHSHNCH2CS2H2FeH2SCH4CSC2HC3FeH4CSHC2HCH3CH3FeS2FeSH7CH3CHC3H8CFeHSHCSCHN2HCH2CHCH3CHSHC2H2C3HFeCH2CSH4S2CFeS2CSH3NCSHCHFeS2FeS2FeSFeS3FeSHFeSCFeSFeS3FeS2FeCH2FeS3CH2SHC6H4C6H6CHCH5C4H3C2H2C2HC7H4C3H2C6H6C5HCH3SHSCS2CHCH2NCH2C2FeHC2NCNC4H13CSCH3CH2NC4H12NH2NCHCSH3C2H3C2H2CHFeCH3SCH3CNH2C2H4CH5C2HCHC2H3CHC2HNCH2CH2SH2NFeCH6CH4C2HFeH2CH3C2H11CH2CHFeS2FeS2CFeS4HFeS2FeS2FeSFeNS2FeS2HCHFeS2FeS2FeS2FeSFeS3H2C6H8C6H4C6FeSH2C6H3C6H4C3FeH3NC3H2CH6CH2CH9CSHCH4C2HCH6SC2H2CH3CH3CH2CHCSHNCHC2NHNH2CNC4H15CSC3HCHNCH11CH4C2H2CH6C4HCHCH6FeH3CH2CHCHCHCNCH2SC2H5CFeHFeS2FeS2HFeS2FeS2FeSFeS3HSHFeS2FeSFeSHS2HCHSH2CH4NS2CH2SFeHSFeHFeH2FeNHC6H4C6H4C6H4CHSH2CH2CHCHFeCHSH3FeC6H6C3H2CH4CN2HC2HC2SH3C3HC2H11CH2NHC2H4C2H5SH4SH4NHC4SH4FeCFeS2FeS2FeSFeS3FeS2FeS2FeSFeS3FeS2CNH2FeSHSHSHFeS2FeSH2SH2SC7H4C7H3C6H4C6H4C6H5CH2CHC3H2C6H3C6H2C7H2CH6CFeHC2FeH5FeH2NCH9CNC2H9CNCHCHC2H3CHC2H4NC4H10SCH5CHCH4CNHCH4CFeH2CH2NCHCH3CHCSCS2H3SCSCH2C2H3FeH2NHCH3SH2CH2SH4FeSFeSH3SHFeS2FeS2FeSHFeS2Fe2S3FeS2HSHFeSFeS3H2SFeS2FeSHSFeS2FeS2FeSFeS3H2NH2CH2C6H4FeNH8C6H4C3H2CH4C3FeH3C2HC6H4NHCHC6H4C6H6C2HCH10C2NC4H13C3HC3SHCNH4SH6CHFeH4SNH3C2HC3HCHSH2C2H3NHC2H4NCH4CHCHCHCHCH5CH3NCH3CH2C2HC2HSFeHCS2FeS2FeS2FeSFeS3FeS2FeS2FeSFeS3HFeSH3CH2CH2CHFeSHSC4HCHC6H4C6H4C6H4C2H5C6H4CH4C3H3CSCH5C2H4SNHFeCH2NHNH3C2HCH2CNCNC4H13CHNH4C2H4C2H6CHSH3CHC2H3CNHS2HFeC3HCSH3CH5NH2CHCH3CSC2HFeS2FeS2FeSFeS3FeS2FeS2FeSFeS3NFeS2Fe2SHSC6HCHC6H4C6H4C6H6C3H5C6H7C2SHSC3H6C2H2CHCNC4H7SH2C2NH3CH7NH3CHSH2NH3CHCHCNC4H2C2HCH6NCHC4HCH3SH3CHCH2C2H3NH2SCH2CSH4SC3H4CH2SHCHCH2CH4CH2FeH2CHCHNHSH8CHCFeH5CH4CFeCH2NHFeSFeS2FeSFeHSHFeS2FeSCFeHFeS3FeS2FeSFeSFeSC2HSHFeSHSHCHCS4Fe2HC6H4CHS3C6H4C7H5C3H7C6H4C6HNC4H13CH3CHC2HNFeH3SNSHC3NH4CH3C2HCH2NCSHCHC2H4CH3CHC3H5C2H7CH5SCHN2H5CSH3CHFeH2CH7CSH4SCFeS2FeS2FeSFeS3FeHCFeS2H2FeSHSFeS3CFeS2H2FeS2FeS2HCHSH2C5H4CSCH3CHCH2CHSC7H4C6H4C6H5CHCH2CHC3HCHSHSHC3HCH2CHCS2CH8FeSCNH3CSH6CHC4SHCHFeHCHCH2NCH5C2SC2H3FeH3SCHC3H4CHFeCH3N2SH2NH3FeHCH3C2H3FeH2C2NHNSC5H3CHC2FeH3CH11NH5CHCHCH4FeS2FeS2FeSFeS3N3SHSCFeS2FeS2FeSFeS3CH2SH2FeS2FeS2FeSFeS3FeHSH2NC6H4C6H4C5H5C6H4C2NCHNH2C4H4C6H4C6H4C6H4C6H4C3FeC2H5CH6NC3H12CH2C2HCNCHC3H3CHCFeCH7CNCH5CHSCH4CH2CHCHSCH2C2H2CH5CH3CHCH3CHCHSCHCH2CNHCHC3H2NH2C2H7CH4CFeH3SCH6CFeHNH6SH4CHCHCH8CH3CH6CHCH3CH4FeHCHCS2NH3NSHCSH2Fe2S2FeS2FeS2FeSHFeSFeS3FeS2FeS2FeSFeS3HC2FeHSH2SC2SHSHC2SH2CHSH4C2HC3H2FeH5CHC6H4C6H4C6H4C6H4C6H4C5SH3CHNC4H13CH3CH3CHCH4FeNC2HC2H2C2H7NC4H13SH2SHCHSCHNHCH2N2C3H4CHCH3NC2SFeH6C2H5FeCS3FeSH2CFeSH2SCH2SH3FeS2FeS2FeSFeS3H3SHNCSFeSHSH3C6H4C2SHC6H3CH8SH2CFeHC7H4FeCHNH2FeC2SHC4HCHC2H7C2H2FeH2CH2CH3NHNHSHCSCH2C2H2FeCHSH5SC2H2NHC2HCH3CH3NH8C2H2C4H2CHFeSFeSCFeSFeS3NFeSFe2S2FeSFeS4HSHSH3CHSFeSCHFeS4HC6H4CSCHFeH2CHC3H2C6H4C6H4CH4CHC8H4C6H5C2H2C2HC2FeCH5CHCH2NH4CH3FeCHCHSH3NCSHNCSHSHFeCH4NH2CHNSC2HFeH2CHCH5CH2SCH2C2H4SH2SCH5SH2CSH5C2HFeS2H2FeS2HFeS2Fe3S4HSHS2HSFeSFeS2FeS2FeSFeS3HSCHCHSHC6HCH2C6H4C6H4SHCH2C6H4C6H4C6H4C7H4CSH2S2HSHC2HCHFeHSFeNC4H14CH4C2SHFeC3H3CNC4H12NC4H14NHCHNH6CHC2H2CNSH2C3HCFeH2CH3C4H3FeCFeH2SNH5C2H6NHFeCHFeHSHCHCHCNH7CHFeHSC2H2CHSHSFeHC2HSCNFeH3FeCHFeCSHSHSH6CSCH3SCH2CS2HSC2HNC2H5CHNH2C4SC2H3CH2CH3C7HFeH3SH2CFeSFeS2FeS2FeSFeS4FeS2H2Fe2S2H2FeSCSCS2H2SH3CH4CH2FeH2FeC2H5C6H4C7H4C6H2CHC6H4C6H4NC4H12CH2CH2CH4CHCHS2HCHSH3CH3NCH3CH2CNHCH5C3H3C2NCFeSH5CHCHSH6C2SH2NCH3FeHCH4CH3N2HSNHCHS2H2SC2HCH3CNHCS2FeSFeSHCH2SFe2SH6S2HNHCHFeC3S2H4CHC8H4CFeHCHSC2HCH2SC2H4CHSC3HCH5C2H3SC3HCH7NCSH3CHFeCFeSH4FeC2H5C3H2CH
_chemical_formula_sum              "H2304 S576 C1440 N144 Fe288"
_cell_length_a       69.386
_cell_length_b       69.8049
_cell_length_c       69.3002
_cell_angle_alpha    79.3049
_cell_angle_beta     79.3338
_cell_angle_gamma    79.108

_space_group_name_H-M_alt    "P 1"
_space_group_IT_number       1

loop_
  _space_group_symop_operation_xyz
  'x, y, z'

loop_
  _atom_site_type_symbol
  _atom_site_label
  _atom_site_symmetry_multiplicity
  _atom_site_fract_x
  _atom_site_fract_y
  _atom_site_fract_z
  _atom_site_occupancy
  H   H1        1.0  0.42607  0.99842  0.56309  1.0000
  H   H2        1.0  0.43792  0.09945  0.62112  1.0000
  S   S1        1.0  0.33062  0.01498  0.64199  1.0000
  C   C1        1.0  0.19184  0.16009  0.63954  1.0000
  C   C2        1.0  0.42252  0.07914  0.65577  1.0000
  C   C3        1.0  0.20158  0.15286  0.65602  1.0000
  C   C4        1.0  0.17518  0.17500  0.64065  1.0000
  N   N1        1.0  0.22705  0.20955  0.65893  1.0000
  H   H3        1.0  0.22819  0.18120  0.65027  1.0000
  H   H4        1.0  0.44842  0.16924  0.65855  1.0000
  H   H5        1.0  0.35768  0.03612  0.65396  1.0000
  S   S2        1.0  0.22293  0.13463  0.65355  1.0000
  H   H6        1.0  0.45666  0.08010  0.63018  1.0000
  H   H7        1.0  0.24970  0.21634  0.63421  1.0000
  H   H8        1.0  0.48139  0.04692  0.63845  1.0000
  H   H9        1.0  0.43083  0.06409  0.65400  1.0000
  C   C5        1.0  0.23323  0.21897  0.63835  1.0000
  H   H10       1.0  0.45837  0.10544  0.63023  1.0000
  Fe  Fe1       1.0  0.40589  0.99604  0.63256  1.0000
  S   S3        1.0  0.14759  0.20219  0.65863  1.0000
  H   H11       1.0  0.16781  0.18047  0.62778  1.0000
  H   H12       1.0  0.19722  0.15416  0.62582  1.0000
  H   H13       1.0  0.43459  0.12475  0.65290  1.0000
  C   C6        1.0  0.44430  0.02058  0.63897  1.0000
  C   C7        1.0  0.45887  0.03275  0.63156  1.0000
  C   C8        1.0  0.46999  0.03783  0.64439  1.0000
  H   H14       1.0  0.46172  0.03809  0.61578  1.0000
  H   H15       1.0  0.41201  0.08317  0.64479  1.0000
  H   H16       1.0  0.29574  0.04376  0.64927  1.0000
  C   C9        1.0  0.32711  0.03770  0.65083  1.0000
  Fe  Fe2       1.0  0.36127  0.99673  0.63920  1.0000
  H   H17       1.0  0.25065  0.18466  0.65768  1.0000
  S   S4        1.0  0.47771  0.13406  0.65811  1.0000
  S   S5        1.0  0.43105  0.01418  0.62219  1.0000
  H   H18       1.0  0.19809  0.20729  0.65343  1.0000
  H   H19       1.0  0.42436  0.99920  0.58903  1.0000
  H   H20       1.0  0.46191  0.00106  0.55889  1.0000
  C   C10       1.0  0.34285  0.04438  0.65620  1.0000
  C   C11       1.0  0.30797  0.04879  0.65350  1.0000
  N   N2        1.0  0.43617  0.09369  0.65293  1.0000
  S   S6        1.0  0.38408  0.99807  0.61153  1.0000
  H   H21       1.0  0.22687  0.21296  0.62752  1.0000
  H   H22       1.0  0.45983  0.00123  0.58508  1.0000
  C   C12       1.0  0.44776  0.09472  0.63269  1.0000
  H   H23       1.0  0.22817  0.23522  0.63647  1.0000
  C   C13       1.0  0.16809  0.18291  0.65823  1.0000
  H   H24       1.0  0.41367  0.11832  0.64519  1.0000
  C   C14       1.0  0.42466  0.11338  0.65563  1.0000
  C   C15       1.0  0.44082  0.01366  0.65938  1.0000
  S   S7        1.0  0.38262  0.99724  0.65975  1.0000
  Fe  Fe3       1.0  0.01473  0.12916  0.87260  1.0000
  H   H25       1.0  0.35929  0.12368  0.70112  1.0000
  S   S8        1.0  0.03026  0.15569  0.85922  1.0000
  Fe  Fe4       1.0  0.01294  0.08582  0.88963  1.0000
  S   S9        1.0  0.02879  0.05546  0.90148  1.0000
  S   S10       1.0  0.01945  0.10177  0.85851  1.0000
  C   C16       1.0  0.28790  0.17200  0.74818  1.0000
  H   H26       1.0  0.31989  0.16719  0.70810  1.0000
  H   H27       1.0  0.33880  0.14997  0.71943  1.0000
  H   H28       1.0  0.19208  0.19306  0.72380  1.0000
  Fe  Fe5       1.0  0.37565  0.21933  0.74044  1.0000
  Fe  Fe6       1.0  0.11712  0.20897  0.86771  1.0000
  S   S11       1.0  0.11699  0.21545  0.83496  1.0000
  S   S12       1.0  0.09919  0.18687  0.88782  1.0000
  Fe  Fe7       1.0  0.15005  0.20942  0.83177  1.0000
  S   S13       1.0  0.16948  0.19136  0.80988  1.0000
  S   S14       1.0  0.19679  0.23365  0.71086  1.0000
  S   S15       1.0  0.15027  0.20059  0.86437  1.0000
  H   H29       1.0  0.44531  0.23492  0.82297  1.0000
  S   S16       1.0  0.11273  0.23802  0.69457  1.0000
  H   H30       1.0  0.07933  0.15334  0.90334  1.0000
  Fe  Fe8       1.0  0.37943  0.18356  0.72012  1.0000
  S   S17       1.0  0.37160  0.18793  0.75220  1.0000
  H   H31       1.0  0.20608  0.16069  0.85436  1.0000
  H   H32       1.0  0.22266  0.15890  0.77014  1.0000
  H   H33       1.0  0.19680  0.04513  0.87492  1.0000
  H   H34       1.0  0.17618  0.04005  0.89386  1.0000
  Fe  Fe9       1.0  0.34058  0.19835  0.74576  1.0000
  S   S18       1.0  0.31355  0.18751  0.76429  1.0000
  Fe  Fe10      1.0  0.26624  0.15074  0.69513  1.0000
  S   S19       1.0  0.36997  0.21083  0.85265  1.0000
  S   S20       1.0  0.34371  0.23023  0.73701  1.0000
  H   H35       1.0  0.31626  0.14215  0.71687  1.0000
  S   S21       1.0  0.36644  0.19741  0.90041  1.0000
  C   C17       1.0  0.43129  0.13106  0.70355  1.0000
  Fe  Fe11      1.0  0.38192  0.21926  0.87753  1.0000
  S   S22       1.0  0.32430  0.22701  0.93301  1.0000
  Fe  Fe12      1.0  0.35163  0.19184  0.87606  1.0000
  S   S23       1.0  0.34695  0.16073  0.87444  1.0000
  S   S24       1.0  0.15093  0.20920  0.71278  1.0000
  S   S25       1.0  0.32565  0.21603  0.88011  1.0000
  C   C18       1.0  0.33939  0.06185  0.66451  1.0000
  S   S26       1.0  0.11446  0.01374  0.86563  1.0000
  H   H36       1.0  0.32200  0.14502  0.83704  1.0000
  Fe  Fe13      1.0  0.24338  0.06750  0.88861  1.0000
  S   S27       1.0  0.23554  0.06913  0.85841  1.0000
  S   S28       1.0  0.23492  0.04187  0.91176  1.0000
  Fe  Fe14      1.0  0.25330  0.10983  0.87974  1.0000
  S   S29       1.0  0.24490  0.11474  0.84932  1.0000
  S   S30       1.0  0.26054  0.13716  0.88846  1.0000
  Fe  Fe15      1.0  0.21923  0.09904  0.86316  1.0000
  S   S31       1.0  0.18709  0.10691  0.85955  1.0000
  Fe  Fe16      1.0  0.26211  0.08444  0.84762  1.0000
  S   S32       1.0  0.28330  0.08154  0.81933  1.0000
  S   S33       1.0  0.22571  0.09698  0.89392  1.0000
  S   S34       1.0  0.27199  0.08005  0.87748  1.0000
  H   H37       1.0  0.20115  0.15456  0.68678  1.0000
  H   H38       1.0  0.36603  0.21420  0.78614  1.0000
  S   S35       1.0  0.28000  0.12378  0.71365  1.0000
  Fe  Fe17      1.0  0.24994  0.11480  0.71896  1.0000
  S   S36       1.0  0.23287  0.10601  0.74903  1.0000
  S   S37       1.0  0.38995  0.23733  0.75567  1.0000
  H   H39       1.0  0.45906  0.11271  0.69514  1.0000
  C   C19       1.0  0.26952  0.08827  0.79961  1.0000
  C   C20       1.0  0.24881  0.09294  0.80356  1.0000
  C   C21       1.0  0.23771  0.09834  0.78792  1.0000
  C   C22       1.0  0.24727  0.09922  0.76823  1.0000
  C   C23       1.0  0.26800  0.09463  0.76420  1.0000
  C   C24       1.0  0.27914  0.08915  0.77991  1.0000
  H   H40       1.0  0.24123  0.09217  0.81866  1.0000
  H   H41       1.0  0.22168  0.10179  0.79109  1.0000
  H   H42       1.0  0.27541  0.09482  0.74905  1.0000
  H   H43       1.0  0.29513  0.08538  0.77680  1.0000
  C   C25       1.0  0.29829  0.20245  0.73011  1.0000
  H   H44       1.0  0.28967  0.07464  0.66396  1.0000
  H   H45       1.0  0.41616  0.17736  0.68029  1.0000
  C   C26       1.0  0.23432  0.01836  0.88420  1.0000
  C   C27       1.0  0.22537  0.02438  0.90235  1.0000
  C   C28       1.0  0.20902  0.01595  0.91328  1.0000
  H   H46       1.0  0.33082  0.02310  0.72111  1.0000
  H   H47       1.0  0.30748  0.15281  0.96757  1.0000
  H   H48       1.0  0.24707  0.02457  0.87579  1.0000
  H   H49       1.0  0.20204  0.02059  0.92734  1.0000
  C   C29       1.0  0.36387  0.22902  0.78962  1.0000
  C   C30       1.0  0.32290  0.15444  0.87695  1.0000
  C   C31       1.0  0.30587  0.16882  0.87735  1.0000
  C   C32       1.0  0.28692  0.16329  0.88070  1.0000
  C   C33       1.0  0.28475  0.14338  0.88299  1.0000
  C   C34       1.0  0.30178  0.12897  0.88186  1.0000
  C   C35       1.0  0.32076  0.13448  0.87908  1.0000
  H   H50       1.0  0.30723  0.18424  0.87527  1.0000
  H   H51       1.0  0.27385  0.17456  0.88143  1.0000
  H   H52       1.0  0.30030  0.11354  0.88376  1.0000
  H   H53       1.0  0.33383  0.12322  0.87878  1.0000
  C   C36       1.0  0.29826  0.18769  0.74680  1.0000
  H   H54       1.0  0.18115  0.17355  0.74026  1.0000
  H   H55       1.0  0.28871  0.16208  0.95191  1.0000
  H   H56       1.0  0.20628  0.19337  0.77307  1.0000
  Fe  Fe18      1.0  0.16494  0.23638  0.70746  1.0000
  C   C37       1.0  0.19749  0.19277  0.76135  1.0000
  Fe  Fe19      1.0  0.49872  0.10517  0.66379  1.0000
  H   H57       1.0  0.40266  0.21488  0.79741  1.0000
  H   H58       1.0  0.17202  0.18118  0.68863  1.0000
  H   H59       1.0  0.01865  0.18827  0.89073  1.0000
  H   H60       1.0  0.23196  0.21057  0.68844  1.0000
  C   C38       1.0  0.45595  0.14026  0.67515  1.0000
  H   H61       1.0  0.34959  0.16610  0.92909  1.0000
  C   C39       1.0  0.20163  0.00165  0.90602  1.0000
  C   C40       1.0  0.32659  0.13216  0.82887  1.0000
  S   S38       1.0  0.01064  0.11285  0.90389  1.0000
  H   H62       1.0  0.33429  0.99817  0.73405  1.0000
  H   H63       1.0  0.30622  0.21466  0.72898  1.0000
  C   C41       1.0  0.22745  0.00357  0.87735  1.0000
  H   H64       1.0  0.28690  0.14037  0.83899  1.0000
  C   C42       1.0  0.45201  0.01868  0.67220  1.0000
  C   C43       1.0  0.01332  0.02129  0.84317  1.0000
  H   H65       1.0  0.35881  0.15602  0.66537  1.0000
  S   S39       1.0  0.27347  0.13793  0.66697  1.0000
  C   C44       1.0  0.42552  0.16326  0.68356  1.0000
  H   H66       1.0  0.42664  0.20022  0.79869  1.0000
  H   H67       1.0  0.28940  0.21226  0.70128  1.0000
  C   C45       1.0  0.17381  0.16705  0.82202  1.0000
  C   C46       1.0  0.19223  0.15518  0.81774  1.0000
  C   C47       1.0  0.19632  0.13638  0.82895  1.0000
  C   C48       1.0  0.18178  0.12936  0.84404  1.0000
  C   C49       1.0  0.16304  0.14085  0.84757  1.0000
  C   C50       1.0  0.15918  0.15985  0.83681  1.0000
  H   H68       1.0  0.20358  0.16078  0.80634  1.0000
  H   H69       1.0  0.21070  0.12736  0.82596  1.0000
  H   H70       1.0  0.15179  0.13543  0.85926  1.0000
  H   H71       1.0  0.14497  0.16903  0.84022  1.0000
  H   H72       1.0  0.19197  0.19083  0.86762  1.0000
  C   C51       1.0  0.32756  0.15161  0.70940  1.0000
  H   H73       1.0  0.21198  0.13795  0.87047  1.0000
  H   H74       1.0  0.27111  0.15806  0.73319  1.0000
  H   H75       1.0  0.21198  0.18863  0.88123  1.0000
  H   H76       1.0  0.05269  0.14048  0.89243  1.0000
  S   S40       1.0  0.23578  0.14326  0.70302  1.0000
  H   H77       1.0  0.28792  0.16050  0.76097  1.0000
  H   H78       1.0  0.28086  0.12674  0.82184  1.0000
  C   C52       1.0  0.30536  0.01789  0.69842  1.0000
  C   C53       1.0  0.05300  0.04447  0.89184  1.0000
  C   C54       1.0  0.06026  0.02500  0.89993  1.0000
  C   C55       1.0  0.07910  0.01542  0.89221  1.0000
  C   C56       1.0  0.09084  0.02522  0.87621  1.0000
  C   C57       1.0  0.08358  0.04469  0.86810  1.0000
  C   C58       1.0  0.06480  0.05432  0.87592  1.0000
  H   H79       1.0  0.05126  0.01727  0.91228  1.0000
  H   H80       1.0  0.31013  0.01319  0.73667  1.0000
  H   H81       1.0  0.09256  0.05239  0.85572  1.0000
  H   H82       1.0  0.05944  0.06932  0.86959  1.0000
  C   C59       1.0  0.04980  0.16357  0.86731  1.0000
  C   C60       1.0  0.05694  0.18067  0.85665  1.0000
  C   C61       1.0  0.07223  0.18779  0.86261  1.0000
  C   C62       1.0  0.08038  0.17799  0.87948  1.0000
  C   C63       1.0  0.07312  0.16099  0.89025  1.0000
  C   C64       1.0  0.05798  0.15370  0.88413  1.0000
  H   H83       1.0  0.05043  0.18858  0.84384  1.0000
  H   H84       1.0  0.07739  0.20111  0.85442  1.0000
  C   C65       1.0  0.02900  0.04628  0.85101  1.0000
  N   N3        1.0  0.10484  0.17571  0.80362  1.0000
  C   C66       1.0  0.10116  0.16139  0.79200  1.0000
  C   C67       1.0  0.08802  0.19224  0.80405  1.0000
  C   C68       1.0  0.12342  0.18332  0.79415  1.0000
  C   C69       1.0  0.10671  0.16583  0.82416  1.0000
  H   H85       1.0  0.09963  0.16845  0.77642  1.0000
  H   H86       1.0  0.08723  0.15536  0.79866  1.0000
  H   H87       1.0  0.11357  0.14872  0.79129  1.0000
  H   H88       1.0  0.09051  0.20376  0.81205  1.0000
  H   H89       1.0  0.08578  0.19961  0.78877  1.0000
  H   H90       1.0  0.02482  0.00929  0.84899  1.0000
  H   H91       1.0  0.13655  0.17138  0.79420  1.0000
  H   H92       1.0  0.12639  0.19473  0.80195  1.0000
  H   H93       1.0  0.12268  0.19034  0.77846  1.0000
  H   H94       1.0  0.10918  0.17626  0.83345  1.0000
  H   H95       1.0  0.11942  0.15343  0.82445  1.0000
  H   H96       1.0  0.09302  0.15974  0.83166  1.0000
  N   N4        1.0  0.19856  0.16244  0.88557  1.0000
  C   C70       1.0  0.19725  0.18418  0.88197  1.0000
  C   C71       1.0  0.20692  0.15418  0.90405  1.0000
  C   C72       1.0  0.17860  0.15709  0.88751  1.0000
  H   H97       1.0  0.18677  0.19115  0.89388  1.0000
  H   H98       1.0  0.19726  0.15982  0.91716  1.0000
  H   H99       1.0  0.22193  0.15807  0.90319  1.0000
  H   H100      1.0  0.20862  0.13776  0.90689  1.0000
  H   H101      1.0  0.16805  0.16353  0.89969  1.0000
  H   H102      1.0  0.17910  0.14076  0.89053  1.0000
  H   H103      1.0  0.17222  0.16245  0.87356  1.0000
  N   N5        1.0  0.31859  0.16386  0.93728  1.0000
  C   C73       1.0  0.31219  0.17950  0.92121  1.0000
  C   C74       1.0  0.30317  0.16443  0.95509  1.0000
  C   C75       1.0  0.33748  0.16721  0.94204  1.0000
  C   C76       1.0  0.32153  0.14442  0.93063  1.0000
  H   H104      1.0  0.32371  0.17965  0.90773  1.0000
  H   H105      1.0  0.30957  0.19440  0.92567  1.0000
  H   H106      1.0  0.29817  0.17733  0.91691  1.0000
  H   H107      1.0  0.40908  0.20261  0.82108  1.0000
  H   H108      1.0  0.02726  0.05891  0.85922  1.0000
  H   H109      1.0  0.30071  0.17899  0.96035  1.0000
  H   H110      1.0  0.34242  0.15618  0.95466  1.0000
  H   H111      1.0  0.33606  0.18222  0.94609  1.0000
  H   H112      1.0  0.32608  0.13215  0.94245  1.0000
  H   H113      1.0  0.30228  0.01339  0.68481  1.0000
  H   H114      1.0  0.30772  0.14165  0.92631  1.0000
  C   C77       1.0  0.41907  0.14934  0.69958  1.0000
  H   H115      1.0  0.01839  0.02555  0.82698  1.0000
  C   C78       1.0  0.29257  0.12793  0.83039  1.0000
  H   H116      1.0  0.30318  0.16237  0.81039  1.0000
  C   C79       1.0  0.23566  0.21795  0.67285  1.0000
  Fe  Fe20      1.0  0.35351  0.22289  0.70629  1.0000
  H   H117      1.0  0.49556  0.03316  0.73279  1.0000
  H   H118      1.0  0.29444  0.11406  0.84128  1.0000
  H   H119      1.0  0.18903  0.99529  0.91452  1.0000
  C   C80       1.0  0.27858  0.17050  0.73233  1.0000
  Fe  Fe21      1.0  0.24360  0.12831  0.67625  1.0000
  H   H120      1.0  0.17113  0.01422  0.87573  1.0000
  H   H121      1.0  0.19115  0.01997  0.85633  1.0000
  C   C81       1.0  0.43954  0.22200  0.82019  1.0000
  H   H122      1.0  0.30705  0.11248  0.79692  1.0000
  C   C82       1.0  0.34706  0.12569  0.69218  1.0000
  C   C83       1.0  0.21154  0.15418  0.86866  1.0000
  C   C84       1.0  0.20515  0.21324  0.66375  1.0000
  H   H123      1.0  0.22705  0.15698  0.86725  1.0000
  C   C85       1.0  0.17495  0.02410  0.86149  1.0000
  C   C86       1.0  0.18041  0.04893  0.87912  1.0000
  H   H124      1.0  0.36324  0.15849  0.68945  1.0000
  H   H125      1.0  0.32918  0.11865  0.84006  1.0000
  H   H126      1.0  0.17721  0.06480  0.88099  1.0000
  H   H127      1.0  0.29665  0.14879  0.79365  1.0000
  H   H128      1.0  0.13443  0.23116  0.76560  1.0000
  N   N6        1.0  0.16975  0.04515  0.86395  1.0000
  H   H129      1.0  0.16680  0.02062  0.85049  1.0000
  Fe  Fe22      1.0  0.28492  0.10988  0.68597  1.0000
  H   H130      1.0  0.19924  0.15334  0.76720  1.0000
  S   S41       1.0  0.48042  0.03662  0.68143  1.0000
  H   H131      1.0  0.44933  0.01310  0.68794  1.0000
  H   H132      1.0  0.01557  0.15349  0.90452  1.0000
  H   H133      1.0  0.34412  0.17537  0.67806  1.0000
  H   H134      1.0  0.16789  0.05522  0.83298  1.0000
  H   H135      1.0  0.14355  0.06562  0.87252  1.0000
  C   C87       1.0  0.44380  0.15863  0.67126  1.0000
  H   H136      1.0  0.23679  0.18659  0.74799  1.0000
  H   H137      1.0  0.19994  0.20621  0.67915  1.0000
  C   C88       1.0  0.17556  0.05768  0.84485  1.0000
  N   N7        1.0  0.31926  0.00240  0.70873  1.0000
  C   C89       1.0  0.14807  0.04990  0.87034  1.0000
  H   H138      1.0  0.23521  0.17608  0.72668  1.0000
  C   C90       1.0  0.22683  0.18597  0.73731  1.0000
  C   C91       1.0  0.41497  0.21071  0.80640  1.0000
  S   S42       1.0  0.31640  0.09431  0.67841  1.0000
  H   H139      1.0  0.43485  0.21342  0.83502  1.0000
  H   H140      1.0  0.18311  0.18826  0.76903  1.0000
  H   H141      1.0  0.22390  0.20107  0.72870  1.0000
  H   H142      1.0  0.19187  0.05453  0.83972  1.0000
  H   H143      1.0  0.17186  0.07367  0.84623  1.0000
  H   H144      1.0  0.14314  0.04050  0.88459  1.0000
  H   H145      1.0  0.13956  0.04724  0.85920  1.0000
  C   C92       1.0  0.21292  0.15903  0.75903  1.0000
  C   C93       1.0  0.00468  0.15884  0.91709  1.0000
  N   N8        1.0  0.31139  0.13078  0.81703  1.0000
  N   N9        1.0  0.20820  0.17901  0.74766  1.0000
  C   C94       1.0  0.35140  0.15963  0.68021  1.0000
  H   H146      1.0  0.19409  0.20807  0.75329  1.0000
  H   H147      1.0  0.20285  0.16780  0.72256  1.0000
  S   S43       1.0  0.39513  0.15323  0.71373  1.0000
  C   C95       1.0  0.28873  0.20112  0.71443  1.0000
  H   H148      1.0  0.22082  0.14823  0.74908  1.0000
  C   C96       1.0  0.19553  0.17832  0.73292  1.0000
  H   H149      1.0  0.45209  0.21249  0.81230  1.0000
  S   S44       1.0  0.25558  0.09868  0.69271  1.0000
  C   C97       1.0  0.27942  0.18484  0.71527  1.0000
  C   C98       1.0  0.32383  0.00952  0.72592  1.0000
  N   N10       1.0  0.01019  0.03838  0.85381  1.0000
  S   S45       1.0  0.34790  0.19173  0.71468  1.0000
  Fe  Fe23      1.0  0.12327  0.22877  0.72410  1.0000
  C   C99       1.0  0.00372  0.03206  0.87525  1.0000
  H   H150      1.0  0.44187  0.08684  0.68317  1.0000
  H   H151      1.0  0.23498  0.99850  0.86364  1.0000
  H   H152      1.0  0.03416  0.05163  0.83508  1.0000
  C   C100      1.0  0.00759  0.19276  0.90362  1.0000
  H   H153      1.0  0.04107  0.03491  0.85669  1.0000
  N   N11       1.0  0.33686  0.14639  0.68970  1.0000
  C   C101      1.0  0.19431  0.16052  0.67377  1.0000
  H   H154      1.0  0.34479  0.22227  0.81745  1.0000
  S   S46       1.0  0.10196  0.22052  0.75154  1.0000
  Fe  Fe24      1.0  0.15142  0.23243  0.86459  1.0000
  C   C102      1.0  0.17764  0.17556  0.67486  1.0000
  H   H155      1.0  0.34106  0.13410  0.81928  1.0000
  H   H156      1.0  0.08452  0.00045  0.89860  1.0000
  H   H157      1.0  0.01610  0.19375  0.91544  1.0000
  H   H158      1.0  0.33244  0.11539  0.79587  1.0000
  H   H159      1.0  0.41649  0.11346  0.67106  1.0000
  H   H160      1.0  0.42643  0.12026  0.71596  1.0000
  C   C103      1.0  0.21113  0.99515  0.88819  1.0000
  C   C104      1.0  0.33781  0.99784  0.69483  1.0000
  C   C105      1.0  0.31822  0.11386  0.80606  1.0000
  H   H161      1.0  0.32048  0.09964  0.81640  1.0000
  H   H162      1.0  0.45870  0.07269  0.66618  1.0000
  Fe  Fe25      1.0  0.34126  0.22261  0.90303  1.0000
  H   H163      1.0  0.01562  0.02150  0.88218  1.0000
  H   H164      1.0  0.35347  0.12090  0.67756  1.0000
  S   S47       1.0  0.27040  0.18182  0.69427  1.0000
  H   H165      1.0  0.33331  0.14351  0.91734  1.0000
  H   H166      1.0  0.34496  0.01119  0.68904  1.0000
  H   H167      1.0  0.31156  0.03192  0.69363  1.0000
  S   S48       1.0  0.17574  0.23856  0.87926  1.0000
  H   H168      1.0  0.32202  0.15170  0.79227  1.0000
  S   S49       1.0  0.11805  0.24039  0.87104  1.0000
  H   H169      1.0  0.33656  0.11541  0.69989  1.0000
  N   N12       1.0  0.42283  0.22828  0.80872  1.0000
  C   C106      1.0  0.30816  0.14919  0.80275  1.0000
  H   H170      1.0  0.46068  0.09792  0.66561  1.0000
  H   H171      1.0  0.22941  0.18047  0.67600  1.0000
  C   C107      1.0  0.44979  0.12670  0.69165  1.0000
  S   S50       1.0  0.41398  0.22475  0.87210  1.0000
  S   S51       1.0  0.49399  0.08401  0.69200  1.0000
  H   H172      1.0  0.41359  0.07801  0.67093  1.0000
  H   H173      1.0  0.01314  0.15905  0.92919  1.0000
  Fe  Fe26      1.0  0.14213  0.22091  0.68281  1.0000
  H   H174      1.0  0.29089  0.02130  0.70816  1.0000
  H   H175      1.0  0.07387  0.18709  0.81154  1.0000
  S   S52       1.0  0.38607  0.21436  0.70877  1.0000
  C   C108      1.0  0.32135  0.14862  0.67706  1.0000
  H   H176      1.0  0.25216  0.21608  0.66926  1.0000
  H   H177      1.0  0.00003  0.04486  0.88351  1.0000
  H   H178      1.0  0.31066  0.13825  0.68337  1.0000
  H   H179      1.0  0.35161  0.06690  0.66870  1.0000
  C   C109      1.0  0.32020  0.07277  0.66747  1.0000
  S   S53       1.0  0.15375  0.24053  0.83152  1.0000
  C   C110      1.0  0.10247  0.23562  0.76895  1.0000
  C   C111      1.0  0.40696  0.24149  0.81944  1.0000
  H   H180      1.0  0.31271  0.16387  0.67562  1.0000
  C   C112      1.0  0.12064  0.23825  0.77322  1.0000
  C   C113      1.0  0.35194  0.23355  0.80735  1.0000
  C   C114      1.0  0.44991  0.08751  0.66765  1.0000
  Fe  Fe27      1.0  0.34489  0.23532  0.85881  1.0000
  H   H181      1.0  0.22995  0.23399  0.67258  1.0000
  H   H182      1.0  0.40153  0.23402  0.83453  1.0000
  H   H183      1.0  0.42968  0.00425  0.66529  1.0000
  H   H184      1.0  0.19933  0.22930  0.66277  1.0000
  C   C115      1.0  0.46666  0.03073  0.66477  1.0000
  S   S54       1.0  0.34255  0.24112  0.67893  1.0000
  H   H185      1.0  0.45027  0.24114  0.86403  1.0000
  C   C116      1.0  0.42202  0.24220  0.88335  1.0000
  C   C117      1.0  0.23414  0.18805  0.66075  1.0000
  H   H186      1.0  0.32782  0.14535  0.66186  1.0000
  C   C118      1.0  0.30449  0.06624  0.66188  1.0000
  H   H187      1.0  0.07061  0.24238  0.77590  1.0000
  H   H188      1.0  0.44144  0.22928  0.78015  1.0000
  H   H189      1.0  0.99974  0.20782  0.89871  1.0000
  C   C119      1.0  0.42979  0.23893  0.78889  1.0000
  H   H190      1.0  0.99939  0.01502  0.84481  1.0000
  H   H191      1.0  0.99913  0.05930  0.82973  1.0000
  H   H192      1.0  0.00586  0.46535  0.31741  1.0000
  Fe  Fe28      1.0  0.02461  0.34139  0.63240  1.0000
  S   S55       1.0  0.02694  0.35984  0.60206  1.0000
  S   S56       1.0  0.04252  0.31100  0.63826  1.0000
  Fe  Fe29      1.0  0.02756  0.38471  0.61867  1.0000
  S   S57       1.0  0.05179  0.40414  0.60901  1.0000
  H   H193      1.0  0.00510  0.44430  0.33686  1.0000
  H   H194      1.0  0.04825  0.46799  0.63395  1.0000
  H   H195      1.0  0.06818  0.36369  0.60321  1.0000
  H   H196      1.0  0.29731  0.29490  0.64780  1.0000
  H   H197      1.0  0.06886  0.36076  0.62926  1.0000
  H   H198      1.0  0.07241  0.33932  0.61723  1.0000
  H   H199      1.0  0.11694  0.37658  0.60629  1.0000
  C   C120      1.0  0.07577  0.35460  0.61545  1.0000
  H   H200      1.0  0.10319  0.33186  0.59337  1.0000
  H   H201      1.0  0.09876  0.35641  0.57979  1.0000
  H   H202      1.0  0.08716  0.48276  0.61748  1.0000
  C   C121      1.0  0.07649  0.48377  0.60701  1.0000
  H   H203      1.0  0.26403  0.37511  0.64163  1.0000
  C   C122      1.0  0.05996  0.41591  0.62599  1.0000
  C   C123      1.0  0.08362  0.43499  0.63265  1.0000
  C   C124      1.0  0.07679  0.42532  0.61968  1.0000
  H   H204      1.0  0.09660  0.44209  0.62760  1.0000
  H   H205      1.0  0.08458  0.42518  0.60465  1.0000
  H   H206      1.0  0.10432  0.32696  0.62962  1.0000
  H   H207      1.0  0.21522  0.37370  0.62734  1.0000
  H   H208      1.0  0.21892  0.38882  0.64416  1.0000
  H   H209      1.0  0.10092  0.34804  0.64202  1.0000
  H   H210      1.0  0.23642  0.38629  0.62185  1.0000
  H   H211      1.0  0.07596  0.46851  0.60485  1.0000
  C   C125      1.0  0.10691  0.34254  0.62766  1.0000
  Fe  Fe30      1.0  0.14902  0.46952  0.65110  1.0000
  H   H212      1.0  0.04136  0.47859  0.59952  1.0000
  S   S58       1.0  0.12698  0.46632  0.63222  1.0000
  H   H213      1.0  0.21318  0.34580  0.65504  1.0000
  C   C126      1.0  0.10575  0.34732  0.59244  1.0000
  S   S59       1.0  0.02710  0.36559  0.64834  1.0000
  C   C127      1.0  0.05010  0.41620  0.64549  1.0000
  H   H214      1.0  0.12205  0.34737  0.58875  1.0000
  N   N13       1.0  0.23843  0.36087  0.64479  1.0000
  N   N14       1.0  0.09735  0.35500  0.61124  1.0000
  H   H215      1.0  0.12325  0.34235  0.62496  1.0000
  C   C128      1.0  0.22677  0.37815  0.63402  1.0000
  H   H216      1.0  0.09363  0.38540  0.59726  1.0000
  H   H217      1.0  0.25743  0.33381  0.63883  1.0000
  C   C129      1.0  0.10083  0.37557  0.60942  1.0000
  H   H218      1.0  0.03708  0.40910  0.65058  1.0000
  C   C130      1.0  0.05677  0.42611  0.65836  1.0000
  H   H219      1.0  0.25880  0.35403  0.61864  1.0000
  H   H220      1.0  0.09441  0.38186  0.62332  1.0000
  H   H221      1.0  0.23758  0.34146  0.62433  1.0000
  C   C131      1.0  0.24848  0.34696  0.63098  1.0000
  H   H222      1.0  0.07202  0.27702  0.64535  1.0000
  S   S60       1.0  0.17952  0.45079  0.65069  1.0000
  H   H223      1.0  0.05974  0.48312  0.64519  1.0000
  C   C132      1.0  0.04944  0.48356  0.63449  1.0000
  C   C133      1.0  0.07347  0.43569  0.65200  1.0000
  H   H224      1.0  0.03455  0.49087  0.64082  1.0000
  H   H225      1.0  0.32592  0.26790  0.64821  1.0000
  C   C134      1.0  0.06289  0.30691  0.65124  1.0000
  C   C135      1.0  0.07519  0.28848  0.65234  1.0000
  C   C136      1.0  0.25353  0.36755  0.65337  1.0000
  H   H226      1.0  0.08286  0.49177  0.59248  1.0000
  Fe  Fe31      1.0  0.10509  0.46818  0.66017  1.0000
  C   C137      1.0  0.06712  0.32159  0.66037  1.0000
  H   H227      1.0  0.05768  0.33575  0.65988  1.0000
  H   H228      1.0  0.27372  0.27084  0.77878  1.0000
  C   C138      1.0  0.08467  0.24448  0.77914  1.0000
  S   S61       1.0  0.13826  0.25500  0.72185  1.0000
  H   H229      1.0  0.29619  0.43623  0.95172  1.0000
  H   H230      1.0  0.19154  0.29943  0.95502  1.0000
  H   H231      1.0  0.15719  0.29465  0.69644  1.0000
  H   H232      1.0  0.35587  0.28217  0.80208  1.0000
  S   S62       1.0  0.15781  0.24718  0.67677  1.0000
  S   S63       1.0  0.10365  0.26991  0.81839  1.0000
  C   C139      1.0  0.01660  0.34019  0.70682  1.0000
  Fe  Fe32      1.0  0.47331  0.29846  0.90159  1.0000
  S   S64       1.0  0.33466  0.25829  0.83416  1.0000
  S   S65       1.0  0.44536  0.28458  0.91414  1.0000
  C   C140      1.0  0.31634  0.28923  0.77584  1.0000
  S   S66       1.0  0.46855  0.36720  0.86591  1.0000
  H   H233      1.0  0.40442  0.45415  0.82807  1.0000
  H   H234      1.0  0.28200  0.28087  0.79741  1.0000
  H   H235      1.0  0.41595  0.37112  0.91782  1.0000
  N   N15       1.0  0.01178  0.32108  0.70448  1.0000
  C   C141      1.0  0.42926  0.33983  0.89863  1.0000
  S   S67       1.0  0.12747  0.46960  0.67967  1.0000
  H   H236      1.0  0.39699  0.36705  0.90541  1.0000
  C   C142      1.0  0.00680  0.32258  0.68438  1.0000
  H   H237      1.0  0.15134  0.30875  0.84227  1.0000
  Fe  Fe33      1.0  0.22824  0.32932  0.86793  1.0000
  S   S68       1.0  0.25246  0.30353  0.87277  1.0000
  S   S69       1.0  0.19720  0.32504  0.86557  1.0000
  Fe  Fe34      1.0  0.25510  0.35961  0.87008  1.0000
  S   S70       1.0  0.28065  0.33568  0.87587  1.0000
  S   S71       1.0  0.26084  0.39131  0.86411  1.0000
  Fe  Fe35      1.0  0.27227  0.32274  0.85194  1.0000
  S   S72       1.0  0.29579  0.31436  0.82677  1.0000
  Fe  Fe36      1.0  0.25790  0.31938  0.89605  1.0000
  S   S73       1.0  0.25992  0.30402  0.92709  1.0000
  S   S74       1.0  0.24768  0.34740  0.84499  1.0000
  S   S75       1.0  0.23269  0.34441  0.89242  1.0000
  Fe  Fe37      1.0  0.21191  0.35014  0.71489  1.0000
  S   S76       1.0  0.21419  0.34560  0.74738  1.0000
  H   H238      1.0  0.26518  0.46855  0.96900  1.0000
  Fe  Fe38      1.0  0.25048  0.32145  0.70538  1.0000
  S   S77       1.0  0.25586  0.31405  0.73702  1.0000
  C   C143      1.0  0.42624  0.33372  0.93444  1.0000
  Fe  Fe39      1.0  0.22304  0.31363  0.74448  1.0000
  S   S78       1.0  0.20742  0.29141  0.76622  1.0000
  Fe  Fe40      1.0  0.24665  0.34668  0.73706  1.0000
  S   S79       1.0  0.26533  0.36297  0.74928  1.0000
  S   S80       1.0  0.21847  0.31790  0.71276  1.0000
  S   S81       1.0  0.24366  0.35428  0.70479  1.0000
  Fe  Fe41      1.0  0.38066  0.44221  0.90687  1.0000
  S   S82       1.0  0.35318  0.44392  0.92969  1.0000
  S   S83       1.0  0.40957  0.42659  0.91668  1.0000
  Fe  Fe42      1.0  0.35916  0.46690  0.87445  1.0000
  C   C144      1.0  0.21763  0.25626  0.72432  1.0000
  H   H239      1.0  0.19465  0.31042  0.91034  1.0000
  H   H240      1.0  0.43431  0.31835  0.93416  1.0000
  Fe  Fe43      1.0  0.33774  0.43833  0.90585  1.0000
  S   S84       1.0  0.31645  0.41605  0.91581  1.0000
  S   S85       1.0  0.37616  0.47483  0.89562  1.0000
  S   S86       1.0  0.36589  0.43401  0.88410  1.0000
  C   C145      1.0  0.44810  0.26080  0.88527  1.0000
  H   H241      1.0  0.29979  0.29144  0.74314  1.0000
  H   H242      1.0  0.43749  0.34325  0.93421  1.0000
  S   S87       1.0  0.47715  0.31230  0.86968  1.0000
  H   H243      1.0  0.17184  0.24599  0.74623  1.0000
  C   C146      1.0  0.30214  0.40898  0.90040  1.0000
  C   C147      1.0  0.29392  0.39154  0.90689  1.0000
  C   C148      1.0  0.28168  0.38578  0.89564  1.0000
  C   C149      1.0  0.27713  0.39767  0.87797  1.0000
  C   C150      1.0  0.28531  0.41516  0.87145  1.0000
  C   C151      1.0  0.29794  0.42072  0.88251  1.0000
  H   H244      1.0  0.29697  0.38245  0.92078  1.0000
  H   H245      1.0  0.27537  0.37237  0.90092  1.0000
  H   H246      1.0  0.28185  0.42448  0.85782  1.0000
  H   H247      1.0  0.30410  0.43423  0.87737  1.0000
  C   C152      1.0  0.28771  0.32669  0.80466  1.0000
  C   C153      1.0  0.26855  0.32617  0.80131  1.0000
  C   C154      1.0  0.26187  0.33675  0.78387  1.0000
  C   C155      1.0  0.27412  0.34837  0.77018  1.0000
  C   C156      1.0  0.29325  0.34891  0.77357  1.0000
  C   C157      1.0  0.30017  0.33781  0.79066  1.0000
  H   H248      1.0  0.25888  0.31760  0.81217  1.0000
  H   H249      1.0  0.24703  0.33639  0.78130  1.0000
  H   H250      1.0  0.30272  0.35788  0.76294  1.0000
  H   H251      1.0  0.31496  0.33828  0.79328  1.0000
  H   H252      1.0  0.41709  0.45593  0.87719  1.0000
  H   H253      1.0  0.39396  0.24618  0.81146  1.0000
  C   C158      1.0  0.18049  0.42750  0.66596  1.0000
  H   H254      1.0  0.37474  0.48689  0.94189  1.0000
  C   C159      1.0  0.31181  0.25512  0.78107  1.0000
  H   H255      1.0  0.12560  0.31422  0.74024  1.0000
  H   H256      1.0  0.21374  0.39138  0.68799  1.0000
  H   H257      1.0  0.33219  0.28547  0.76919  1.0000
  H   H258      1.0  0.32489  0.33405  0.87137  1.0000
  H   H259      1.0  0.31096  0.30471  0.76934  1.0000
  C   C160      1.0  0.28839  0.27583  0.91102  1.0000
  C   C161      1.0  0.27767  0.28253  0.92833  1.0000
  C   C162      1.0  0.28101  0.27193  0.94694  1.0000
  C   C163      1.0  0.34906  0.25271  0.81183  1.0000
  H   H260      1.0  0.43924  0.46657  0.86780  1.0000
  H   H261      1.0  0.28562  0.28381  0.89663  1.0000
  H   H262      1.0  0.27274  0.27710  0.96035  1.0000
  C   C164      1.0  0.44095  0.24750  0.87632  1.0000
  C   C165      1.0  0.40038  0.32764  0.91842  1.0000
  H   H263      1.0  0.23553  0.27194  0.92698  1.0000
  H   H264      1.0  0.21305  0.31307  0.92454  1.0000
  C   C166      1.0  0.29363  0.28008  0.69777  1.0000
  C   C167      1.0  0.31002  0.26454  0.69799  1.0000
  H   H265      1.0  0.29077  0.45804  0.91014  1.0000
  C   C168      1.0  0.28333  0.28106  0.78110  1.0000
  C   C169      1.0  0.45202  0.38322  0.88044  1.0000
  C   C170      1.0  0.45537  0.38507  0.89923  1.0000
  C   C171      1.0  0.44228  0.39854  0.91019  1.0000
  C   C172      1.0  0.42547  0.40971  0.90269  1.0000
  C   C173      1.0  0.42176  0.40733  0.88420  1.0000
  C   C174      1.0  0.43521  0.39437  0.87294  1.0000
  H   H266      1.0  0.46835  0.37654  0.90506  1.0000
  H   H267      1.0  0.44518  0.40032  0.92453  1.0000
  H   H268      1.0  0.40871  0.41569  0.87847  1.0000
  H   H269      1.0  0.43252  0.39281  0.85846  1.0000
  C   C175      1.0  0.43652  0.26869  0.90161  1.0000
  C   C176      1.0  0.08501  0.25609  0.79353  1.0000
  C   C177      1.0  0.41749  0.26355  0.90851  1.0000
  H   H270      1.0  0.00293  0.30853  0.68199  1.0000
  H   H271      1.0  0.40846  0.26941  0.92123  1.0000
  C   C178      1.0  0.18153  0.26271  0.87382  1.0000
  C   C179      1.0  0.20147  0.26547  0.86935  1.0000
  C   C180      1.0  0.20648  0.28452  0.86650  1.0000
  C   C181      1.0  0.19159  0.30091  0.86854  1.0000
  C   C182      1.0  0.17166  0.29812  0.87309  1.0000
  C   C183      1.0  0.16660  0.27913  0.87545  1.0000
  H   H272      1.0  0.04879  0.42655  0.67329  1.0000
  H   H273      1.0  0.22187  0.28647  0.86265  1.0000
  H   H274      1.0  0.16006  0.31069  0.87496  1.0000
  H   H275      1.0  0.15119  0.27711  0.87922  1.0000
  H   H276      1.0  0.17173  0.28580  0.71611  1.0000
  H   H277      1.0  0.27512  0.44187  0.92547  1.0000
  C   C184      1.0  0.18795  0.26490  0.75623  1.0000
  C   C185      1.0  0.20519  0.27354  0.75249  1.0000
  C   C186      1.0  0.22005  0.26911  0.73664  1.0000
  C   C187      1.0  0.40511  0.36112  0.91823  1.0000
  C   C188      1.0  0.26315  0.46343  0.95532  1.0000
  H   H278      1.0  0.29786  0.48667  0.92306  1.0000
  C   C189      1.0  0.10315  0.25838  0.79812  1.0000
  H   H279      1.0  0.22064  0.26072  0.94868  1.0000
  H   H280      1.0  0.04236  0.30865  0.69603  1.0000
  H   H281      1.0  0.21140  0.26635  0.90706  1.0000
  S   S88       1.0  0.11744  0.29555  0.68264  1.0000
  H   H282      1.0  0.43629  0.32443  0.89690  1.0000
  S   S89       1.0  0.26883  0.31072  0.67799  1.0000
  C   C190      1.0  0.37071  0.26259  0.78132  1.0000
  S   S90       1.0  0.36275  0.47905  0.84174  1.0000
  S   S91       1.0  0.08042  0.44917  0.66832  1.0000
  C   C191      1.0  0.44068  0.46226  0.82937  1.0000
  H   H283      1.0  0.41611  0.33385  0.94889  1.0000
  C   C192      1.0  0.02911  0.30539  0.70711  1.0000
  H   H284      1.0  0.18577  0.27727  0.91184  1.0000
  H   H285      1.0  0.41799  0.43399  0.84298  1.0000
  N   N16       1.0  0.42323  0.46287  0.84525  1.0000
  C   C193      1.0  0.30074  0.28653  0.66186  1.0000
  H   H286      1.0  0.03326  0.30374  0.72217  1.0000
  H   H287      1.0  0.31349  0.25588  0.71188  1.0000
  C   C194      1.0  0.42990  0.45644  0.86485  1.0000
  C   C195      1.0  0.19906  0.27051  0.91904  1.0000
  Fe  Fe44      1.0  0.34732  0.47594  0.91661  1.0000
  H   H288      1.0  0.23323  0.33749  0.66918  1.0000
  C   C196      1.0  0.19865  0.41752  0.67156  1.0000
  C   C197      1.0  0.08369  0.31790  0.67029  1.0000
  N   N17       1.0  0.41523  0.34058  0.91743  1.0000
  C   C198      1.0  0.28904  0.29113  0.67962  1.0000
  N   N18       1.0  0.16029  0.30278  0.81240  1.0000
  C   C199      1.0  0.15642  0.31639  0.82716  1.0000
  C   C200      1.0  0.17732  0.28719  0.81658  1.0000
  C   C201      1.0  0.16487  0.31392  0.79225  1.0000
  C   C202      1.0  0.14248  0.29360  0.81361  1.0000
  H   H289      1.0  0.14455  0.32908  0.82369  1.0000
  H   H290      1.0  0.17002  0.32243  0.82783  1.0000
  H   H291      1.0  0.34822  0.30890  0.88970  1.0000
  H   H292      1.0  0.18071  0.27670  0.80564  1.0000
  H   H293      1.0  0.19107  0.29356  0.81576  1.0000
  H   H294      1.0  0.17437  0.27846  0.83169  1.0000
  H   H295      1.0  0.16712  0.30417  0.78076  1.0000
  H   H296      1.0  0.17876  0.32032  0.79054  1.0000
  H   H297      1.0  0.15265  0.32624  0.78883  1.0000
  H   H298      1.0  0.14487  0.28301  0.80287  1.0000
  H   H299      1.0  0.12929  0.30480  0.81042  1.0000
  H   H300      1.0  0.13842  0.28520  0.82868  1.0000
  H   H301      1.0  0.21744  0.36066  0.67179  1.0000
  C   C203      1.0  0.16351  0.41854  0.67214  1.0000
  S   S92       1.0  0.32976  0.47059  0.89435  1.0000
  C   C204      1.0  0.18528  0.25243  0.74355  1.0000
  H   H302      1.0  0.17646  0.26824  0.76854  1.0000
  H   H303      1.0  0.39423  0.36228  0.93212  1.0000
  H   H304      1.0  0.32101  0.27223  0.74315  1.0000
  C   C205      1.0  0.16474  0.39961  0.68358  1.0000
  H   H305      1.0  0.38951  0.32784  0.93240  1.0000
  H   H306      1.0  0.40765  0.31200  0.91799  1.0000
  N   N19       1.0  0.25584  0.39876  0.80357  1.0000
  C   C206      1.0  0.25343  0.40046  0.78253  1.0000
  C   C207      1.0  0.27105  0.38152  0.80857  1.0000
  C   C208      1.0  0.23669  0.39615  0.81644  1.0000
  C   C209      1.0  0.26218  0.41682  0.80681  1.0000
  H   H307      1.0  0.24249  0.41363  0.77798  1.0000
  H   H308      1.0  0.24808  0.38726  0.77982  1.0000
  H   H309      1.0  0.26774  0.40161  0.77234  1.0000
  H   H310      1.0  0.26662  0.36763  0.80652  1.0000
  H   H311      1.0  0.28563  0.38281  0.79895  1.0000
  H   H312      1.0  0.27340  0.37982  0.82431  1.0000
  H   H313      1.0  0.22486  0.40891  0.81309  1.0000
  H   H314      1.0  0.23795  0.39475  0.83245  1.0000
  H   H315      1.0  0.23151  0.38258  0.81445  1.0000
  H   H316      1.0  0.26413  0.41585  0.82262  1.0000
  H   H317      1.0  0.25102  0.43016  0.80330  1.0000
  H   H318      1.0  0.27659  0.41923  0.79735  1.0000
  N   N20       1.0  0.15235  0.31347  0.71877  1.0000
  H   H319      1.0  0.39199  0.33229  0.90568  1.0000
  H   H320      1.0  0.42188  0.34622  0.88541  1.0000
  N   N21       1.0  0.20444  0.28424  0.93028  1.0000
  C   C210      1.0  0.22499  0.35076  0.66088  1.0000
  H   H321      1.0  0.07122  0.26267  0.80162  1.0000
  C   C211      1.0  0.18798  0.28891  0.94642  1.0000
  S   S93       1.0  0.35771  0.24480  0.88222  1.0000
  H   H322      1.0  0.10139  0.27065  0.66253  1.0000
  H   H323      1.0  0.41229  0.25497  0.82138  1.0000
  H   H324      1.0  0.31583  0.28886  0.79210  1.0000
  C   C212      1.0  0.41014  0.44949  0.84250  1.0000
  C   C213      1.0  0.31697  0.27120  0.66209  1.0000
  H   H325      1.0  0.43609  0.25212  0.79005  1.0000
  H   H326      1.0  0.26006  0.44798  0.95963  1.0000
  H   H327      1.0  0.39689  0.44954  0.85430  1.0000
  C   C214      1.0  0.41020  0.25051  0.89935  1.0000
  C   C215      1.0  0.35814  0.26733  0.79866  1.0000
  H   H328      1.0  0.02933  0.34448  0.69552  1.0000
  H   H329      1.0  0.27711  0.29624  0.77450  1.0000
  C   C216      1.0  0.29526  0.25480  0.94829  1.0000
  H   H330      1.0  0.44151  0.34817  0.89808  1.0000
  Fe  Fe45      1.0  0.12944  0.26325  0.69147  1.0000
  C   C217      1.0  0.13581  0.30401  0.73093  1.0000
  H   H331      1.0  0.22915  0.25299  0.71199  1.0000
  H   H332      1.0  0.13546  0.32716  0.69534  1.0000
  H   H333      1.0  0.01951  0.32606  0.67272  1.0000
  S   S94       1.0  0.47859  0.32503  0.91314  1.0000
  C   C218      1.0  0.32177  0.26016  0.68005  1.0000
  H   H334      1.0  0.31105  0.25359  0.89899  1.0000
  H   H335      1.0  0.26254  0.35485  0.66172  1.0000
  H   H336      1.0  0.17404  0.29583  0.94040  1.0000
  C   C219      1.0  0.19979  0.39875  0.68341  1.0000
  N   N22       1.0  0.30422  0.27542  0.77210  1.0000
  H   H337      1.0  0.26460  0.46662  0.91574  1.0000
  H   H338      1.0  0.29648  0.26601  0.74705  1.0000
  C   C220      1.0  0.18285  0.38967  0.68926  1.0000
  C   C221      1.0  0.14428  0.33113  0.70550  1.0000
  H   H339      1.0  0.14138  0.29054  0.74103  1.0000
  H   H340      1.0  0.17600  0.32722  0.72323  1.0000
  H   H341      1.0  0.36119  0.28775  0.87884  1.0000
  H   H342      1.0  0.21177  0.42450  0.66696  1.0000
  C   C222      1.0  0.32369  0.29580  0.87126  1.0000
  H   H343      1.0  0.34415  0.33684  0.85029  1.0000
  H   H344      1.0  0.31634  0.30062  0.88565  1.0000
  H   H345      1.0  0.17817  0.30599  0.69741  1.0000
  H   H346      1.0  0.43884  0.44135  0.86591  1.0000
  H   H347      1.0  0.14945  0.42613  0.66789  1.0000
  C   C223      1.0  0.29829  0.45199  0.94761  1.0000
  C   C224      1.0  0.35495  0.30369  0.87533  1.0000
  H   H348      1.0  0.36761  0.31170  0.86863  1.0000
  C   C225      1.0  0.30541  0.27632  0.75043  1.0000
  H   H349      1.0  0.32094  0.33084  0.84734  1.0000
  C   C226      1.0  0.20814  0.30265  0.91677  1.0000
  C   C227      1.0  0.34959  0.29958  0.84298  1.0000
  H   H350      1.0  0.46279  0.26455  0.87981  1.0000
  H   H351      1.0  0.36150  0.30805  0.83493  1.0000
  H   H352      1.0  0.44930  0.44705  0.82967  1.0000
  C   C228      1.0  0.28453  0.48525  0.93462  1.0000
  H   H353      1.0  0.33850  0.30081  0.83285  1.0000
  C   C229      1.0  0.16544  0.29937  0.70663  1.0000
  C   C230      1.0  0.22261  0.27495  0.93884  1.0000
  H   H354      1.0  0.17089  0.30638  0.74164  1.0000
  N   N23       1.0  0.34012  0.30679  0.86178  1.0000
  C   C231      1.0  0.16388  0.31940  0.73197  1.0000
  H   H355      1.0  0.18487  0.27538  0.95702  1.0000
  H   H356      1.0  0.22688  0.28475  0.94779  1.0000
  C   C232      1.0  0.33220  0.32808  0.85753  1.0000
  H   H357      1.0  0.30155  0.45697  0.96085  1.0000
  H   H358      1.0  0.00378  0.35233  0.70497  1.0000
  S   S95       1.0  0.18388  0.36558  0.70292  1.0000
  H   H359      1.0  0.35637  0.28374  0.84571  1.0000
  H   H360      1.0  0.31213  0.29787  0.86155  1.0000
  N   N24       1.0  0.28088  0.46457  0.93989  1.0000
  Fe  Fe46      1.0  0.12054  0.24599  0.83770  1.0000
  C   C233      1.0  0.41217  0.48326  0.84421  1.0000
  H   H361      1.0  0.32898  0.27966  0.87417  1.0000
  H   H362      1.0  0.15155  0.39273  0.68810  1.0000
  H   H363      1.0  0.23344  0.27567  0.73377  1.0000
  H   H364      1.0  0.28449  0.28340  0.71152  1.0000
  H   H365      1.0  0.15639  0.33868  0.69614  1.0000
  H   H366      1.0  0.13442  0.34217  0.71411  1.0000
  C   C234      1.0  0.30276  0.25872  0.91237  1.0000
  H   H367      1.0  0.37814  0.27376  0.77134  1.0000
  H   H368      1.0  0.15440  0.32974  0.74162  1.0000
  H   H369      1.0  0.12674  0.29943  0.72139  1.0000
  H   H370      1.0  0.43613  0.46706  0.81440  1.0000
  C   C235      1.0  0.30625  0.24826  0.93103  1.0000
  C   C236      1.0  0.27762  0.45754  0.92205  1.0000
  H   H371      1.0  0.02605  0.29083  0.70515  1.0000
  Fe  Fe47      1.0  0.48395  0.33816  0.88075  1.0000
  H   H372      1.0  0.22000  0.29958  0.90409  1.0000
  H   H373      1.0  0.24970  0.47276  0.94999  1.0000
  C   C237      1.0  0.20009  0.24829  0.72749  1.0000
  H   H374      1.0  0.24652  0.37813  0.66383  1.0000
  H   H375      1.0  0.31175  0.45238  0.93618  1.0000
  H   H376      1.0  0.21311  0.25283  0.86807  1.0000
  C   C238      1.0  0.09179  0.28480  0.66219  1.0000
  C   C239      1.0  0.09615  0.29953  0.67109  1.0000
  H   H377      1.0  0.31103  0.25390  0.79746  1.0000
  H   H378      1.0  0.30320  0.24419  0.77837  1.0000
  H   H379      1.0  0.02050  0.33967  0.72180  1.0000
  H   H380      1.0  0.28742  0.49090  0.94766  1.0000
  H   H381      1.0  0.39899  0.48427  0.85608  1.0000
  H   H382      1.0  0.40642  0.48839  0.82982  1.0000
  H   H383      1.0  0.32762  0.25052  0.77476  1.0000
  H   H384      1.0  0.08692  0.32930  0.67730  1.0000
  H   H385      1.0  0.29797  0.24678  0.96273  1.0000
  H   H386      1.0  0.45094  0.47214  0.83101  1.0000
  H   H387      1.0  0.39569  0.24644  0.90506  1.0000
  C   C240      1.0  0.12098  0.24937  0.78802  1.0000
  H   H388      1.0  0.19565  0.25661  0.92879  1.0000
  H   H389      1.0  0.13504  0.25070  0.79184  1.0000
  C   C241      1.0  0.37357  0.24343  0.77681  1.0000
  H   H390      1.0  0.41741  0.24413  0.78001  1.0000
  Fe  Fe48      1.0  0.12005  0.65070  0.26716  1.0000
  S   S96       1.0  0.14631  0.66090  0.27426  1.0000
  S   S97       1.0  0.09022  0.65205  0.28655  1.0000
  Fe  Fe49      1.0  0.13997  0.64437  0.22576  1.0000
  S   S98       1.0  0.16789  0.65433  0.22868  1.0000
  S   S99       1.0  0.13626  0.63215  0.19923  1.0000
  C   C242      1.0  0.32152  0.63410  0.31218  1.0000
  Fe  Fe50      1.0  0.14783  0.67821  0.24359  1.0000
  S   S100      1.0  0.15519  0.70890  0.23774  1.0000
  S   S101      1.0  0.13788  0.62408  0.25497  1.0000
  S   S102      1.0  0.12004  0.67023  0.23747  1.0000
  S   S103      1.0  0.46604  0.60198  0.17007  1.0000
  H   H391      1.0  0.05975  0.59843  0.24055  1.0000
  Fe  Fe51      1.0  0.39920  0.67420  0.23200  1.0000
  S   S104      1.0  0.38323  0.70170  0.21576  1.0000
  S   S105      1.0  0.43243  0.66936  0.22287  1.0000
  Fe  Fe52      1.0  0.36108  0.66141  0.25492  1.0000
  S   S106      1.0  0.34207  0.68746  0.24021  1.0000
  S   S107      1.0  0.34552  0.63862  0.27620  1.0000
  Fe  Fe53      1.0  0.36265  0.68208  0.21233  1.0000
  S   S108      1.0  0.35088  0.68690  0.18364  1.0000
  Fe  Fe54      1.0  0.36416  0.70486  0.24512  1.0000
  N   N25       1.0  0.18954  0.73762  0.30568  1.0000
  S   S109      1.0  0.37982  0.65418  0.22624  1.0000
  S   S110      1.0  0.38195  0.67916  0.26215  1.0000
  Fe  Fe55      1.0  0.40006  0.58383  0.01965  1.0000
  S   S111      1.0  0.38291  0.61301  0.00744  1.0000
  S   S112      1.0  0.41822  0.57737  0.04511  1.0000
  H   H392      1.0  0.21531  0.61618  0.30109  1.0000
  C   C243      1.0  0.33424  0.73448  0.20290  1.0000
  H   H393      1.0  0.37193  0.55212  0.09145  1.0000
  Fe  Fe56      1.0  0.35773  0.59587  0.01145  1.0000
  S   S113      1.0  0.32575  0.60703  0.02267  1.0000
  S   S114      1.0  0.37407  0.56730  0.02537  1.0000
  Fe  Fe57      1.0  0.28042  0.65152  0.11841  1.0000
  S   S115      1.0  0.27863  0.67417  0.13786  1.0000
  S   S116      1.0  0.30988  0.65031  0.09791  1.0000
  Fe  Fe58      1.0  0.23949  0.64238  0.13806  1.0000
  S   S117      1.0  0.23466  0.66446  0.15888  1.0000
  S   S118      1.0  0.21716  0.62243  0.13940  1.0000
  Fe  Fe59      1.0  0.24746  0.68393  0.13200  1.0000
  S   S119      1.0  0.23700  0.71650  0.12500  1.0000
  Fe  Fe60      1.0  0.26615  0.65273  0.16295  1.0000
  S   S120      1.0  0.27502  0.64661  0.19347  1.0000
  S   S121      1.0  0.24989  0.66295  0.11051  1.0000
  S   S122      1.0  0.27037  0.62893  0.14413  1.0000
  H   H394      1.0  0.23765  0.59722  0.19013  1.0000
  H   H395      1.0  0.24871  0.70097  0.16333  1.0000
  C   C244      1.0  0.32101  0.61989  0.04302  1.0000
  C   C245      1.0  0.30264  0.62028  0.05557  1.0000
  C   C246      1.0  0.29887  0.62980  0.07239  1.0000
  C   C247      1.0  0.31339  0.63923  0.07647  1.0000
  C   C248      1.0  0.33149  0.63939  0.06354  1.0000
  C   C249      1.0  0.33539  0.62960  0.04694  1.0000
  H   H396      1.0  0.29143  0.61285  0.05253  1.0000
  H   H397      1.0  0.28483  0.62967  0.08227  1.0000
  H   H398      1.0  0.34263  0.64694  0.06651  1.0000
  H   H399      1.0  0.34946  0.62963  0.03718  1.0000
  H   H400      1.0  0.09486  0.61680  0.21417  1.0000
  H   H401      1.0  0.42044  0.67405  0.13677  1.0000
  H   H402      1.0  0.40739  0.64902  0.18836  1.0000
  H   H403      1.0  0.36571  0.61463  0.07305  1.0000
  C   C250      1.0  0.32921  0.67641  0.18780  1.0000
  C   C251      1.0  0.32740  0.65906  0.20140  1.0000
  C   C252      1.0  0.31043  0.65012  0.20364  1.0000
  C   C253      1.0  0.29521  0.65874  0.19253  1.0000
  C   C254      1.0  0.29656  0.67673  0.17997  1.0000
  C   C255      1.0  0.31366  0.68540  0.17732  1.0000
  H   H404      1.0  0.33935  0.65216  0.20967  1.0000
  H   H405      1.0  0.30945  0.63620  0.21340  1.0000
  H   H406      1.0  0.28434  0.68407  0.17240  1.0000
  H   H407      1.0  0.31473  0.69918  0.16735  1.0000
  C   C256      1.0  0.45095  0.61931  0.06625  1.0000
  C   C257      1.0  0.45055  0.59998  0.07618  1.0000
  C   C258      1.0  0.44052  0.58734  0.06944  1.0000
  C   C259      1.0  0.43074  0.59388  0.05278  1.0000
  C   C260      1.0  0.43098  0.61325  0.04296  1.0000
  C   C261      1.0  0.44106  0.62588  0.04968  1.0000
  Fe  Fe61      1.0  0.16430  0.63625  0.25894  1.0000
  S   S123      1.0  0.46361  0.63569  0.07398  1.0000
  H   H408      1.0  0.42352  0.61849  0.03013  1.0000
  H   H409      1.0  0.44128  0.64081  0.04192  1.0000
  C   C262      1.0  0.44169  0.65038  0.20856  1.0000
  C   C263      1.0  0.43490  0.63219  0.21357  1.0000
  C   C264      1.0  0.44275  0.61720  0.20193  1.0000
  C   C265      1.0  0.45728  0.62042  0.18520  1.0000
  C   C266      1.0  0.46398  0.63865  0.18020  1.0000
  C   C267      1.0  0.45620  0.65356  0.19188  1.0000
  H   H410      1.0  0.42380  0.62958  0.22655  1.0000
  H   H411      1.0  0.43752  0.60312  0.20586  1.0000
  H   H412      1.0  0.46110  0.66775  0.18779  1.0000
  C   C268      1.0  0.15833  0.63032  0.18198  1.0000
  C   C269      1.0  0.17080  0.64459  0.17869  1.0000
  C   C270      1.0  0.18865  0.64261  0.16526  1.0000
  C   C271      1.0  0.19427  0.62619  0.15533  1.0000
  C   C272      1.0  0.18162  0.61211  0.15847  1.0000
  C   C273      1.0  0.16364  0.61424  0.17162  1.0000
  H   H413      1.0  0.16644  0.65741  0.18611  1.0000
  H   H414      1.0  0.19781  0.65395  0.16238  1.0000
  H   H415      1.0  0.18577  0.59947  0.15074  1.0000
  H   H416      1.0  0.15401  0.60324  0.17399  1.0000
  C   C274      1.0  0.11962  0.72579  0.28721  1.0000
  C   C275      1.0  0.12886  0.71477  0.27197  1.0000
  C   C276      1.0  0.14423  0.72153  0.25769  1.0000
  Fe  Fe62      1.0  0.48345  0.62719  0.09802  1.0000
  H   H417      1.0  0.10743  0.72080  0.29794  1.0000
  H   H418      1.0  0.12369  0.70135  0.27103  1.0000
  H   H419      1.0  0.39572  0.73354  0.29886  1.0000
  N   N26       1.0  0.28353  0.65555  0.26632  1.0000
  C   C277      1.0  0.29280  0.63463  0.26669  1.0000
  C   C278      1.0  0.29816  0.66837  0.25598  1.0000
  C   C279      1.0  0.27708  0.65966  0.28691  1.0000
  H   H420      1.0  0.48823  0.68552  0.18766  1.0000
  H   H421      1.0  0.22934  0.64199  0.31187  1.0000
  C   C280      1.0  0.18278  0.73860  0.05674  1.0000
  H   H422      1.0  0.31122  0.66585  0.26386  1.0000
  H   H423      1.0  0.29166  0.68429  0.25517  1.0000
  H   H424      1.0  0.35461  0.57501  0.11496  1.0000
  H   H425      1.0  0.26556  0.65074  0.29509  1.0000
  H   H426      1.0  0.28971  0.65634  0.29542  1.0000
  H   H427      1.0  0.22583  0.62067  0.17907  1.0000
  C   C281      1.0  0.42265  0.63611  0.15382  1.0000
  H   H428      1.0  0.39326  0.56459  0.08612  1.0000
  H   H429      1.0  0.06925  0.64388  0.25550  1.0000
  C   C282      1.0  0.08329  0.60525  0.26441  1.0000
  H   H430      1.0  0.24889  0.61888  0.18794  1.0000
  H   H431      1.0  0.05808  0.62241  0.22542  1.0000
  H   H432      1.0  0.43715  0.64139  0.15180  1.0000
  H   H433      1.0  0.42142  0.66677  0.17290  1.0000
  H   H434      1.0  0.48236  0.58195  0.04796  1.0000
  H   H435      1.0  0.18435  0.70746  0.31221  1.0000
  H   H436      1.0  0.00093  0.73293  0.12572  1.0000
  H   H437      1.0  0.20104  0.71531  0.08588  1.0000
  H   H438      1.0  0.17099  0.72281  0.29362  1.0000
  C   C283      1.0  0.22159  0.64570  0.29918  1.0000
  S   S124      1.0  0.47658  0.64183  0.12524  1.0000
  H   H439      1.0  0.19311  0.72592  0.23504  1.0000
  C   C284      1.0  0.09284  0.59730  0.31951  1.0000
  H   H440      1.0  0.35748  0.72998  0.32417  1.0000
  H   H441      1.0  0.22095  0.71406  0.19834  1.0000
  H   H442      1.0  0.27139  0.73549  0.10166  1.0000
  H   H443      1.0  0.05505  0.64580  0.31380  1.0000
  C   C285      1.0  0.20564  0.72195  0.19692  1.0000
  C   C286      1.0  0.37846  0.56473  0.08198  1.0000
  H   H444      1.0  0.45783  0.59483  0.08912  1.0000
  C   C287      1.0  0.21919  0.66504  0.28892  1.0000
  H   H445      1.0  0.42258  0.62379  0.16660  1.0000
  H   H446      1.0  0.38595  0.63282  0.17412  1.0000
  H   H447      1.0  0.25508  0.64981  0.26291  1.0000
  H   H448      1.0  0.30607  0.63116  0.27439  1.0000
  H   H449      1.0  0.33265  0.64784  0.99765  1.0000
  H   H450      1.0  0.34254  0.73352  0.30486  1.0000
  S   S125      1.0  0.35023  0.73503  0.25211  1.0000
  C   C288      1.0  0.09835  0.61393  0.30624  1.0000
  C   C289      1.0  0.20766  0.73249  0.31511  1.0000
  H   H451      1.0  0.16994  0.74094  0.21058  1.0000
  H   H452      1.0  0.17448  0.74246  0.09557  1.0000
  C   C290      1.0  0.33239  0.64683  0.29816  1.0000
  H   H453      1.0  0.49475  0.60431  0.06519  1.0000
  H   H454      1.0  0.27074  0.67550  0.28718  1.0000
  H   H455      1.0  0.30379  0.66544  0.24052  1.0000
  C   C291      1.0  0.33203  0.66608  0.30150  1.0000
  H   H456      1.0  0.30050  0.73264  0.13131  1.0000
  H   H457      1.0  0.19712  0.71446  0.28770  1.0000
  H   H458      1.0  0.34789  0.58222  0.06174  1.0000
  C   C292      1.0  0.37704  0.73408  0.27700  1.0000
  H   H459      1.0  0.19242  0.65948  0.25472  1.0000
  H   H460      1.0  0.07908  0.64627  0.22932  1.0000
  C   C293      1.0  0.34606  0.58350  0.07779  1.0000
  H   H461      1.0  0.34033  0.67600  0.29069  1.0000
  C   C294      1.0  0.34226  0.72984  0.32123  1.0000
  S   S126      1.0  0.22893  0.68352  0.29593  1.0000
  H   H462      1.0  0.20725  0.68475  0.26462  1.0000
  N   N27       1.0  0.30217  0.72372  0.10279  1.0000
  C   C295      1.0  0.20915  0.66980  0.27256  1.0000
  H   H463      1.0  0.07176  0.61107  0.27633  1.0000
  C   C296      1.0  0.20080  0.65542  0.26688  1.0000
  C   C297      1.0  0.08097  0.63740  0.24413  1.0000
  N   N28       1.0  0.08032  0.61630  0.24453  1.0000
  H   H464      1.0  0.37704  0.59844  0.05532  1.0000
  N   N29       1.0  0.36527  0.58378  0.08400  1.0000
  H   H465      1.0  0.04849  0.62003  0.25156  1.0000
  H   H466      1.0  0.28513  0.71487  0.13108  1.0000
  C   C298      1.0  0.20302  0.63608  0.27710  1.0000
  N   N30       1.0  0.22344  0.61700  0.21085  1.0000
  C   C299      1.0  0.23570  0.60745  0.22638  1.0000
  C   C300      1.0  0.21899  0.63850  0.21117  1.0000
  C   C301      1.0  0.20466  0.60886  0.21469  1.0000
  C   C302      1.0  0.23446  0.61326  0.19116  1.0000
  H   H467      1.0  0.23943  0.59121  0.22654  1.0000
  H   H468      1.0  0.22773  0.60992  0.24146  1.0000
  H   H469      1.0  0.24990  0.61344  0.22394  1.0000
  H   H470      1.0  0.21139  0.64175  0.22609  1.0000
  H   H471      1.0  0.23280  0.64523  0.20764  1.0000
  H   H472      1.0  0.20918  0.64612  0.20010  1.0000
  H   H473      1.0  0.19512  0.61566  0.20314  1.0000
  H   H474      1.0  0.19587  0.61161  0.22936  1.0000
  H   H475      1.0  0.20743  0.59264  0.21471  1.0000
  H   H476      1.0  0.37389  0.65618  0.16303  1.0000
  H   H477      1.0  0.47519  0.64125  0.16736  1.0000
  H   H478      1.0  0.09797  0.60646  0.26797  1.0000
  H   H479      1.0  0.38134  0.71852  0.27607  1.0000
  H   H480      1.0  0.09543  0.63942  0.24749  1.0000
  H   H481      1.0  0.42232  0.62979  0.14030  1.0000
  C   C303      1.0  0.40743  0.66053  0.17492  1.0000
  S   S127      1.0  0.19142  0.61865  0.27042  1.0000
  C   C304      1.0  0.25089  0.71621  0.15947  1.0000
  C   C305      1.0  0.24525  0.72760  0.14196  1.0000
  C   C306      1.0  0.21375  0.63110  0.29304  1.0000
  H   H482      1.0  0.33405  0.71782  0.09938  1.0000
  C   C307      1.0  0.32180  0.72972  0.09496  1.0000
  H   H483      1.0  0.33541  0.59726  0.08007  1.0000
  N   N31       1.0  0.40582  0.65222  0.15727  1.0000
  C   C308      1.0  0.40628  0.66791  0.13972  1.0000
  H   H484      1.0  0.39483  0.67256  0.17816  1.0000
  H   H485      1.0  0.33889  0.57090  0.08639  1.0000
  H   H486      1.0  0.19503  0.71177  0.20466  1.0000
  H   H487      1.0  0.48930  0.65573  0.21326  1.0000
  H   H488      1.0  0.40508  0.66220  0.12609  1.0000
  H   H489      1.0  0.28586  0.70127  0.09999  1.0000
  H   H490      1.0  0.11122  0.60965  0.23223  1.0000
  H   H491      1.0  0.44031  0.57241  0.07720  1.0000
  H   H492      1.0  0.39382  0.68036  0.14193  1.0000
  H   H493      1.0  0.35187  0.60123  0.10695  1.0000
  H   H494      1.0  0.27067  0.65723  0.23994  1.0000
  C   C309      1.0  0.09626  0.60845  0.22933  1.0000
  H   H495      1.0  0.25845  0.67509  0.25583  1.0000
  H   H496      1.0  0.33599  0.72994  0.21877  1.0000
  H   H497      1.0  0.37600  0.58728  0.11010  1.0000
  H   H498      1.0  0.38533  0.63765  0.14779  1.0000
  C   C310      1.0  0.38693  0.64435  0.16066  1.0000
  C   C311      1.0  0.29974  0.71945  0.12473  1.0000
  H   H499      1.0  0.31985  0.73066  0.20115  1.0000
  H   H500      1.0  0.33909  0.71446  0.32583  1.0000
  C   C312      1.0  0.06079  0.61419  0.24031  1.0000
  H   H501      1.0  0.49588  0.66943  0.16920  1.0000
  H   H502      1.0  0.26427  0.71551  0.18537  1.0000
  H   H503      1.0  0.38970  0.60011  0.07507  1.0000
  H   H504      1.0  0.09614  0.59261  0.22897  1.0000
  H   H505      1.0  0.08268  0.58927  0.26546  1.0000
  H   H506      1.0  0.29788  0.63104  0.25139  1.0000
  C   C313      1.0  0.25980  0.72439  0.17189  1.0000
  C   C314      1.0  0.26619  0.65959  0.25574  1.0000
  C   C315      1.0  0.37480  0.59997  0.07133  1.0000
  C   C316      1.0  0.20350  0.73605  0.22665  1.0000
  H   H507      1.0  0.32099  0.68723  0.32165  1.0000
  C   C317      1.0  0.20938  0.72666  0.07627  1.0000
  H   H508      1.0  0.49010  0.57088  0.08227  1.0000
  C   C318      1.0  0.36180  0.58695  0.10495  1.0000
  H   H509      1.0  0.38131  0.56186  0.06636  1.0000
  H   H510      1.0  0.28225  0.62452  0.27463  1.0000
  H   H511      1.0  0.22067  0.72615  0.30491  1.0000
  H   H512      1.0  0.03680  0.73649  0.11992  1.0000
  H   H513      1.0  0.21898  0.71963  0.06391  1.0000
  H   H514      1.0  0.10337  0.58375  0.32112  1.0000
  Fe  Fe63      1.0  0.48573  0.61172  0.14164  1.0000
  H   H515      1.0  0.32419  0.73305  0.07842  1.0000
  H   H516      1.0  0.32178  0.61921  0.30965  1.0000
  H   H517      1.0  0.31132  0.70722  0.12998  1.0000
  C   C319      1.0  0.08465  0.63140  0.30403  1.0000
  H   H518      1.0  0.20433  0.72473  0.18082  1.0000
  H   H519      1.0  0.19155  0.73212  0.04366  1.0000
  C   C320      1.0  0.38510  0.74255  0.28992  1.0000
  H   H520      1.0  0.11309  0.61319  0.29764  1.0000
  C   C321      1.0  0.15047  0.73910  0.25886  1.0000
  H   H521      1.0  0.49855  0.56042  0.04047  1.0000
  C   C322      1.0  0.06569  0.63231  0.31540  1.0000
  H   H522      1.0  0.17367  0.72758  0.06570  1.0000
  C   C323      1.0  0.30076  0.70581  0.09490  1.0000
  N   N32       1.0  0.20152  0.74055  0.20533  1.0000
  C   C324      1.0  0.18530  0.71984  0.29954  1.0000
  H   H523      1.0  0.09610  0.73190  0.24377  1.0000
  H   H524      1.0  0.30317  0.70822  0.07836  1.0000
  S   S128      1.0  0.49031  0.59666  0.11471  1.0000
  C   C325      1.0  0.32107  0.67244  0.31899  1.0000
  C   C326      1.0  0.28635  0.73988  0.09661  1.0000
  H   H525      1.0  0.31194  0.69301  0.09989  1.0000
  H   H526      1.0  0.21881  0.72877  0.22886  1.0000
  H   H527      1.0  0.34631  0.72531  0.19412  1.0000
  H   H528      1.0  0.21930  0.73049  0.08545  1.0000
  H   H529      1.0  0.49879  0.63946  0.19523  1.0000
  C   C327      1.0  0.49807  0.57599  0.04242  1.0000
  Fe  Fe64      1.0  0.38346  0.56037  0.99426  1.0000
  H   H530      1.0  0.11089  0.61476  0.58203  1.0000
  Fe  Fe65      1.0  0.02840  0.59513  0.41152  1.0000
  S   S129      1.0  0.03958  0.61355  0.38301  1.0000
  S   S130      1.0  0.04588  0.58772  0.43753  1.0000
  Fe  Fe66      1.0  0.03951  0.58713  0.36909  1.0000
  S   S131      1.0  0.06713  0.57779  0.34802  1.0000
  S   S132      1.0  0.02972  0.56800  0.39768  1.0000
  H   H531      1.0  0.16999  0.73405  0.33360  1.0000
  Fe  Fe67      1.0  0.13675  0.60709  0.52208  1.0000
  S   S133      1.0  0.10562  0.62043  0.53363  1.0000
  S   S134      1.0  0.15277  0.57697  0.53385  1.0000
  Fe  Fe68      1.0  0.14538  0.64550  0.49550  1.0000
  S   S135      1.0  0.11527  0.66167  0.50621  1.0000
  S   S136      1.0  0.16456  0.66439  0.47263  1.0000
  Fe  Fe69      1.0  0.11976  0.64609  0.53679  1.0000
  S   S137      1.0  0.11362  0.65584  0.56731  1.0000
  Fe  Fe70      1.0  0.10424  0.63465  0.50173  1.0000
  S   S138      1.0  0.07925  0.64296  0.48296  1.0000
  S   S139      1.0  0.15085  0.63210  0.52644  1.0000
  S   S140      1.0  0.13437  0.61914  0.48990  1.0000
  H   H532      1.0  0.02755  0.50159  0.60605  1.0000
  S   S141      1.0  0.24899  0.65052  0.34520  1.0000
  H   H533      1.0  0.19268  0.72905  0.42840  1.0000
  Fe  Fe71      1.0  0.22621  0.70145  0.36070  1.0000
  S   S142      1.0  0.24178  0.67762  0.38136  1.0000
  S   S143      1.0  0.21294  0.73185  0.36650  1.0000
  Fe  Fe72      1.0  0.26417  0.67223  0.35436  1.0000
  S   S144      1.0  0.29685  0.66751  0.35506  1.0000
  Fe  Fe73      1.0  0.22519  0.65785  0.37095  1.0000
  S   S145      1.0  0.21151  0.63444  0.39337  1.0000
  H   H534      1.0  0.06838  0.51501  0.62626  1.0000
  S   S146      1.0  0.20757  0.68232  0.35247  1.0000
  S   S147      1.0  0.14976  0.70926  0.64575  1.0000
  H   H535      1.0  0.32706  0.72755  0.59486  1.0000
  C   C328      1.0  0.08331  0.57137  0.39672  1.0000
  H   H536      1.0  0.35292  0.70145  0.58130  1.0000
  S   S148      1.0  0.34262  0.74077  0.65451  1.0000
  H   H537      1.0  0.06356  0.52275  0.60134  1.0000
  H   H538      1.0  0.12057  0.65457  0.46496  1.0000
  C   C329      1.0  0.28179  0.63654  0.40565  1.0000
  H   H539      1.0  0.04780  0.50155  0.58566  1.0000
  H   H540      1.0  0.29038  0.59700  0.41424  1.0000
  H   H541      1.0  0.08197  0.56323  0.41221  1.0000
  H   H542      1.0  0.09211  0.68160  0.46709  1.0000
  N   N33       1.0  0.13581  0.59771  0.59513  1.0000
  S   S149      1.0  0.09766  0.50123  0.65428  1.0000
  S   S150      1.0  0.10798  0.51833  0.60064  1.0000
  C   C330      1.0  0.14732  0.61424  0.58999  1.0000
  H   H543      1.0  0.09037  0.59209  0.42297  1.0000
  H   H544      1.0  0.20569  0.72138  0.32873  1.0000
  S   S151      1.0  0.25033  0.69825  0.33479  1.0000
  Fe  Fe74      1.0  0.32866  0.71329  0.65988  1.0000
  H   H545      1.0  0.12985  0.67557  0.41162  1.0000
  S   S152      1.0  0.20794  0.70213  0.64362  1.0000
  Fe  Fe75      1.0  0.17803  0.72126  0.64353  1.0000
  H   H546      1.0  0.08364  0.60443  0.36979  1.0000
  Fe  Fe76      1.0  0.14302  0.73434  0.62114  1.0000
  H   H547      1.0  0.11724  0.56614  0.41163  1.0000
  H   H548      1.0  0.04321  0.52275  0.62171  1.0000
  Fe  Fe77      1.0  0.12082  0.49958  0.62716  1.0000
  N   N34       1.0  0.35853  0.72501  0.59451  1.0000
  H   H549      1.0  0.25457  0.71873  0.36879  1.0000
  C   C331      1.0  0.14019  0.56048  0.55206  1.0000
  C   C332      1.0  0.11945  0.56299  0.55590  1.0000
  C   C333      1.0  0.10983  0.54993  0.57087  1.0000
  C   C334      1.0  0.12084  0.53451  0.58235  1.0000
  C   C335      1.0  0.14158  0.53201  0.57859  1.0000
  C   C336      1.0  0.15122  0.54481  0.56328  1.0000
  H   H550      1.0  0.11082  0.57484  0.54718  1.0000
  H   H551      1.0  0.09377  0.55181  0.57357  1.0000
  H   H552      1.0  0.15018  0.52001  0.58721  1.0000
  H   H553      1.0  0.16728  0.54270  0.56027  1.0000
  C   C337      1.0  0.12074  0.67682  0.57352  1.0000
  C   C338      1.0  0.12073  0.67773  0.59364  1.0000
  C   C339      1.0  0.12532  0.69449  0.59937  1.0000
  C   C340      1.0  0.12953  0.71075  0.58505  1.0000
  C   C341      1.0  0.12965  0.70980  0.56492  1.0000
  C   C342      1.0  0.12552  0.69283  0.55914  1.0000
  H   H554      1.0  0.11687  0.66552  0.60489  1.0000
  H   H555      1.0  0.12496  0.69508  0.61492  1.0000
  H   H556      1.0  0.13282  0.72229  0.55373  1.0000
  H   H557      1.0  0.12548  0.69237  0.54363  1.0000
  C   C343      1.0  0.17724  0.65565  0.45069  1.0000
  C   C344      1.0  0.18608  0.66889  0.43537  1.0000
  C   C345      1.0  0.19623  0.66256  0.41760  1.0000
  C   C346      1.0  0.19784  0.64286  0.41513  1.0000
  C   C347      1.0  0.18895  0.62961  0.43042  1.0000
  C   C348      1.0  0.17858  0.63600  0.44815  1.0000
  H   H558      1.0  0.18505  0.68411  0.43725  1.0000
  H   H559      1.0  0.20282  0.67295  0.40585  1.0000
  H   H560      1.0  0.19016  0.61433  0.42861  1.0000
  H   H561      1.0  0.17191  0.62566  0.45993  1.0000
  C   C349      1.0  0.19191  0.74191  0.43608  1.0000
  H   H562      1.0  0.12275  0.56343  0.38580  1.0000
  S   S153      1.0  0.34634  0.68517  0.65049  1.0000
  H   H563      1.0  0.38788  0.72479  0.60062  1.0000
  H   H564      1.0  0.25001  0.69650  0.64305  1.0000
  C   C350      1.0  0.31028  0.64059  0.32947  1.0000
  H   H565      1.0  0.28168  0.73719  0.36886  1.0000
  H   H566      1.0  0.30268  0.72931  0.33163  1.0000
  C   C351      1.0  0.09313  0.68338  0.45062  1.0000
  H   H567      1.0  0.15773  0.57890  0.57790  1.0000
  C   C352      1.0  0.09844  0.59604  0.37259  1.0000
  H   H568      1.0  0.08753  0.56042  0.38623  1.0000
  Fe  Fe78      1.0  0.23301  0.67724  0.32786  1.0000
  C   C353      1.0  0.27668  0.60409  0.42304  1.0000
  H   H569      1.0  0.36101  0.69380  0.60512  1.0000
  S   S154      1.0  0.30054  0.72877  0.64866  1.0000
  H   H570      1.0  0.10905  0.60677  0.36930  1.0000
  H   H571      1.0  0.37018  0.71802  0.62212  1.0000
  H   H572      1.0  0.10122  0.61072  0.40497  1.0000
  Fe  Fe79      1.0  0.00768  0.62183  0.37837  1.0000
  C   C354      1.0  0.05527  0.60351  0.44958  1.0000
  C   C355      1.0  0.06841  0.59501  0.46320  1.0000
  C   C356      1.0  0.07628  0.60688  0.47318  1.0000
  C   C357      1.0  0.07077  0.62739  0.46990  1.0000
  C   C358      1.0  0.05782  0.63592  0.45610  1.0000
  C   C359      1.0  0.05024  0.62407  0.44583  1.0000
  H   H573      1.0  0.07237  0.57911  0.46622  1.0000
  H   H574      1.0  0.08614  0.60011  0.48383  1.0000
  H   H575      1.0  0.05334  0.65177  0.45357  1.0000
  H   H576      1.0  0.04012  0.63079  0.43543  1.0000
  H   H577      1.0  0.11651  0.58473  0.62005  1.0000
  H   H578      1.0  0.32261  0.72309  0.35856  1.0000
  C   C360      1.0  0.25168  0.73468  0.36681  1.0000
  C   C361      1.0  0.12521  0.59717  0.61574  1.0000
  C   C362      1.0  0.32682  0.73804  0.35344  1.0000
  H   H579      1.0  0.10309  0.58565  0.36157  1.0000
  H   H580      1.0  0.22342  0.73797  0.40729  1.0000
  C   C363      1.0  0.05789  0.51453  0.61605  1.0000
  H   H581      1.0  0.15462  0.61567  0.57416  1.0000
  H   H582      1.0  0.15908  0.61222  0.59946  1.0000
  H   H583      1.0  0.12661  0.68850  0.46190  1.0000
  H   H584      1.0  0.27541  0.65052  0.39681  1.0000
  C   C364      1.0  0.33774  0.72923  0.60436  1.0000
  N   N35       1.0  0.11376  0.67756  0.44100  1.0000
  N   N36       1.0  0.09757  0.58538  0.39319  1.0000
  H   H585      1.0  0.13758  0.62859  0.59196  1.0000
  C   C365      1.0  0.12082  0.65670  0.44866  1.0000
  C   C366      1.0  0.31019  0.65970  0.33299  1.0000
  H   H586      1.0  0.08298  0.67398  0.44773  1.0000
  C   C367      1.0  0.09104  0.59969  0.40729  1.0000
  C   C368      1.0  0.11445  0.67993  0.41926  1.0000
  S   S155      1.0  0.14523  0.50276  0.64298  1.0000
  H   H587      1.0  0.13574  0.59517  0.62653  1.0000
  H   H588      1.0  0.28085  0.60710  0.43682  1.0000
  H   H589      1.0  0.06822  0.57921  0.39457  1.0000
  C   C369      1.0  0.14944  0.57889  0.59330  1.0000
  C   C370      1.0  0.36133  0.73849  0.57540  1.0000
  C   C371      1.0  0.24938  0.63125  0.42367  1.0000
  H   H590      1.0  0.37805  0.65274  0.65459  1.0000
  C   C372      1.0  0.36296  0.70430  0.59089  1.0000
  C   C373      1.0  0.37204  0.72794  0.60752  1.0000
  H   H591      1.0  0.24204  0.64509  0.41541  1.0000
  H   H592      1.0  0.26626  0.59314  0.42759  1.0000
  H   H593      1.0  0.14116  0.56615  0.59681  1.0000
  H   H594      1.0  0.23814  0.62110  0.42797  1.0000
  H   H595      1.0  0.11118  0.64670  0.44596  1.0000
  H   H596      1.0  0.11211  0.58846  0.58489  1.0000
  H   H597      1.0  0.25269  0.63491  0.43755  1.0000
  H   H598      1.0  0.12183  0.70605  0.44012  1.0000
  H   H599      1.0  0.25127  0.60724  0.39710  1.0000
  H   H600      1.0  0.07584  0.60790  0.40574  1.0000
  H   H601      1.0  0.37696  0.73607  0.56772  1.0000
  C   C374      1.0  0.11745  0.57438  0.39621  1.0000
  H   H602      1.0  0.12861  0.58450  0.39371  1.0000
  H   H603      1.0  0.10482  0.67057  0.41542  1.0000
  N   N37       1.0  0.26752  0.62241  0.41145  1.0000
  H   H604      1.0  0.13636  0.65172  0.44183  1.0000
  C   C375      1.0  0.12123  0.60053  0.58137  1.0000
  C   C376      1.0  0.26221  0.61769  0.39337  1.0000
  H   H605      1.0  0.27548  0.61106  0.38367  1.0000
  H   H606      1.0  0.18517  0.66997  0.65540  1.0000
  H   H607      1.0  0.08722  0.69903  0.44526  1.0000
  H   H608      1.0  0.19970  0.73655  0.44921  1.0000
  C   C377      1.0  0.24282  0.70367  0.65568  1.0000
  C   C378      1.0  0.12669  0.69017  0.44557  1.0000
  H   H609      1.0  0.28620  0.64048  0.41887  1.0000
  H   H610      1.0  0.25520  0.63119  0.38442  1.0000
  H   H611      1.0  0.12880  0.60070  0.56572  1.0000
  H   H612      1.0  0.14242  0.68606  0.43869  1.0000
  H   H613      1.0  0.29556  0.63045  0.39618  1.0000
  S   S156      1.0  0.00864  0.59673  0.36196  1.0000
  H   H614      1.0  0.16056  0.57608  0.60359  1.0000
  H   H615      1.0  0.10925  0.69552  0.41295  1.0000
  H   H616      1.0  0.11462  0.61110  0.61750  1.0000
  H   H617      1.0  0.30197  0.63067  0.34026  1.0000
  S   S157      1.0  0.13352  0.73291  0.59176  1.0000
  H   H618      1.0  0.37854  0.70055  0.58346  1.0000
  H   H619      1.0  0.04560  0.61679  0.33753  1.0000
  H   H620      1.0  0.34156  0.73777  0.35774  1.0000
  H   H621      1.0  0.33509  0.71898  0.61859  1.0000
  N   N38       1.0  0.05662  0.49396  0.61460  1.0000
  H   H622      1.0  0.35155  0.73650  0.56512  1.0000
  C   C379      1.0  0.22208  0.70761  0.65982  1.0000
  C   C380      1.0  0.07382  0.59830  0.33089  1.0000
  C   C381      1.0  0.04269  0.49394  0.60084  1.0000
  C   C382      1.0  0.06032  0.61587  0.32887  1.0000
  S   S158      1.0  0.12149  0.72775  0.69762  1.0000
  H   H623      1.0  0.12489  0.70392  0.73557  1.0000
  H   H624      1.0  0.36445  0.56095  0.91068  1.0000
  H   H625      1.0  0.28926  0.59370  0.68916  1.0000
  H   H626      1.0  0.22915  0.66331  0.77968  1.0000
  Fe  Fe80      1.0  0.30310  0.71924  0.90844  1.0000
  C   C383      1.0  0.36753  0.65158  0.66823  1.0000
  Fe  Fe81      1.0  0.31751  0.62944  0.78331  1.0000
  S   S159      1.0  0.35009  0.61795  0.77866  1.0000
  S   S160      1.0  0.30739  0.65893  0.79327  1.0000
  Fe  Fe82      1.0  0.30703  0.59436  0.77008  1.0000
  S   S161      1.0  0.33885  0.57969  0.76501  1.0000
  S   S162      1.0  0.28416  0.57825  0.76408  1.0000
  Fe  Fe83      1.0  0.34097  0.58891  0.79375  1.0000
  S   S163      1.0  0.35604  0.57211  0.81951  1.0000
  Fe  Fe84      1.0  0.34441  0.61017  0.75045  1.0000
  S   S164      1.0  0.36385  0.61453  0.72057  1.0000
  S   S165      1.0  0.30848  0.60107  0.80014  1.0000
  S   S166      1.0  0.31254  0.62419  0.75384  1.0000
  Fe  Fe85      1.0  0.13544  0.62450  0.74834  1.0000
  S   S167      1.0  0.13002  0.60208  0.77564  1.0000
  S   S168      1.0  0.11182  0.63902  0.72984  1.0000
  Fe  Fe86      1.0  0.17996  0.61650  0.74728  1.0000
  S   S169      1.0  0.17802  0.59282  0.77392  1.0000
  S   S170      1.0  0.20773  0.62856  0.73211  1.0000
  Fe  Fe87      1.0  0.15553  0.58287  0.75972  1.0000
  S   S171      1.0  0.15363  0.55122  0.75693  1.0000
  Fe  Fe88      1.0  0.15291  0.61465  0.78688  1.0000
  S   S172      1.0  0.15350  0.62042  0.81819  1.0000
  S   S173      1.0  0.15982  0.60488  0.73211  1.0000
  S   S174      1.0  0.15595  0.63866  0.76066  1.0000
  Fe  Fe89      1.0  0.16732  0.71168  0.86880  1.0000
  S   S175      1.0  0.20054  0.70696  0.86704  1.0000
  S   S176      1.0  0.15496  0.70392  0.84330  1.0000
  C   C384      1.0  0.25431  0.70958  0.66749  1.0000
  N   N39       1.0  0.32707  0.64777  0.96813  1.0000
  H   H627      1.0  0.23290  0.73925  0.94954  1.0000
  H   H628      1.0  0.13251  0.50517  0.72206  1.0000
  Fe  Fe90      1.0  0.19380  0.70071  0.90029  1.0000
  S   S177      1.0  0.21302  0.67803  0.91870  1.0000
  H   H629      1.0  0.16795  0.72998  0.95020  1.0000
  S   S178      1.0  0.16071  0.70338  0.90231  1.0000
  H   H630      1.0  0.38184  0.72788  0.84919  1.0000
  S   S179      1.0  0.30098  0.71130  0.87916  1.0000
  H   H631      1.0  0.15382  0.65125  0.70199  1.0000
  Fe  Fe91      1.0  0.34755  0.71048  0.90266  1.0000
  S   S180      1.0  0.32430  0.69191  0.91677  1.0000
  S   S181      1.0  0.37230  0.70762  0.92013  1.0000
  Fe  Fe92      1.0  0.32479  0.68579  0.88621  1.0000
  S   S182      1.0  0.32540  0.65531  0.87997  1.0000
  H   H632      1.0  0.34941  0.63177  0.94846  1.0000
  H   H633      1.0  0.35589  0.50549  0.80566  1.0000
  S   S183      1.0  0.35016  0.70184  0.87264  1.0000
  H   H634      1.0  0.30300  0.66811  0.95646  1.0000
  H   H635      1.0  0.40572  0.54549  0.94070  1.0000
  S   S184      1.0  0.39961  0.61632  0.94641  1.0000
  C   C385      1.0  0.35978  0.53704  0.84482  1.0000
  C   C386      1.0  0.38002  0.68233  0.92776  1.0000
  C   C387      1.0  0.38130  0.66899  0.91465  1.0000
  C   C388      1.0  0.38751  0.64879  0.92055  1.0000
  C   C389      1.0  0.39174  0.64172  0.93982  1.0000
  C   C390      1.0  0.38992  0.65495  0.95320  1.0000
  C   C391      1.0  0.38438  0.67532  0.94704  1.0000
  H   H636      1.0  0.37792  0.67427  0.89978  1.0000
  H   H637      1.0  0.38891  0.63863  0.91014  1.0000
  H   H638      1.0  0.39340  0.64956  0.96804  1.0000
  H   H639      1.0  0.38336  0.68563  0.95722  1.0000
  C   C392      1.0  0.23131  0.69054  0.92232  1.0000
  C   C393      1.0  0.23856  0.70469  0.90699  1.0000
  C   C394      1.0  0.16982  0.65008  0.70309  1.0000
  C   C395      1.0  0.17021  0.68435  0.68944  1.0000
  C   C396      1.0  0.25215  0.69793  0.94358  1.0000
  C   C397      1.0  0.23829  0.68696  0.94055  1.0000
  C   C398      1.0  0.35035  0.66565  0.67033  1.0000
  H   H640      1.0  0.15829  0.73849  0.74368  1.0000
  H   H641      1.0  0.25727  0.69548  0.95780  1.0000
  H   H642      1.0  0.23256  0.67613  0.95246  1.0000
  C   C399      1.0  0.15424  0.64374  0.82477  1.0000
  C   C400      1.0  0.15928  0.64446  0.84337  1.0000
  C   C401      1.0  0.16005  0.66266  0.84913  1.0000
  C   C402      1.0  0.15541  0.68043  0.83647  1.0000
  C   C403      1.0  0.15051  0.67967  0.81782  1.0000
  C   C404      1.0  0.15007  0.66147  0.81193  1.0000
  H   H643      1.0  0.16242  0.63087  0.85348  1.0000
  H   H644      1.0  0.16366  0.66299  0.86359  1.0000
  H   H645      1.0  0.14677  0.69330  0.80796  1.0000
  H   H646      1.0  0.14599  0.66123  0.79767  1.0000
  C   C405      1.0  0.31414  0.65794  0.81665  1.0000
  C   C406      1.0  0.31240  0.67538  0.82446  1.0000
  C   C407      1.0  0.31681  0.67464  0.84355  1.0000
  C   C408      1.0  0.32244  0.65645  0.85512  1.0000
  C   C409      1.0  0.32462  0.63903  0.84713  1.0000
  C   C410      1.0  0.32067  0.63979  0.82784  1.0000
  H   H647      1.0  0.30761  0.68948  0.81578  1.0000
  H   H648      1.0  0.31563  0.68819  0.84931  1.0000
  H   H649      1.0  0.32924  0.62492  0.85588  1.0000
  H   H650      1.0  0.32240  0.62625  0.82182  1.0000
  C   C411      1.0  0.26321  0.59243  0.75482  1.0000
  C   C412      1.0  0.26298  0.61226  0.74633  1.0000
  C   C413      1.0  0.24616  0.62310  0.73862  1.0000
  C   C414      1.0  0.22929  0.61432  0.74004  1.0000
  C   C415      1.0  0.22954  0.59450  0.74847  1.0000
  C   C416      1.0  0.24655  0.58353  0.75566  1.0000
  H   H651      1.0  0.27577  0.61922  0.74550  1.0000
  H   H652      1.0  0.24605  0.63842  0.73196  1.0000
  H   H653      1.0  0.21675  0.58749  0.74920  1.0000
  H   H654      1.0  0.24672  0.56813  0.76208  1.0000
  H   H655      1.0  0.17806  0.73339  0.98183  1.0000
  C   C417      1.0  0.34158  0.52527  0.95812  1.0000
  H   H656      1.0  0.28730  0.60210  0.71248  1.0000
  H   H657      1.0  0.31688  0.61830  0.70158  1.0000
  C   C418      1.0  0.31348  0.66688  0.96718  1.0000
  H   H658      1.0  0.34739  0.54474  0.97662  1.0000
  C   C419      1.0  0.35674  0.54636  0.82563  1.0000
  C   C420      1.0  0.35509  0.53495  0.81158  1.0000
  C   C421      1.0  0.35687  0.51428  0.81665  1.0000
  H   H659      1.0  0.35284  0.54201  0.79673  1.0000
  H   H660      1.0  0.34197  0.56984  0.68759  1.0000
  C   C422      1.0  0.13169  0.53404  0.70442  1.0000
  C   C423      1.0  0.13579  0.55320  0.70344  1.0000
  C   C424      1.0  0.14337  0.55839  0.71895  1.0000
  C   C425      1.0  0.14667  0.54454  0.73588  1.0000
  C   C426      1.0  0.14320  0.52517  0.73659  1.0000
  C   C427      1.0  0.13581  0.51992  0.72094  1.0000
  H   H661      1.0  0.13276  0.56420  0.69070  1.0000
  H   H662      1.0  0.14625  0.57322  0.71797  1.0000
  H   H663      1.0  0.14574  0.51429  0.74956  1.0000
  C   C428      1.0  0.23270  0.62516  0.79649  1.0000
  C   C429      1.0  0.33674  0.66381  0.68804  1.0000
  C   C430      1.0  0.34065  0.64826  0.70372  1.0000
  C   C431      1.0  0.35815  0.63448  0.70167  1.0000
  C   C432      1.0  0.37144  0.63615  0.68382  1.0000
  C   C433      1.0  0.35295  0.66610  0.75182  1.0000
  H   H664      1.0  0.33009  0.64690  0.71724  1.0000
  H   H665      1.0  0.38492  0.62549  0.68205  1.0000
  C   C434      1.0  0.11805  0.70332  0.70661  1.0000
  C   C435      1.0  0.11302  0.69181  0.69436  1.0000
  C   C436      1.0  0.11066  0.67213  0.70172  1.0000
  C   C437      1.0  0.11391  0.66383  0.72108  1.0000
  C   C438      1.0  0.11929  0.67524  0.73317  1.0000
  C   C439      1.0  0.12105  0.69507  0.72604  1.0000
  C   C440      1.0  0.21292  0.71627  0.67655  1.0000
  H   H666      1.0  0.10651  0.66329  0.69234  1.0000
  H   H667      1.0  0.12156  0.66895  0.74821  1.0000
  C   C441      1.0  0.35800  0.69051  0.72254  1.0000
  H   H668      1.0  0.17699  0.63454  0.70222  1.0000
  H   H669      1.0  0.24464  0.63271  0.79887  1.0000
  H   H670      1.0  0.37654  0.54104  0.92687  1.0000
  H   H671      1.0  0.36537  0.69879  0.75670  1.0000
  H   H672      1.0  0.06177  0.59394  0.72617  1.0000
  H   H673      1.0  0.20912  0.67106  0.67711  1.0000
  C   C442      1.0  0.34080  0.64697  0.98232  1.0000
  Fe  Fe93      1.0  0.13683  0.73183  0.66603  1.0000
  H   H674      1.0  0.27173  0.49527  0.92875  1.0000
  C   C443      1.0  0.07039  0.58091  0.73443  1.0000
  C   C444      1.0  0.25946  0.71196  0.92815  1.0000
  Fe  Fe94      1.0  0.28945  0.73262  0.68036  1.0000
  H   H675      1.0  0.36905  0.66341  0.75297  1.0000
  H   H676      1.0  0.36315  0.50950  0.86494  1.0000
  H   H677      1.0  0.17110  0.68796  0.70420  1.0000
  H   H678      1.0  0.07493  0.56934  0.72460  1.0000
  H   H679      1.0  0.32130  0.57625  0.67406  1.0000
  Fe  Fe95      1.0  0.12240  0.50278  0.67063  1.0000
  H   H680      1.0  0.06022  0.57499  0.74765  1.0000
  H   H681      1.0  0.10511  0.58352  0.71149  1.0000
  N   N40       1.0  0.17973  0.66391  0.68734  1.0000
  C   C445      1.0  0.32544  0.57216  0.68923  1.0000
  H   H682      1.0  0.26424  0.66971  0.89924  1.0000
  H   H683      1.0  0.23829  0.61806  0.78298  1.0000
  H   H684      1.0  0.20402  0.62183  0.77670  1.0000
  H   H685      1.0  0.39351  0.72740  0.88099  1.0000
  H   H686      1.0  0.28128  0.67331  0.87647  1.0000
  H   H687      1.0  0.28461  0.65065  0.89343  1.0000
  H   H688      1.0  0.21781  0.65539  0.81655  1.0000
  H   H689      1.0  0.39554  0.49894  0.96115  1.0000
  H   H690      1.0  0.32212  0.67949  0.73137  1.0000
  C   C446      1.0  0.32502  0.68928  0.74112  1.0000
  N   N41       1.0  0.31638  0.58757  0.70167  1.0000
  C   C447      1.0  0.22438  0.72221  0.68831  1.0000
  C   C448      1.0  0.40070  0.56172  0.93743  1.0000
  H   H691      1.0  0.30445  0.66878  0.98195  1.0000
  H   H692      1.0  0.35050  0.65518  0.74302  1.0000
  H   H693      1.0  0.32055  0.55774  0.69592  1.0000
  H   H694      1.0  0.36198  0.56215  0.93672  1.0000
  H   H695      1.0  0.31543  0.59262  0.73138  1.0000
  H   H696      1.0  0.20292  0.66519  0.70359  1.0000
  H   H697      1.0  0.33892  0.58025  0.72060  1.0000
  H   H698      1.0  0.31861  0.61169  0.67738  1.0000
  H   H699      1.0  0.39656  0.56446  0.88883  1.0000
  C   C449      1.0  0.37294  0.52278  0.97009  1.0000
  N   N42       1.0  0.39036  0.56712  0.91988  1.0000
  C   C450      1.0  0.08133  0.60147  0.75339  1.0000
  H   H700      1.0  0.32643  0.53249  0.95749  1.0000
  C   C451      1.0  0.09900  0.56849  0.75093  1.0000
  H   H701      1.0  0.19705  0.71840  0.68058  1.0000
  C   C452      1.0  0.31539  0.63144  0.97481  1.0000
  C   C453      1.0  0.34917  0.50888  0.94829  1.0000
  H   H702      1.0  0.37413  0.68903  0.72317  1.0000
  H   H703      1.0  0.31942  0.70480  0.73490  1.0000
  H   H704      1.0  0.35317  0.70572  0.71499  1.0000
  C   C454      1.0  0.40388  0.56055  0.90238  1.0000
  H   H705      1.0  0.30643  0.63249  0.98980  1.0000
  C   C455      1.0  0.24506  0.71936  0.68346  1.0000
  C   C456      1.0  0.29449  0.59002  0.70384  1.0000
  H   H706      1.0  0.34470  0.66276  0.76712  1.0000
  H   H707      1.0  0.37449  0.59429  0.92916  1.0000
  H   H708      1.0  0.21121  0.73657  0.94026  1.0000
  H   H709      1.0  0.31802  0.56722  0.72905  1.0000
  N   N43       1.0  0.26069  0.65370  0.87676  1.0000
  C   C457      1.0  0.27330  0.64388  0.86062  1.0000
  C   C458      1.0  0.25037  0.63913  0.89125  1.0000
  C   C459      1.0  0.24588  0.66960  0.86828  1.0000
  C   C460      1.0  0.27322  0.66224  0.88691  1.0000
  H   H710      1.0  0.28076  0.65465  0.84914  1.0000
  H   H711      1.0  0.26451  0.63670  0.85299  1.0000
  H   H712      1.0  0.28520  0.63232  0.86634  1.0000
  H   H713      1.0  0.24042  0.63267  0.88425  1.0000
  H   H714      1.0  0.26114  0.62680  0.89774  1.0000
  H   H715      1.0  0.24096  0.64605  0.90379  1.0000
  H   H716      1.0  0.25314  0.68117  0.85771  1.0000
  H   H717      1.0  0.23584  0.67697  0.88013  1.0000
  H   H718      1.0  0.23633  0.66379  0.86023  1.0000
  H   H719      1.0  0.36102  0.54581  0.85573  1.0000
  S   S185      1.0  0.33384  0.50028  0.93505  1.0000
  C   C461      1.0  0.34947  0.70051  0.75502  1.0000
  H   H720      1.0  0.20844  0.64593  0.68861  1.0000
  H   H721      1.0  0.23320  0.70760  0.89288  1.0000
  H   H722      1.0  0.40861  0.54423  0.90480  1.0000
  H   H723      1.0  0.33963  0.60509  0.69043  1.0000
  H   H724      1.0  0.09424  0.60595  0.75780  1.0000
  C   C462      1.0  0.32314  0.60648  0.69230  1.0000
  H   H725      1.0  0.07301  0.61515  0.74577  1.0000
  C   C463      1.0  0.38432  0.58879  0.91604  1.0000
  H   H726      1.0  0.42158  0.49390  0.84591  1.0000
  H   H727      1.0  0.11064  0.69817  0.67935  1.0000
  H   H728      1.0  0.20381  0.66591  0.77572  1.0000
  H   H729      1.0  0.32302  0.67408  0.68952  1.0000
  C   C464      1.0  0.32252  0.58160  0.72149  1.0000
  N   N44       1.0  0.34637  0.68659  0.74261  1.0000
  H   H730      1.0  0.34487  0.71614  0.74830  1.0000
  C   C465      1.0  0.21762  0.65510  0.77755  1.0000
  H   H731      1.0  0.23049  0.61304  0.80923  1.0000
  H   H732      1.0  0.34068  0.69807  0.77020  1.0000
  H   H733      1.0  0.39079  0.56602  0.95100  1.0000
  H   H734      1.0  0.31592  0.68581  0.75597  1.0000
  C   C466      1.0  0.36103  0.51646  0.85004  1.0000
  Fe  Fe96      1.0  0.39149  0.60201  0.97793  1.0000
  H   H735      1.0  0.41752  0.56753  0.89918  1.0000
  H   H736      1.0  0.39744  0.59658  0.91292  1.0000
  C   C467      1.0  0.37255  0.55741  0.92367  1.0000
  H   H737      1.0  0.37620  0.59344  0.90308  1.0000
  H   H738      1.0  0.41390  0.56924  0.93541  1.0000
  N   N45       1.0  0.21403  0.63909  0.79438  1.0000
  C   C468      1.0  0.35978  0.50501  0.83590  1.0000
  H   H739      1.0  0.22270  0.64918  0.76329  1.0000
  C   C469      1.0  0.20666  0.64765  0.81287  1.0000
  H   H740      1.0  0.20291  0.63608  0.82573  1.0000
  H   H741      1.0  0.19586  0.61618  0.80292  1.0000
  H   H742      1.0  0.28879  0.57636  0.71198  1.0000
  C   C470      1.0  0.19902  0.62842  0.79056  1.0000
  H   H743      1.0  0.18471  0.63842  0.78893  1.0000
  C   C471      1.0  0.35343  0.53225  0.96893  1.0000
  S   S186      1.0  0.11826  0.52968  0.68656  1.0000
  C   C472      1.0  0.17785  0.65976  0.66767  1.0000
  S   S187      1.0  0.31644  0.71490  0.69174  1.0000
  S   S188      1.0  0.38847  0.53070  0.98362  1.0000
  H   H744      1.0  0.19287  0.65863  0.81151  1.0000
  H   H745      1.0  0.35629  0.68009  0.71287  1.0000
  H   H746      1.0  0.07164  0.59608  0.76724  1.0000
  S   S189      1.0  0.36476  0.58747  0.98095  1.0000
  C   C473      1.0  0.38051  0.50645  0.96022  1.0000
  S   S190      1.0  0.25887  0.72951  0.69656  1.0000
  C   C474      1.0  0.33865  0.64582  0.94822  1.0000
  H   H747      1.0  0.10401  0.55661  0.74151  1.0000
  H   H748      1.0  0.32184  0.67954  0.96231  1.0000
  C   C475      1.0  0.20097  0.66144  0.68921  1.0000
  C   C476      1.0  0.10086  0.59411  0.72228  1.0000
  H   H749      1.0  0.11480  0.59717  0.72605  1.0000
  H   H750      1.0  0.17734  0.69516  0.67782  1.0000
  H   H751      1.0  0.11252  0.57186  0.75528  1.0000
  Fe  Fe97      1.0  0.32637  0.72806  0.86738  1.0000
  H   H752      1.0  0.32887  0.64615  0.93706  1.0000
  H   H753      1.0  0.32521  0.61681  0.97605  1.0000
  N   N46       1.0  0.08788  0.58625  0.74027  1.0000
  H   H754      1.0  0.09344  0.60826  0.71457  1.0000
  C   C477      1.0  0.25287  0.71513  0.90979  1.0000
  H   H755      1.0  0.08983  0.56226  0.76475  1.0000
  H   H756      1.0  0.34965  0.65927  0.97791  1.0000
  H   H757      1.0  0.30498  0.63145  0.96437  1.0000
  S   S191      1.0  0.16573  0.74159  0.66565  1.0000
  H   H758      1.0  0.34739  0.65809  0.94269  1.0000
  H   H759      1.0  0.15426  0.68671  0.68792  1.0000
  C   C478      1.0  0.36875  0.49959  0.94927  1.0000
  H   H760      1.0  0.41468  0.73719  0.84868  1.0000
  H   H761      1.0  0.35149  0.63291  0.98305  1.0000
  S   S192      1.0  0.41087  0.57442  0.98964  1.0000
  H   H762      1.0  0.17067  0.65304  0.71811  1.0000
  H   H763      1.0  0.21720  0.72942  0.70091  1.0000
  H   H764      1.0  0.25846  0.72601  0.89784  1.0000
  H   H765      1.0  0.20049  0.73880  0.83212  1.0000
  Fe  Fe98      1.0  0.19650  0.73855  0.87150  1.0000
  S   S193      1.0  0.19320  0.73181  0.90449  1.0000
  Fe  Fe99      1.0  0.16073  0.73542  0.90417  1.0000
  S   S194      1.0  0.27679  0.72565  0.93164  1.0000
  H   H766      1.0  0.27029  0.70649  0.66425  1.0000
  H   H767      1.0  0.16198  0.66158  0.66578  1.0000
  H   H768      1.0  0.18489  0.64442  0.66564  1.0000
  S   S195      1.0  0.32631  0.73861  0.89618  1.0000
  H   H769      1.0  0.13598  0.73561  0.73551  1.0000
  Fe  Fe100     1.0  0.01532  0.81560  0.19397  1.0000
  S   S196      1.0  0.02372  0.83538  0.16507  1.0000
  S   S197      1.0  0.02551  0.80907  0.22423  1.0000
  Fe  Fe101     1.0  0.02665  0.80854  0.15036  1.0000
  S   S198      1.0  0.05238  0.79430  0.12927  1.0000
  S   S199      1.0  0.02060  0.78861  0.17948  1.0000
  Fe  Fe102     1.0  0.12157  0.78892  0.29440  1.0000
  S   S200      1.0  0.10757  0.81945  0.30089  1.0000
  H   H770      1.0  0.07907  0.85220  0.01942  1.0000
  Fe  Fe103     1.0  0.15374  0.80290  0.26310  1.0000
  S   S201      1.0  0.14327  0.83471  0.26610  1.0000
  S   S202      1.0  0.17943  0.78767  0.24387  1.0000
  Fe  Fe104     1.0  0.13931  0.82416  0.29910  1.0000
  Fe  Fe105     1.0  0.11253  0.82804  0.26758  1.0000
  S   S203      1.0  0.09178  0.84799  0.24803  1.0000
  S   S204      1.0  0.15252  0.79294  0.29580  1.0000
  S   S205      1.0  0.12353  0.79743  0.26142  1.0000
  Fe  Fe106     1.0  0.38331  0.80572  0.30058  1.0000
  S   S206      1.0  0.39353  0.81925  0.26925  1.0000
  S   S207      1.0  0.38769  0.77279  0.30895  1.0000
  H   H771      1.0  0.30028  0.87761  0.31105  1.0000
  S   S208      1.0  0.37707  0.86197  0.28427  1.0000
  H   H772      1.0  0.35559  0.77603  0.19303  1.0000
  Fe  Fe107     1.0  0.36428  0.83963  0.27284  1.0000
  S   S209      1.0  0.34170  0.85032  0.25152  1.0000
  Fe  Fe108     1.0  0.40529  0.84016  0.28379  1.0000
  S   S210      1.0  0.43581  0.84912  0.27579  1.0000
  S   S211      1.0  0.35331  0.82474  0.30354  1.0000
  S   S212      1.0  0.39761  0.82462  0.31469  1.0000
  H   H773      1.0  0.14668  0.76317  0.27497  1.0000
  H   H774      1.0  0.26453  0.84322  0.31266  1.0000
  S   S213      1.0  0.14472  0.82194  0.00753  1.0000
  Fe  Fe109     1.0  0.17770  0.81192  0.04968  1.0000
  S   S214      1.0  0.15939  0.84162  0.04128  1.0000
  S   S215      1.0  0.19303  0.80174  0.07727  1.0000
  Fe  Fe110     1.0  0.13537  0.82434  0.04012  1.0000
  S   S216      1.0  0.10343  0.83635  0.05221  1.0000
  H   H775      1.0  0.44058  0.85093  0.22475  1.0000
  S   S217      1.0  0.15288  0.79494  0.05018  1.0000
  Fe  Fe111     1.0  0.25816  0.82845  0.17474  1.0000
  S   S218      1.0  0.28100  0.84043  0.15053  1.0000
  S   S219      1.0  0.23139  0.84731  0.18869  1.0000
  Fe  Fe112     1.0  0.27571  0.78600  0.17119  1.0000
  S   S220      1.0  0.29973  0.79457  0.14657  1.0000
  S   S221      1.0  0.11302  0.75887  0.30543  1.0000
  Fe  Fe113     1.0  0.30271  0.81657  0.16565  1.0000
  S   S222      1.0  0.33284  0.81650  0.17451  1.0000
  Fe  Fe114     1.0  0.27543  0.81715  0.13436  1.0000
  S   S223      1.0  0.26973  0.82307  0.10223  1.0000
  S   S224      1.0  0.28000  0.80636  0.19088  1.0000
  S   S225      1.0  0.25133  0.80689  0.15789  1.0000
  H   H776      1.0  0.24389  0.75616  0.12352  1.0000
  H   H777      1.0  0.10180  0.83887  0.00859  1.0000
  N   N47       1.0  0.28691  0.86015  0.29625  1.0000
  H   H778      1.0  0.09785  0.89325  0.25407  1.0000
  H   H779      1.0  0.01789  0.79032  0.11189  1.0000
  C   C479      1.0  0.29319  0.84702  0.28099  1.0000
  H   H780      1.0  0.26042  0.77028  0.14503  1.0000
  H   H781      1.0  0.27233  0.85875  0.32661  1.0000
  C   C480      1.0  0.21442  0.80809  0.08361  1.0000
  C   C481      1.0  0.22586  0.82118  0.07089  1.0000
  C   C482      1.0  0.24281  0.82556  0.07670  1.0000
  C   C483      1.0  0.24841  0.81704  0.09531  1.0000
  C   C484      1.0  0.23694  0.80396  0.10799  1.0000
  C   C485      1.0  0.22010  0.79951  0.10216  1.0000
  H   H782      1.0  0.22171  0.82787  0.05655  1.0000
  H   H783      1.0  0.25161  0.83565  0.06674  1.0000
  H   H784      1.0  0.24120  0.79701  0.12216  1.0000
  H   H785      1.0  0.21145  0.78926  0.11207  1.0000
  Fe  Fe115     1.0  0.36875  0.84517  0.31451  1.0000
  N   N48       1.0  0.09713  0.88621  0.28578  1.0000
  H   H786      1.0  0.34630  0.77473  0.25871  1.0000
  H   H787      1.0  0.10904  0.78227  0.22805  1.0000
  H   H788      1.0  0.48252  0.86741  0.31230  1.0000
  H   H789      1.0  0.08561  0.85959  0.28632  1.0000
  H   H790      1.0  0.06942  0.88786  0.00676  1.0000
  H   H791      1.0  0.26725  0.88730  0.30048  1.0000
  H   H792      1.0  0.29967  0.85508  0.26656  1.0000
  H   H793      1.0  0.32329  0.74321  0.10063  1.0000
  C   C486      1.0  0.33915  0.83938  0.23108  1.0000
  C   C487      1.0  0.32153  0.84514  0.22273  1.0000
  C   C488      1.0  0.31917  0.83769  0.20589  1.0000
  C   C489      1.0  0.33466  0.82481  0.19679  1.0000
  C   C490      1.0  0.35228  0.81895  0.20516  1.0000
  C   C491      1.0  0.35442  0.82596  0.22239  1.0000
  H   H794      1.0  0.30968  0.85564  0.22914  1.0000
  H   H795      1.0  0.30559  0.84244  0.19956  1.0000
  H   H796      1.0  0.36439  0.80905  0.19823  1.0000
  H   H797      1.0  0.36803  0.82131  0.22866  1.0000
  C   C492      1.0  0.44208  0.86085  0.29386  1.0000
  C   C493      1.0  0.42734  0.87235  0.30544  1.0000
  C   C494      1.0  0.36277  0.74562  0.26604  1.0000
  H   H798      1.0  0.12046  0.89501  0.26252  1.0000
  H   H799      1.0  0.42139  0.84090  0.24216  1.0000
  C   C495      1.0  0.46201  0.85920  0.29636  1.0000
  H   H800      1.0  0.41194  0.87379  0.30367  1.0000
  H   H801      1.0  0.30769  0.74767  0.31022  1.0000
  H   H802      1.0  0.21703  0.75283  0.04314  1.0000
  H   H803      1.0  0.47351  0.85035  0.28747  1.0000
  C   C496      1.0  0.37924  0.76261  0.29145  1.0000
  C   C497      1.0  0.36570  0.77430  0.27974  1.0000
  C   C498      1.0  0.35460  0.76008  0.19812  1.0000
  Fe  Fe116     1.0  0.17009  0.83684  0.00951  1.0000
  H   H804      1.0  0.42455  0.83745  0.21670  1.0000
  H   H805      1.0  0.43207  0.87954  0.19892  1.0000
  H   H806      1.0  0.36121  0.78982  0.28078  1.0000
  C   C499      1.0  0.08951  0.85113  0.00521  1.0000
  C   C500      1.0  0.08578  0.76519  0.25941  1.0000
  H   H807      1.0  0.33247  0.77704  0.17003  1.0000
  C   C501      1.0  0.19360  0.80463  0.22894  1.0000
  C   C502      1.0  0.18553  0.82459  0.22457  1.0000
  C   C503      1.0  0.19722  0.83791  0.21245  1.0000
  C   C504      1.0  0.21684  0.83112  0.20453  1.0000
  C   C505      1.0  0.22471  0.81111  0.20873  1.0000
  C   C506      1.0  0.21321  0.79794  0.22111  1.0000
  H   H808      1.0  0.17026  0.82976  0.23031  1.0000
  H   H809      1.0  0.19103  0.85336  0.20912  1.0000
  H   H810      1.0  0.23977  0.80572  0.20271  1.0000
  H   H811      1.0  0.21966  0.78263  0.22484  1.0000
  N   N49       1.0  0.09707  0.86992  0.99715  1.0000
  H   H812      1.0  0.28050  0.84081  0.27823  1.0000
  C   C507      1.0  0.03249  0.75176  0.11222  1.0000
  H   H813      1.0  0.12392  0.88397  0.29824  1.0000
  C   C508      1.0  0.06680  0.80674  0.10852  1.0000
  C   C509      1.0  0.08453  0.79627  0.09955  1.0000
  C   C510      1.0  0.09612  0.80528  0.08262  1.0000
  C   C511      1.0  0.08992  0.82481  0.07424  1.0000
  C   C512      1.0  0.07215  0.83527  0.08317  1.0000
  C   C513      1.0  0.06072  0.82635  0.10032  1.0000
  H   H814      1.0  0.08934  0.78108  0.10574  1.0000
  H   H815      1.0  0.10968  0.79702  0.07587  1.0000
  H   H816      1.0  0.06720  0.85037  0.07682  1.0000
  H   H817      1.0  0.04710  0.83459  0.10703  1.0000
  C   C514      1.0  0.04371  0.82050  0.23043  1.0000
  C   C515      1.0  0.05271  0.83506  0.21707  1.0000
  C   C516      1.0  0.06738  0.84351  0.22260  1.0000
  C   C517      1.0  0.07353  0.83707  0.24127  1.0000
  C   C518      1.0  0.06466  0.82238  0.25454  1.0000
  C   C519      1.0  0.04959  0.81438  0.24925  1.0000
  H   H818      1.0  0.04822  0.83997  0.20257  1.0000
  H   H819      1.0  0.07407  0.85498  0.21231  1.0000
  H   H820      1.0  0.06908  0.81753  0.26907  1.0000
  H   H821      1.0  0.04246  0.80337  0.25978  1.0000
  H   H822      1.0  0.17962  0.75672  0.28012  1.0000
  H   H823      1.0  0.11678  0.86090  0.29749  1.0000
  C   C520      1.0  0.08951  0.90665  0.28950  1.0000
  C   C521      1.0  0.43255  0.88257  0.31890  1.0000
  H   H824      1.0  0.08135  0.90691  0.30491  1.0000
  C   C522      1.0  0.10734  0.87510  0.01189  1.0000
  H   H825      1.0  0.17235  0.75161  0.05077  1.0000
  H   H826      1.0  0.07007  0.88170  0.27749  1.0000
  H   H827      1.0  0.17304  0.76646  0.08055  1.0000
  H   H828      1.0  0.27886  0.88592  0.27521  1.0000
  H   H829      1.0  0.31953  0.78347  0.20469  1.0000
  H   H830      1.0  0.09498  0.77999  0.20943  1.0000
  H   H831      1.0  0.40651  0.89013  0.19780  1.0000
  H   H832      1.0  0.14994  0.88629  0.99874  1.0000
  H   H833      1.0  0.21720  0.76390  0.06465  1.0000
  H   H834      1.0  0.40799  0.87380  0.25173  1.0000
  C   C523      1.0  0.30445  0.86735  0.29987  1.0000
  C   C524      1.0  0.20749  0.75891  0.05608  1.0000
  N   N50       1.0  0.20641  0.85275  0.13700  1.0000
  C   C525      1.0  0.19527  0.86872  0.14793  1.0000
  C   C526      1.0  0.22771  0.85460  0.13275  1.0000
  C   C527      1.0  0.19888  0.85420  0.11807  1.0000
  C   C528      1.0  0.20383  0.83342  0.14929  1.0000
  H   H835      1.0  0.17912  0.86784  0.15140  1.0000
  H   H836      1.0  0.19701  0.88354  0.13920  1.0000
  H   H837      1.0  0.20067  0.86785  0.16232  1.0000
  H   H838      1.0  0.23663  0.84253  0.12498  1.0000
  H   H839      1.0  0.23031  0.86880  0.12313  1.0000
  H   H840      1.0  0.23387  0.85392  0.14663  1.0000
  H   H841      1.0  0.20719  0.84241  0.10944  1.0000
  H   H842      1.0  0.20051  0.86862  0.10842  1.0000
  H   H843      1.0  0.18290  0.85264  0.12064  1.0000
  H   H844      1.0  0.21198  0.82101  0.14149  1.0000
  H   H845      1.0  0.18791  0.83161  0.15292  1.0000
  H   H846      1.0  0.20951  0.83177  0.16363  1.0000
  H   H847      1.0  0.10059  0.76607  0.26279  1.0000
  C   C529      1.0  0.31930  0.76733  0.20912  1.0000
  C   C530      1.0  0.27235  0.87717  0.28921  1.0000
  C   C531      1.0  0.01128  0.76083  0.14193  1.0000
  H   H848      1.0  0.38922  0.85203  0.21521  1.0000
  C   C532      1.0  0.08032  0.87522  0.28848  1.0000
  C   C533      1.0  0.41669  0.87608  0.20153  1.0000
  C   C534      1.0  0.42499  0.84820  0.22656  1.0000
  S   S226      1.0  0.19044  0.80842  0.01801  1.0000
  H   H849      1.0  0.25895  0.87228  0.28624  1.0000
  C   C535      1.0  0.11084  0.87635  0.29991  1.0000
  N   N51       1.0  0.33497  0.75576  0.19644  1.0000
  H   H850      1.0  0.41605  0.86619  0.19084  1.0000
  H   H851      1.0  0.06692  0.76125  0.21863  1.0000
  H   H852      1.0  0.38579  0.85558  0.24060  1.0000
  H   H853      1.0  0.19522  0.76680  0.29217  1.0000
  S   S227      1.0  0.15068  0.84347  0.31606  1.0000
  H   H854      1.0  0.30483  0.83445  0.28546  1.0000
  H   H855      1.0  0.07156  0.87503  0.30366  1.0000
  H   H856      1.0  0.30425  0.76458  0.20808  1.0000
  H   H857      1.0  0.37967  0.87606  0.22195  1.0000
  H   H858      1.0  0.11269  0.88949  0.00663  1.0000
  H   H859      1.0  0.07912  0.91448  0.27906  1.0000
  C   C536      1.0  0.33171  0.76115  0.17553  1.0000
  H   H860      1.0  0.07559  0.77870  0.26337  1.0000
  Fe  Fe117     1.0  0.16430  0.79383  0.01771  1.0000
  H   H861      1.0  0.31212  0.87528  0.28596  1.0000
  H   H862      1.0  0.12041  0.86369  0.01507  1.0000
  H   H863      1.0  0.08397  0.79475  0.22834  1.0000
  H   H864      1.0  0.19762  0.77234  0.05007  1.0000
  S   S228      1.0  0.17067  0.76515  0.00472  1.0000
  N   N52       1.0  0.41110  0.86676  0.22229  1.0000
  H   H865      1.0  0.04369  0.76068  0.11387  1.0000
  H   H866      1.0  0.42753  0.88359  0.23459  1.0000
  H   H867      1.0  0.31687  0.75840  0.17381  1.0000
  C   C537      1.0  0.35726  0.76575  0.26727  1.0000
  C   C538      1.0  0.10787  0.88657  0.26522  1.0000
  H   H868      1.0  0.32138  0.76348  0.22503  1.0000
  C   C539      1.0  0.46715  0.86884  0.31043  1.0000
  C   C540      1.0  0.39060  0.86244  0.22508  1.0000
  C   C541      1.0  0.41217  0.88035  0.23595  1.0000
  H   H869      1.0  0.11418  0.87140  0.26209  1.0000
  C   C542      1.0  0.45243  0.88080  0.32156  1.0000
  H   H870      1.0  0.10184  0.91533  0.28762  1.0000
  S   S229      1.0  0.27411  0.75404  0.18259  1.0000
  H   H871      1.0  0.40201  0.89460  0.23316  1.0000
  H   H872      1.0  0.28635  0.75341  0.10300  1.0000
  C   C543      1.0  0.09405  0.78083  0.22546  1.0000
  C   C544      1.0  0.19267  0.75290  0.28804  1.0000
  H   H873      1.0  0.28831  0.83638  0.32091  1.0000
  H   H874      1.0  0.02233  0.76942  0.14441  1.0000
  H   H875      1.0  0.34313  0.75245  0.16566  1.0000
  N   N53       1.0  0.01221  0.76042  0.12053  1.0000
  H   H876      1.0  0.09736  0.87617  0.02636  1.0000
  C   C545      1.0  0.25742  0.75536  0.14934  1.0000
  C   C546      1.0  0.27765  0.84912  0.31490  1.0000
  H   H877      1.0  0.21188  0.76854  0.19921  1.0000
  H   H878      1.0  0.31559  0.85494  0.30557  1.0000
  H   H879      1.0  0.17729  0.76435  0.20996  1.0000
  H   H880      1.0  0.05598  0.77562  0.23787  1.0000
  N   N54       1.0  0.08681  0.76340  0.23831  1.0000
  C   C547      1.0  0.06681  0.76225  0.23450  1.0000
  H   H881      1.0  0.19283  0.75781  0.09479  1.0000
  H   H882      1.0  0.08050  0.75226  0.26959  1.0000
  H   H883      1.0  0.21626  0.75574  0.17828  1.0000
  H   H884      1.0  0.17922  0.75465  0.18722  1.0000
  C   C548      1.0  0.21581  0.75365  0.19468  1.0000
  H   H885      1.0  0.03379  0.75119  0.09608  1.0000
  C   C549      1.0  0.14148  0.74983  0.27417  1.0000
  H   H886      1.0  0.33282  0.76908  0.30957  1.0000
  C   C550      1.0  0.18347  0.75307  0.08566  1.0000
  H   H887      1.0  0.23115  0.74760  0.19778  1.0000
  C   C551      1.0  0.00735  0.78078  0.11006  1.0000
  H   H888      1.0  0.35745  0.75654  0.21377  1.0000
  C   C552      1.0  0.18110  0.75057  0.20314  1.0000
  H   H889      1.0  0.36686  0.75134  0.18908  1.0000
  H   H890      1.0  0.17519  0.75870  0.32500  1.0000
  H   H891      1.0  0.06095  0.74919  0.24382  1.0000
  H   H892      1.0  0.20016  0.74974  0.23356  1.0000
  H   H893      1.0  0.20574  0.74786  0.27718  1.0000
  C   C553      1.0  0.10064  0.74532  0.23386  1.0000
  H   H894      1.0  0.08157  0.84673  0.99461  1.0000
  H   H895      1.0  0.11597  0.74602  0.23605  1.0000
  H   H896      1.0  0.10339  0.87569  0.31563  1.0000
  N   N55       1.0  0.19578  0.74429  0.06868  1.0000
  C   C554      1.0  0.24813  0.74732  0.13711  1.0000
  H   H897      1.0  0.00814  0.78108  0.09383  1.0000
  H   H898      1.0  0.15855  0.74913  0.31352  1.0000
  H   H899      1.0  0.16213  0.74463  0.24787  1.0000
  C   C555      1.0  0.26320  0.74394  0.16677  1.0000
  H   H900      1.0  0.21145  0.74562  0.31972  1.0000
  H   H901      1.0  0.28810  0.74399  0.08016  1.0000
  C   C556      1.0  0.17257  0.74523  0.32006  1.0000
  C   C557      1.0  0.30757  0.74398  0.32657  1.0000
  H   H902      1.0  0.01440  0.74573  0.15045  1.0000
  C   C558      1.0  0.12580  0.74352  0.28815  1.0000
  C   C559      1.0  0.33257  0.76402  0.32579  1.0000
  H   H903      1.0  0.10142  0.74312  0.21822  1.0000
  S   S230      1.0  0.35813  0.86310  0.33918  1.0000
  Fe  Fe118     1.0  0.48639  0.88604  0.35261  1.0000
  H   H904      1.0  0.35768  0.75425  0.57760  1.0000
  C   C560      1.0  0.11343  0.78426  0.59105  1.0000
  S   S231      1.0  0.17246  0.74478  0.61762  1.0000
  S   S232      1.0  0.48637  0.89807  0.38065  1.0000
  Fe  Fe119     1.0  0.22431  0.82406  0.39324  1.0000
  S   S233      1.0  0.24584  0.82912  0.36515  1.0000
  S   S234      1.0  0.19388  0.81691  0.39234  1.0000
  Fe  Fe120     1.0  0.25642  0.82127  0.42006  1.0000
  S   S235      1.0  0.28024  0.82522  0.39372  1.0000
  S   S236      1.0  0.26612  0.81305  0.45054  1.0000
  Fe  Fe121     1.0  0.25708  0.84879  0.38107  1.0000
  S   S237      1.0  0.26568  0.87751  0.36491  1.0000
  Fe  Fe122     1.0  0.26659  0.80511  0.38048  1.0000
  S   S238      1.0  0.28212  0.77890  0.36615  1.0000
  S   S239      1.0  0.23371  0.84618  0.40826  1.0000
  S   S240      1.0  0.24471  0.79885  0.40783  1.0000
  Fe  Fe123     1.0  0.36302  0.83933  0.52977  1.0000
  S   S241      1.0  0.33372  0.85940  0.53513  1.0000
  S   S242      1.0  0.37081  0.81087  0.55080  1.0000
  Fe  Fe124     1.0  0.37989  0.86738  0.49393  1.0000
  S   S243      1.0  0.35155  0.88888  0.49762  1.0000
  S   S244      1.0  0.40004  0.88176  0.46746  1.0000
  Fe  Fe125     1.0  0.35271  0.88330  0.53030  1.0000
  S   S245      1.0  0.34534  0.90980  0.54713  1.0000
  Fe  Fe126     1.0  0.33540  0.86314  0.50178  1.0000
  S   S246      1.0  0.31055  0.86993  0.48277  1.0000
  S   S247      1.0  0.38195  0.86313  0.52662  1.0000
  S   S248      1.0  0.36369  0.84167  0.49654  1.0000
  H   H905      1.0  0.14248  0.77494  0.56163  1.0000
  Fe  Fe127     1.0  0.15757  0.76423  0.64022  1.0000
  S   S249      1.0  0.49714  0.85459  0.36476  1.0000
  H   H906      1.0  0.13798  0.81984  0.56224  1.0000
  H   H907      1.0  0.41173  0.83199  0.38913  1.0000
  H   H908      1.0  0.18403  0.78074  0.43883  1.0000
  C   C561      1.0  0.19970  0.77471  0.43330  1.0000
  H   H909      1.0  0.40336  0.95093  0.47633  1.0000
  H   H910      1.0  0.15197  0.76760  0.58455  1.0000
  C   C562      1.0  0.13742  0.80085  0.59977  1.0000
  H   H911      1.0  0.11291  0.82248  0.57519  1.0000
  H   H912      1.0  0.32924  0.83741  0.34395  1.0000
  C   C563      1.0  0.33229  0.86748  0.34429  1.0000
  H   H913      1.0  0.14199  0.78806  0.61105  1.0000
  Fe  Fe128     1.0  0.38852  0.96481  0.61746  1.0000
  S   S250      1.0  0.39883  0.94399  0.59433  1.0000
  H   H914      1.0  0.39488  0.94473  0.52252  1.0000
  S   S251      1.0  0.36373  0.96356  0.64338  1.0000
  C   C564      1.0  0.25009  0.77916  0.62244  1.0000
  C   C565      1.0  0.39381  0.91088  0.51045  1.0000
  C   C566      1.0  0.30099  0.85514  0.35245  1.0000
  C   C567      1.0  0.24417  0.77584  0.36281  1.0000
  H   H915      1.0  0.12014  0.80745  0.55579  1.0000
  C   C568      1.0  0.16449  0.83426  0.33590  1.0000
  H   H916      1.0  0.33088  0.88696  0.41629  1.0000
  C   C569      1.0  0.36008  0.91796  0.56151  1.0000
  C   C570      1.0  0.35194  0.93432  0.57127  1.0000
  C   C571      1.0  0.36338  0.94209  0.58187  1.0000
  C   C572      1.0  0.38329  0.93380  0.58254  1.0000
  C   C573      1.0  0.39145  0.91742  0.57282  1.0000
  C   C574      1.0  0.37987  0.90937  0.56259  1.0000
  H   H917      1.0  0.33666  0.94110  0.57054  1.0000
  H   H918      1.0  0.35688  0.95474  0.58918  1.0000
  H   H919      1.0  0.40679  0.91079  0.57334  1.0000
  H   H920      1.0  0.38628  0.89656  0.55552  1.0000
  C   C575      1.0  0.35248  0.80351  0.57077  1.0000
  C   C576      1.0  0.33224  0.80930  0.56968  1.0000
  C   C577      1.0  0.31794  0.80228  0.58524  1.0000
  C   C578      1.0  0.32373  0.78952  0.60206  1.0000
  C   C579      1.0  0.34395  0.78404  0.60341  1.0000
  C   C580      1.0  0.35828  0.79088  0.58773  1.0000
  H   H921      1.0  0.32759  0.81885  0.55663  1.0000
  H   H922      1.0  0.16039  0.78792  0.56725  1.0000
  H   H923      1.0  0.34853  0.77465  0.61656  1.0000
  H   H924      1.0  0.37392  0.78652  0.58874  1.0000
  C   C581      1.0  0.27814  0.82891  0.45981  1.0000
  C   C582      1.0  0.27416  0.84941  0.45443  1.0000
  C   C583      1.0  0.28385  0.86168  0.46207  1.0000
  C   C584      1.0  0.29794  0.85363  0.47482  1.0000
  C   C585      1.0  0.30193  0.83312  0.48023  1.0000
  C   C586      1.0  0.29187  0.82083  0.47294  1.0000
  H   H925      1.0  0.26337  0.85582  0.44462  1.0000
  H   H926      1.0  0.28048  0.87755  0.45799  1.0000
  H   H927      1.0  0.31265  0.82673  0.49011  1.0000
  H   H928      1.0  0.29491  0.80499  0.47732  1.0000
  C   C587      1.0  0.37224  0.93155  0.48862  1.0000
  C   C588      1.0  0.19009  0.76467  0.40543  1.0000
  H   H929      1.0  0.39910  0.89975  0.50027  1.0000
  H   H930      1.0  0.24108  0.79170  0.36120  1.0000
  H   H931      1.0  0.21953  0.76065  0.62171  1.0000
  H   H932      1.0  0.10070  0.79414  0.59824  1.0000
  H   H933      1.0  0.44643  0.97466  0.60932  1.0000
  C   C589      1.0  0.46195  0.85935  0.43486  1.0000
  C   C590      1.0  0.45134  0.87778  0.42827  1.0000
  C   C591      1.0  0.43242  0.88428  0.43845  1.0000
  C   C592      1.0  0.42380  0.87243  0.45529  1.0000
  C   C593      1.0  0.43430  0.85391  0.46186  1.0000
  C   C594      1.0  0.45333  0.84744  0.45170  1.0000
  H   H934      1.0  0.45776  0.88713  0.41542  1.0000
  H   H935      1.0  0.42444  0.89864  0.43327  1.0000
  H   H936      1.0  0.42784  0.84466  0.47483  1.0000
  H   H937      1.0  0.46141  0.83314  0.45691  1.0000
  C   C595      1.0  0.29111  0.87386  0.35602  1.0000
  H   H938      1.0  0.44976  0.87531  0.38067  1.0000
  H   H939      1.0  0.36948  0.94189  0.52429  1.0000
  H   H940      1.0  0.40346  0.85692  0.37816  1.0000
  H   H941      1.0  0.38060  0.90622  0.52057  1.0000
  C   C596      1.0  0.18803  0.83955  0.35596  1.0000
  C   C597      1.0  0.18384  0.82297  0.36981  1.0000
  C   C598      1.0  0.17036  0.81174  0.36632  1.0000
  H   H942      1.0  0.19713  0.77610  0.39448  1.0000
  H   H943      1.0  0.19820  0.84844  0.35857  1.0000
  H   H944      1.0  0.16690  0.79900  0.37700  1.0000
  C   C599      1.0  0.14714  0.78071  0.57369  1.0000
  S   S252      1.0  0.48564  0.85055  0.42209  1.0000
  C   C600      1.0  0.32157  0.85198  0.34634  1.0000
  H   H945      1.0  0.34757  0.76451  0.32911  1.0000
  H   H946      1.0  0.43867  0.95480  0.60090  1.0000
  H   H947      1.0  0.18999  0.75232  0.39738  1.0000
  H   H948      1.0  0.43276  0.85422  0.35260  1.0000
  H   H949      1.0  0.29342  0.86864  0.41803  1.0000
  C   C601      1.0  0.41275  0.84772  0.38907  1.0000
  C   C602      1.0  0.30177  0.88950  0.35330  1.0000
  H   H950      1.0  0.46113  0.84142  0.39539  1.0000
  H   H951      1.0  0.40604  0.85144  0.40409  1.0000
  H   H952      1.0  0.22911  0.76236  0.40491  1.0000
  H   H953      1.0  0.37942  0.96059  0.50579  1.0000
  S   S253      1.0  0.30526  0.78035  0.62082  1.0000
  N   N56       1.0  0.44806  0.97766  0.57766  1.0000
  H   H954      1.0  0.21413  0.77340  0.36093  1.0000
  Fe  Fe129     1.0  0.49847  0.86680  0.39230  1.0000
  C   C603      1.0  0.43419  0.87230  0.38375  1.0000
  H   H955      1.0  0.44111  0.95433  0.56515  1.0000
  H   H956      1.0  0.20793  0.77039  0.44618  1.0000
  N   N57       1.0  0.23477  0.77340  0.63934  1.0000
  H   H957      1.0  0.45719  0.84959  0.35899  1.0000
  N   N58       1.0  0.43357  0.85122  0.38389  1.0000
  H   H958      1.0  0.44543  0.82294  0.39926  1.0000
  H   H959      1.0  0.44268  0.82995  0.36372  1.0000
  H   H960      1.0  0.11708  0.77113  0.60234  1.0000
  C   C604      1.0  0.26329  0.76575  0.36495  1.0000
  C   C605      1.0  0.22884  0.76543  0.36267  1.0000
  H   H961      1.0  0.40561  0.91000  0.51961  1.0000
  C   C606      1.0  0.23252  0.74485  0.36494  1.0000
  H   H962      1.0  0.20616  0.78714  0.42340  1.0000
  H   H963      1.0  0.15029  0.80866  0.34699  1.0000
  C   C607      1.0  0.44537  0.83896  0.39876  1.0000
  N   N59       1.0  0.38889  0.93093  0.49940  1.0000
  C   C608      1.0  0.32243  0.88622  0.34776  1.0000
  N   N60       1.0  0.32497  0.85929  0.41115  1.0000
  C   C609      1.0  0.32986  0.87168  0.42415  1.0000
  C   C610      1.0  0.30545  0.86787  0.40499  1.0000
  C   C611      1.0  0.32419  0.83907  0.42206  1.0000
  C   C612      1.0  0.34038  0.85850  0.39334  1.0000
  H   H964      1.0  0.34421  0.86539  0.42959  1.0000
  H   H965      1.0  0.31833  0.87289  0.43758  1.0000
  H   H966      1.0  0.30545  0.88311  0.39663  1.0000
  H   H967      1.0  0.30127  0.85891  0.39519  1.0000
  H   H968      1.0  0.31317  0.83916  0.43587  1.0000
  H   H969      1.0  0.33876  0.83194  0.42657  1.0000
  H   H970      1.0  0.31980  0.82949  0.41298  1.0000
  H   H971      1.0  0.33737  0.84885  0.38349  1.0000
  H   H972      1.0  0.35538  0.85254  0.39737  1.0000
  H   H973      1.0  0.34102  0.87340  0.38432  1.0000
  H   H974      1.0  0.21122  0.79513  0.62841  1.0000
  H   H975      1.0  0.46717  0.95568  0.56190  1.0000
  H   H976      1.0  0.33392  0.74458  0.60779  1.0000
  C   C613      1.0  0.21859  0.79031  0.64188  1.0000
  H   H977      1.0  0.41637  0.97927  0.58122  1.0000
  N   N61       1.0  0.20091  0.75798  0.42257  1.0000
  H   H978      1.0  0.18084  0.85867  0.32914  1.0000
  H   H979      1.0  0.32173  0.77497  0.33378  1.0000
  H   H980      1.0  0.36917  0.74341  0.61056  1.0000
  H   H981      1.0  0.24383  0.78382  0.60832  1.0000
  C   C614      1.0  0.44193  0.84596  0.36398  1.0000
  C   C615      1.0  0.24388  0.76740  0.65764  1.0000
  H   H982      1.0  0.29609  0.75514  0.33355  1.0000
  H   H983      1.0  0.25676  0.79165  0.62494  1.0000
  H   H984      1.0  0.17442  0.77137  0.41006  1.0000
  H   H985      1.0  0.21488  0.75204  0.64788  1.0000
  C   C616      1.0  0.37441  0.87321  0.65902  1.0000
  C   C617      1.0  0.40647  0.93590  0.48502  1.0000
  H   H986      1.0  0.39044  0.90665  0.65160  1.0000
  H   H987      1.0  0.22417  0.80325  0.64483  1.0000
  H   H988      1.0  0.42628  0.88200  0.37202  1.0000
  H   H989      1.0  0.41108  0.92522  0.47421  1.0000
  H   H990      1.0  0.35860  0.92824  0.49913  1.0000
  H   H991      1.0  0.29278  0.84305  0.35438  1.0000
  C   C618      1.0  0.46266  0.99139  0.57351  1.0000
  H   H992      1.0  0.36371  0.87728  0.64821  1.0000
  S   S254      1.0  0.41174  0.96296  0.63681  1.0000
  H   H993      1.0  0.12543  0.81097  0.60760  1.0000
  H   H994      1.0  0.42731  0.87700  0.39830  1.0000
  H   H995      1.0  0.33078  0.89818  0.34622  1.0000
  C   C619      1.0  0.12521  0.81182  0.56845  1.0000
  H   H996      1.0  0.30233  0.80667  0.58409  1.0000
  C   C620      1.0  0.17813  0.84534  0.33929  1.0000
  C   C621      1.0  0.38298  0.94522  0.51357  1.0000
  H   H997      1.0  0.41937  0.93536  0.49266  1.0000
  H   H998      1.0  0.37594  0.92048  0.47823  1.0000
  H   H999      1.0  0.36837  0.94633  0.47974  1.0000
  C   C622      1.0  0.16095  0.81717  0.34928  1.0000
  N   N62       1.0  0.13080  0.79442  0.58324  1.0000
  H   H1000     1.0  0.25612  0.75463  0.65624  1.0000
  S   S255      1.0  0.45800  0.89382  0.33897  1.0000
  S   S256      1.0  0.16562  0.79403  0.64019  1.0000
  H   H1001     1.0  0.29413  0.90397  0.35610  1.0000
  Fe  Fe130     1.0  0.31316  0.75657  0.64628  1.0000
  C   C623      1.0  0.22653  0.75670  0.63543  1.0000
  C   C624      1.0  0.42784  0.98913  0.57772  1.0000
  C   C625      1.0  0.45210  0.96473  0.56225  1.0000
  H   H1002     1.0  0.10832  0.77873  0.57909  1.0000
  C   C626      1.0  0.22197  0.75066  0.41539  1.0000
  S   S257      1.0  0.12748  0.75613  0.64182  1.0000
  H   H1003     1.0  0.43943  0.84253  0.41397  1.0000
  H   H1004     1.0  0.46457  0.95655  0.59786  1.0000
  H   H1005     1.0  0.15046  0.80867  0.59450  1.0000
  C   C627      1.0  0.44950  0.96537  0.59729  1.0000
  H   H1006     1.0  0.38966  0.87144  0.65035  1.0000
  H   H1007     1.0  0.36457  0.91253  0.64913  1.0000
  H   H1008     1.0  0.26256  0.76674  0.62020  1.0000
  H   H1009     1.0  0.45115  0.97348  0.54721  1.0000
  H   H1010     1.0  0.47810  0.98328  0.57342  1.0000
  N   N63       1.0  0.32730  0.74397  0.33177  1.0000
  H   H1011     1.0  0.20678  0.78640  0.65452  1.0000
  H   H1012     1.0  0.31585  0.74854  0.36186  1.0000
  C   C628      1.0  0.37510  0.90745  0.66006  1.0000
  H   H1013     1.0  0.17599  0.74693  0.44167  1.0000
  C   C629      1.0  0.26706  0.74513  0.36681  1.0000
  H   H1014     1.0  0.23074  0.74579  0.42784  1.0000
  H   H1015     1.0  0.23824  0.74357  0.63360  1.0000
  H   H1016     1.0  0.42106  0.89180  0.32740  1.0000
  C   C630      1.0  0.16280  0.93783  0.75816  1.0000
  S   S258      1.0  0.21455  0.76178  0.85507  1.0000
  C   C631      1.0  0.15029  0.75891  0.94670  1.0000
  C   C632      1.0  0.28071  0.76695  0.82379  1.0000
  H   H1017     1.0  0.29016  0.81403  0.67283  1.0000
  Fe  Fe131     1.0  0.14167  0.85166  0.77850  1.0000
  S   S259      1.0  0.17445  0.84207  0.77687  1.0000
  S   S260      1.0  0.12376  0.86423  0.80556  1.0000
  Fe  Fe132     1.0  0.14151  0.83864  0.73813  1.0000
  S   S261      1.0  0.17436  0.82882  0.73347  1.0000
  S   S262      1.0  0.12316  0.83156  0.71726  1.0000
  Fe  Fe133     1.0  0.16975  0.81555  0.76554  1.0000
  S   S263      1.0  0.18169  0.78359  0.77379  1.0000
  Fe  Fe134     1.0  0.17564  0.85643  0.74501  1.0000
  S   S264      1.0  0.19895  0.87568  0.73335  1.0000
  S   S265      1.0  0.13669  0.82365  0.76988  1.0000
  S   S266      1.0  0.14297  0.86782  0.74707  1.0000
  Fe  Fe135     1.0  0.34283  0.84249  0.73276  1.0000
  S   S267      1.0  0.35162  0.86164  0.75122  1.0000
  S   S268      1.0  0.36078  0.83338  0.70445  1.0000
  Fe  Fe136     1.0  0.30185  0.84167  0.75763  1.0000
  S   S269      1.0  0.30670  0.86128  0.77775  1.0000
  S   S270      1.0  0.27612  0.82529  0.76297  1.0000
  Fe  Fe137     1.0  0.32084  0.87864  0.74977  1.0000
  S   S271      1.0  0.31379  0.91144  0.73991  1.0000
  Fe  Fe138     1.0  0.33677  0.84238  0.77748  1.0000
  S   S272      1.0  0.34681  0.83020  0.80724  1.0000
  S   S273      1.0  0.31303  0.86060  0.72962  1.0000
  S   S274      1.0  0.33082  0.82173  0.75892  1.0000
  N   N64       1.0  0.17615  0.92096  0.76743  1.0000
  Fe  Fe139     1.0  0.14005  0.94815  0.90941  1.0000
  S   S275      1.0  0.16858  0.93659  0.89126  1.0000
  S   S276      1.0  0.13079  0.93425  0.94140  1.0000
  Fe  Fe140     1.0  0.17331  0.96816  0.88366  1.0000
  Fe  Fe141     1.0  0.15128  0.94282  0.86576  1.0000
  S   S277      1.0  0.16246  0.92135  0.84339  1.0000
  H   H1018     1.0  0.13383  0.78823  0.94782  1.0000
  S   S278      1.0  0.12192  0.95260  0.88444  1.0000
  C   C633      1.0  0.33479  0.92126  0.72686  1.0000
  C   C634      1.0  0.35339  0.91432  0.73275  1.0000
  C   C635      1.0  0.37022  0.92176  0.72182  1.0000
  C   C636      1.0  0.36859  0.93596  0.70482  1.0000
  C   C637      1.0  0.34995  0.94307  0.69898  1.0000
  C   C638      1.0  0.33304  0.93578  0.71007  1.0000
  H   H1019     1.0  0.35476  0.90344  0.74593  1.0000
  C   C639      1.0  0.15550  0.81867  0.83231  1.0000
  H   H1020     1.0  0.31868  0.94094  0.70536  1.0000
  C   C640      1.0  0.13435  0.87928  0.81736  1.0000
  C   C641      1.0  0.15492  0.87725  0.81628  1.0000
  C   C642      1.0  0.16311  0.88969  0.82520  1.0000
  C   C643      1.0  0.15089  0.90440  0.83522  1.0000
  C   C644      1.0  0.13025  0.90607  0.83690  1.0000
  C   C645      1.0  0.12202  0.89344  0.82808  1.0000
  H   H1021     1.0  0.16459  0.86612  0.80856  1.0000
  H   H1022     1.0  0.17907  0.88806  0.82414  1.0000
  H   H1023     1.0  0.12067  0.91736  0.84454  1.0000
  H   H1024     1.0  0.10606  0.89499  0.82918  1.0000
  C   C646      1.0  0.22086  0.86195  0.74088  1.0000
  C   C647      1.0  0.23717  0.87111  0.74079  1.0000
  C   C648      1.0  0.25424  0.86000  0.74787  1.0000
  C   C649      1.0  0.25490  0.83977  0.75486  1.0000
  C   C650      1.0  0.23872  0.83064  0.75469  1.0000
  C   C651      1.0  0.22177  0.84170  0.74765  1.0000
  H   H1025     1.0  0.23654  0.88677  0.73549  1.0000
  H   H1026     1.0  0.26681  0.86707  0.74797  1.0000
  H   H1027     1.0  0.23927  0.81496  0.75989  1.0000
  H   H1028     1.0  0.20945  0.83443  0.74740  1.0000
  C   C652      1.0  0.14503  0.91273  0.95260  1.0000
  C   C653      1.0  0.15974  0.90096  0.94130  1.0000
  C   C654      1.0  0.17092  0.88402  0.95071  1.0000
  C   C655      1.0  0.16718  0.87843  0.97142  1.0000
  C   C656      1.0  0.15244  0.89015  0.98273  1.0000
  C   C657      1.0  0.14149  0.90731  0.97334  1.0000
  H   H1029     1.0  0.16238  0.90478  0.92531  1.0000
  H   H1030     1.0  0.18238  0.87507  0.94188  1.0000
  H   H1031     1.0  0.34818  0.87583  0.69251  1.0000
  H   H1032     1.0  0.14850  0.79345  0.73452  1.0000
  H   H1033     1.0  0.20592  0.90552  0.76083  1.0000
  H   H1034     1.0  0.29612  0.79986  0.82167  1.0000
  C   C658      1.0  0.33565  0.79969  0.83593  1.0000
  C   C659      1.0  0.34219  0.80591  0.81571  1.0000
  C   C660      1.0  0.34490  0.79266  0.80227  1.0000
  H   H1035     1.0  0.17164  0.94183  0.93480  1.0000
  H   H1036     1.0  0.14790  0.93993  0.76753  1.0000
  H   H1037     1.0  0.33362  0.80991  0.84640  1.0000
  H   H1038     1.0  0.35099  0.79691  0.78692  1.0000
  H   H1039     1.0  0.16893  0.95182  0.75609  1.0000
  C   C661      1.0  0.20731  0.76778  0.83156  1.0000
  C   C662      1.0  0.20714  0.78692  0.82089  1.0000
  C   C663      1.0  0.19960  0.79192  0.80284  1.0000
  C   C664      1.0  0.19255  0.77767  0.79540  1.0000
  C   C665      1.0  0.19334  0.75845  0.80579  1.0000
  C   C666      1.0  0.20048  0.75357  0.82395  1.0000
  H   H1040     1.0  0.21222  0.79801  0.82685  1.0000
  H   H1041     1.0  0.19925  0.80673  0.79469  1.0000
  H   H1042     1.0  0.13032  0.91651  0.98218  1.0000
  H   H1043     1.0  0.31199  0.82361  0.67465  1.0000
  H   H1044     1.0  0.27225  0.80621  0.72728  1.0000
  H   H1045     1.0  0.14272  0.77798  0.75785  1.0000
  H   H1046     1.0  0.29786  0.79465  0.79696  1.0000
  C   C667      1.0  0.15131  0.76547  0.71153  1.0000
  C   C668      1.0  0.35134  0.78313  0.68938  1.0000
  S   S279      1.0  0.14614  0.97953  0.90376  1.0000
  H   H1047     1.0  0.36163  0.77541  0.86803  1.0000
  S   S280      1.0  0.18228  0.85771  0.98276  1.0000
  C   C669      1.0  0.35579  0.77626  0.72399  1.0000
  C   C670      1.0  0.36003  0.79532  0.72265  1.0000
  C   C671      1.0  0.35965  0.80844  0.70481  1.0000
  H   H1048     1.0  0.23309  0.94176  0.93566  1.0000
  H   H1049     1.0  0.35563  0.76634  0.73799  1.0000
  H   H1050     1.0  0.36338  0.79994  0.73554  1.0000
  H   H1051     1.0  0.21448  0.96100  0.94492  1.0000
  H   H1052     1.0  0.31706  0.79965  0.71621  1.0000
  H   H1053     1.0  0.21568  0.91562  0.95756  1.0000
  C   C672      1.0  0.15485  0.82375  0.68734  1.0000
  C   C673      1.0  0.13513  0.82187  0.69545  1.0000
  H   H1054     1.0  0.13457  0.74465  0.75850  1.0000
  H   H1055     1.0  0.16278  0.77919  0.83366  1.0000
  C   C674      1.0  0.16741  0.90275  0.76981  1.0000
  H   H1056     1.0  0.16289  0.83198  0.69399  1.0000
  C   C675      1.0  0.13891  0.79912  0.86078  1.0000
  N   N65       1.0  0.21786  0.76621  0.93474  1.0000
  C   C676      1.0  0.23001  0.76397  0.91514  1.0000
  C   C677      1.0  0.19733  0.77546  0.93205  1.0000
  C   C678      1.0  0.21764  0.74659  0.94720  1.0000
  C   C679      1.0  0.35128  0.89012  0.68333  1.0000
  H   H1057     1.0  0.20869  0.74777  0.96213  1.0000
  H   H1058     1.0  0.32012  0.97245  0.72377  1.0000
  H   H1059     1.0  0.12828  0.78847  0.86630  1.0000
  H   H1060     1.0  0.19013  0.76613  0.92505  1.0000
  H   H1061     1.0  0.18789  0.77769  0.94654  1.0000
  H   H1062     1.0  0.19692  0.79013  0.92244  1.0000
  H   H1063     1.0  0.07215  0.88238  0.98193  1.0000
  S   S281      1.0  0.14247  0.75687  0.92423  1.0000
  H   H1064     1.0  0.40164  0.88036  0.67858  1.0000
  H   H1065     1.0  0.15137  0.78070  0.70329  1.0000
  C   C680      1.0  0.16227  0.76305  0.98255  1.0000
  C   C681      1.0  0.16403  0.81549  0.67020  1.0000
  N   N66       1.0  0.29288  0.81731  0.70246  1.0000
  H   H1066     1.0  0.24566  0.75730  0.91665  1.0000
  H   H1067     1.0  0.13341  0.81222  0.86848  1.0000
  H   H1068     1.0  0.29210  0.84868  0.69413  1.0000
  C   C682      1.0  0.25764  0.79524  0.83349  1.0000
  H   H1069     1.0  0.34890  0.90103  0.69370  1.0000
  H   H1070     1.0  0.28089  0.81550  0.80478  1.0000
  H   H1071     1.0  0.31066  0.79803  0.68287  1.0000
  H   H1072     1.0  0.12280  0.81888  0.81674  1.0000
  H   H1073     1.0  0.11246  0.76537  0.72389  1.0000
  H   H1074     1.0  0.19750  0.93472  0.96765  1.0000
  H   H1075     1.0  0.28853  0.76630  0.83660  1.0000
  N   N67       1.0  0.37171  0.88824  0.67219  1.0000
  H   H1076     1.0  0.25020  0.81052  0.82869  1.0000
  H   H1077     1.0  0.16601  0.77224  0.74220  1.0000
  H   H1078     1.0  0.16522  0.89968  0.75523  1.0000
  C   C683      1.0  0.14990  0.77782  0.74211  1.0000
  H   H1079     1.0  0.18976  0.91615  0.95745  1.0000
  S   S282      1.0  0.29981  0.76161  0.67739  1.0000
  H   H1080     1.0  0.27543  0.84146  0.71613  1.0000
  H   H1081     1.0  0.20946  0.93454  0.90489  1.0000
  N   N68       1.0  0.38658  0.75350  0.85976  1.0000
  H   H1082     1.0  0.34858  0.95396  0.68583  1.0000
  H   H1083     1.0  0.11777  0.78951  0.72426  1.0000
  H   H1084     1.0  0.38460  0.91631  0.72646  1.0000
  C   C684      1.0  0.14366  0.77631  0.95511  1.0000
  H   H1085     1.0  0.24912  0.77763  0.80508  1.0000
  C   C685      1.0  0.16292  0.74356  0.95635  1.0000
  H   H1086     1.0  0.34226  0.76356  0.79810  1.0000
  C   C686      1.0  0.17860  0.92461  0.78711  1.0000
  N   N69       1.0  0.20295  0.93816  0.93571  1.0000
  C   C687      1.0  0.20837  0.92549  0.92001  1.0000
  C   C688      1.0  0.37711  0.77433  0.85988  1.0000
  C   C689      1.0  0.21833  0.95076  0.93374  1.0000
  C   C690      1.0  0.20145  0.92563  0.95546  1.0000
  H   H1087     1.0  0.19711  0.91576  0.92104  1.0000
  H   H1088     1.0  0.22297  0.91583  0.92109  1.0000
  C   C691      1.0  0.19574  0.91862  0.75461  1.0000
  C   C692      1.0  0.37517  0.74362  0.84966  1.0000
  H   H1089     1.0  0.16412  0.92639  0.79723  1.0000
  C   C693      1.0  0.14978  0.77847  0.97281  1.0000
  H   H1090     1.0  0.11595  0.82820  0.83979  1.0000
  H   H1091     1.0  0.22007  0.96003  0.91877  1.0000
  H   H1092     1.0  0.08548  0.90017  0.98687  1.0000
  H   H1093     1.0  0.34879  0.98628  0.70207  1.0000
  H   H1094     1.0  0.31971  0.82513  0.70773  1.0000
  H   H1095     1.0  0.28677  0.78778  0.71326  1.0000
  N   N70       1.0  0.27158  0.78739  0.81687  1.0000
  C   C694      1.0  0.28205  0.83777  0.70114  1.0000
  H   H1096     1.0  0.16056  0.93549  0.74331  1.0000
  C   C695      1.0  0.26063  0.78745  0.80046  1.0000
  C   C696      1.0  0.31009  0.98438  0.71571  1.0000
  C   C697      1.0  0.30885  0.81501  0.71451  1.0000
  C   C698      1.0  0.38605  0.88213  0.68639  1.0000
  H   H1097     1.0  0.30669  0.97851  0.70304  1.0000
  C   C699      1.0  0.34028  0.77363  0.80871  1.0000
  H   H1098     1.0  0.26972  0.84004  0.69231  1.0000
  H   H1099     1.0  0.20308  0.93182  0.75289  1.0000
  H   H1100     1.0  0.10415  0.86280  0.96745  1.0000
  S   S283      1.0  0.15822  0.97371  0.85688  1.0000
  H   H1101     1.0  0.24583  0.78592  0.83938  1.0000
  H   H1102     1.0  0.10938  0.81034  0.69221  1.0000
  H   H1103     1.0  0.22687  0.79379  0.93576  1.0000
  C   C700      1.0  0.30174  0.81307  0.68229  1.0000
  H   H1104     1.0  0.19435  0.91630  0.73948  1.0000
  C   C701      1.0  0.12472  0.81164  0.68625  1.0000
  H   H1105     1.0  0.21763  0.78077  0.95955  1.0000
  H   H1106     1.0  0.22415  0.75421  0.90739  1.0000
  C   C702      1.0  0.35094  0.77033  0.70753  1.0000
  C   C703      1.0  0.35588  0.80218  0.68798  1.0000
  H   H1107     1.0  0.15038  0.83252  0.83888  1.0000
  H   H1108     1.0  0.25293  0.80255  0.79537  1.0000
  H   H1109     1.0  0.12459  0.85671  0.98125  1.0000
  N   N71       1.0  0.14084  0.76560  0.73212  1.0000
  H   H1110     1.0  0.30289  0.81831  0.72971  1.0000
  H   H1111     1.0  0.38454  0.89326  0.69641  1.0000
  S   S284      1.0  0.39023  0.94370  0.69061  1.0000
  C   C704      1.0  0.27902  0.80337  0.71197  1.0000
  H   H1112     1.0  0.18782  0.74742  0.80013  1.0000
  H   H1113     1.0  0.15268  0.90383  0.77957  1.0000
  C   C705      1.0  0.33126  0.78043  0.84249  1.0000
  S   S285      1.0  0.16383  0.74415  0.87092  1.0000
  H   H1114     1.0  0.26936  0.75698  0.82875  1.0000
  H   H1115     1.0  0.26667  0.80467  0.70337  1.0000
  H   H1116     1.0  0.32586  0.77576  0.85801  1.0000
  H   H1117     1.0  0.18423  0.96040  0.91880  1.0000
  S   S286      1.0  0.20437  0.97543  0.87966  1.0000
  C   C706      1.0  0.33345  0.76748  0.82877  1.0000
  C   C707      1.0  0.18360  0.95080  0.93354  1.0000
  C   C708      1.0  0.14250  0.74517  0.74294  1.0000
  H   H1118     1.0  0.18508  0.93827  0.78596  1.0000
  H   H1119     1.0  0.17894  0.96058  0.94511  1.0000
  H   H1120     1.0  0.34781  0.77849  0.67657  1.0000
  H   H1121     1.0  0.37209  0.85849  0.66770  1.0000
  C   C709      1.0  0.12165  0.81445  0.83316  1.0000
  H   H1122     1.0  0.29189  0.76074  0.81187  1.0000
  H   H1123     1.0  0.23284  0.76286  0.67076  1.0000
  S   S287      1.0  0.32771  0.74354  0.83582  1.0000
  H   H1124     1.0  0.15756  0.82304  0.81589  1.0000
  C   C710      1.0  0.22648  0.77883  0.94468  1.0000
  H   H1125     1.0  0.11121  0.77389  0.74715  1.0000
  C   C711      1.0  0.28728  0.79988  0.80981  1.0000
  H   H1126     1.0  0.18860  0.91219  0.79456  1.0000
  H   H1127     1.0  0.11029  0.80451  0.83799  1.0000
  C   C712      1.0  0.13413  0.80271  0.66960  1.0000
  H   H1128     1.0  0.15037  0.79059  0.81290  1.0000
  H   H1129     1.0  0.37633  0.78240  0.84449  1.0000
  H   H1130     1.0  0.17725  0.88962  0.77643  1.0000
  H   H1131     1.0  0.16708  0.75827  0.71117  1.0000
  C   C713      1.0  0.11963  0.77392  0.73184  1.0000
  H   H1132     1.0  0.17032  0.81197  0.83652  1.0000
  H   H1133     1.0  0.29593  0.98728  0.72607  1.0000
  Fe  Fe142     1.0  0.13032  0.98328  0.87745  1.0000
  H   H1134     1.0  0.14468  0.79201  0.97898  1.0000
  H   H1135     1.0  0.27081  0.78239  0.78733  1.0000
  C   C714      1.0  0.40714  0.75273  0.84904  1.0000
  H   H1136     1.0  0.15336  0.79187  0.86561  1.0000
  C   C715      1.0  0.14826  0.78691  0.82943  1.0000
  H   H1137     1.0  0.13770  0.77610  0.83395  1.0000
  N   N72       1.0  0.14107  0.80478  0.83893  1.0000
  H   H1138     1.0  0.35559  0.81231  0.67414  1.0000
  S   S288      1.0  0.34303  0.74746  0.71052  1.0000
  H   H1139     1.0  0.23024  0.77843  0.90521  1.0000
  H   H1140     1.0  0.24198  0.77222  0.94697  1.0000
  H   H1141     1.0  0.41620  0.76006  0.85625  1.0000
  H   H1142     1.0  0.11624  0.88190  0.97143  1.0000
  H   H1143     1.0  0.37312  0.91913  0.66952  1.0000
  H   H1144     1.0  0.40741  0.76028  0.83337  1.0000
  H   H1145     1.0  0.33491  0.99237  0.68169  1.0000
  H   H1146     1.0  0.14406  0.75746  0.70313  1.0000
  C   C716      1.0  0.16862  0.74553  0.97431  1.0000
  H   H1147     1.0  0.38369  0.86780  0.69598  1.0000
  C   C717      1.0  0.11111  0.86771  0.97853  1.0000
  Fe  Fe143     1.0  0.38658  0.96429  0.66208  1.0000
  H   H1148     1.0  0.33999  0.89502  0.67320  1.0000
  H   H1149     1.0  0.38543  0.78235  0.86718  1.0000
  H   H1150     1.0  0.17913  0.81736  0.66383  1.0000
  H   H1151     1.0  0.26546  0.79565  0.84602  1.0000
  H   H1152     1.0  0.37440  0.75101  0.83406  1.0000
  C   C718      1.0  0.08026  0.88578  0.99300  1.0000
  H   H1153     1.0  0.12601  0.79459  0.66289  1.0000
  H   H1154     1.0  0.37155  0.74374  0.88903  1.0000
  H   H1155     1.0  0.39549  0.75011  0.88857  1.0000
  H   H1156     1.0  0.35963  0.74387  0.85745  1.0000
  C   C719      1.0  0.15378  0.80472  0.66143  1.0000
  Fe  Fe144     1.0  0.32813  0.74345  0.68586  1.0000
  C   C720      1.0  0.38683  0.74329  0.88044  1.0000
  H   H1157     1.0  0.25034  0.77958  0.66105  1.0000
  H   H1158     1.0  0.72837  0.23060  0.16591  1.0000
  N   N73       1.0  0.60835  0.19991  0.13539  1.0000
  H   H1159     1.0  0.80345  0.02055  0.23949  1.0000
  Fe  Fe145     1.0  0.69827  0.22837  0.12192  1.0000
  S   S289      1.0  0.64735  0.13792  0.30274  1.0000
  Fe  Fe146     1.0  0.68563  0.09180  0.29114  1.0000
  S   S290      1.0  0.66403  0.10661  0.27058  1.0000
  S   S291      1.0  0.70828  0.06514  0.28594  1.0000
  Fe  Fe147     1.0  0.67135  0.13498  0.27613  1.0000
  S   S292      1.0  0.68400  0.15906  0.25343  1.0000
  Fe  Fe148     1.0  0.64211  0.10811  0.29887  1.0000
  H   H1160     1.0  0.72420  0.13691  0.25853  1.0000
  S   S293      1.0  0.69480  0.11973  0.29468  1.0000
  H   H1161     1.0  0.76229  0.11415  0.22063  1.0000
  Fe  Fe149     1.0  0.83541  0.07294  0.27455  1.0000
  S   S294      1.0  0.80264  0.07648  0.27504  1.0000
  S   S295      1.0  0.85582  0.04975  0.25778  1.0000
  Fe  Fe150     1.0  0.83126  0.10960  0.29565  1.0000
  S   S296      1.0  0.79814  0.11511  0.29701  1.0000
  C   C721      1.0  0.76468  0.22707  0.12223  1.0000
  Fe  Fe151     1.0  0.80033  0.08240  0.30610  1.0000
  H   H1162     1.0  0.81267  0.19468  0.06908  1.0000
  Fe  Fe152     1.0  0.80413  0.10857  0.26595  1.0000
  S   S297      1.0  0.78940  0.12498  0.24021  1.0000
  S   S298      1.0  0.83320  0.07683  0.30677  1.0000
  S   S299      1.0  0.83707  0.10510  0.26353  1.0000
  Fe  Fe153     1.0  0.84987  0.13949  0.04789  1.0000
  S   S300      1.0  0.86856  0.10939  0.05355  1.0000
  S   S301      1.0  0.84983  0.16808  0.05960  1.0000
  Fe  Fe154     1.0  0.82829  0.12672  0.01814  1.0000
  S   S302      1.0  0.84453  0.09564  0.02261  1.0000
  Fe  Fe155     1.0  0.83997  0.09787  0.05523  1.0000
  S   S303      1.0  0.82679  0.07590  0.08061  1.0000
  Fe  Fe156     1.0  0.87190  0.10955  0.02029  1.0000
  S   S304      1.0  0.82115  0.12809  0.05093  1.0000
  C   C722      1.0  0.74303  0.09999  0.25626  1.0000
  C   C723      1.0  0.78761  0.17717  0.05689  1.0000
  H   H1163     1.0  0.59827  0.18593  0.11479  1.0000
  S   S305      1.0  0.78961  0.21636  0.22918  1.0000
  H   H1164     1.0  0.79854  0.16334  0.10384  1.0000
  Fe  Fe157     1.0  0.83021  0.21240  0.16057  1.0000
  S   S306      1.0  0.84054  0.18278  0.14947  1.0000
  H   H1165     1.0  0.74825  0.13800  0.24402  1.0000
  S   S307      1.0  0.79744  0.22002  0.17083  1.0000
  H   H1166     1.0  0.76571  0.18561  0.10337  1.0000
  C   C724      1.0  0.58813  0.07300  0.32212  1.0000
  H   H1167     1.0  0.81563  0.04333  0.25609  1.0000
  C   C725      1.0  0.64027  0.02501  0.31682  1.0000
  S   S308      1.0  0.73086  0.21723  0.11445  1.0000
  S   S309      1.0  0.67447  0.21000  0.12389  1.0000
  S   S310      1.0  0.68700  0.23796  0.15171  1.0000
  S   S311      1.0  0.87406  0.99656  0.12309  1.0000
  Fe  Fe158     1.0  0.80574  0.22554  0.19868  1.0000
  Fe  Fe159     1.0  0.67043  0.12032  0.32066  1.0000
  H   H1168     1.0  0.77184  0.21254  0.11928  1.0000
  C   C726      1.0  0.84759  0.17167  0.08473  1.0000
  C   C727      1.0  0.84545  0.19101  0.08890  1.0000
  C   C728      1.0  0.84280  0.19471  0.10862  1.0000
  C   C729      1.0  0.84272  0.17901  0.12443  1.0000
  C   C730      1.0  0.84494  0.15965  0.12028  1.0000
  C   C731      1.0  0.84720  0.15599  0.10056  1.0000
  H   H1169     1.0  0.84584  0.20325  0.07677  1.0000
  H   H1170     1.0  0.84127  0.20966  0.11155  1.0000
  H   H1171     1.0  0.84500  0.14738  0.13238  1.0000
  H   H1172     1.0  0.84887  0.14103  0.09759  1.0000
  C   C732      1.0  0.66458  0.19148  0.32456  1.0000
  H   H1173     1.0  0.78239  0.20901  0.31881  1.0000
  S   S312      1.0  0.63562  0.23995  0.08840  1.0000
  S   S313      1.0  0.83828  0.21566  0.18978  1.0000
  S   S314      1.0  0.64544  0.20177  0.17713  1.0000
  C   C733      1.0  0.78765  0.15058  0.23790  1.0000
  C   C734      1.0  0.78502  0.16225  0.21958  1.0000
  C   C735      1.0  0.78517  0.18260  0.21697  1.0000
  C   C736      1.0  0.78737  0.19137  0.23284  1.0000
  C   C737      1.0  0.78907  0.17983  0.25143  1.0000
  C   C738      1.0  0.78954  0.15936  0.25388  1.0000
  H   H1174     1.0  0.78357  0.15548  0.20720  1.0000
  H   H1175     1.0  0.78368  0.19143  0.20265  1.0000
  H   H1176     1.0  0.79086  0.18658  0.26370  1.0000
  H   H1177     1.0  0.79153  0.15043  0.26807  1.0000
  C   C739      1.0  0.65232  0.05266  0.29456  1.0000
  C   C740      1.0  0.67322  0.17044  0.23214  1.0000
  C   C741      1.0  0.68313  0.18389  0.21792  1.0000
  C   C742      1.0  0.67488  0.19347  0.20089  1.0000
  C   C743      1.0  0.65658  0.18973  0.19806  1.0000
  C   C744      1.0  0.64672  0.17623  0.21225  1.0000
  C   C745      1.0  0.65504  0.16654  0.22921  1.0000
  H   H1178     1.0  0.69722  0.18694  0.22011  1.0000
  H   H1179     1.0  0.68258  0.20383  0.19004  1.0000
  H   H1180     1.0  0.63254  0.17330  0.21017  1.0000
  H   H1181     1.0  0.64726  0.15625  0.24010  1.0000
  H   H1182     1.0  0.66531  0.06028  0.28805  1.0000
  C   C746      1.0  0.72699  0.06510  0.29979  1.0000
  C   C747      1.0  0.74629  0.05561  0.29411  1.0000
  C   C748      1.0  0.76166  0.05727  0.30399  1.0000
  H   H1183     1.0  0.61470  0.21985  0.15270  1.0000
  H   H1184     1.0  0.63436  0.02042  0.30482  1.0000
  H   H1185     1.0  0.62801  0.03505  0.32447  1.0000
  H   H1186     1.0  0.74954  0.04757  0.28165  1.0000
  H   H1187     1.0  0.77665  0.05017  0.29938  1.0000
  H   H1188     1.0  0.88769  0.03977  0.16970  1.0000
  H   H1189     1.0  0.57968  0.07758  0.30993  1.0000
  C   C749      1.0  0.86038  0.01804  0.11090  1.0000
  C   C750      1.0  0.87056  0.03034  0.09556  1.0000
  C   C751      1.0  0.86051  0.04806  0.08610  1.0000
  C   C752      1.0  0.84011  0.05365  0.09187  1.0000
  C   C753      1.0  0.82991  0.04134  0.10721  1.0000
  C   C754      1.0  0.83995  0.02360  0.11665  1.0000
  H   H1190     1.0  0.88636  0.02619  0.09100  1.0000
  H   H1191     1.0  0.86855  0.05736  0.07432  1.0000
  H   H1192     1.0  0.81410  0.04549  0.11167  1.0000
  H   H1193     1.0  0.83185  0.01420  0.12825  1.0000
  C   C755      1.0  0.83261  0.00740  0.22691  1.0000
  C   C756      1.0  0.85302  0.00748  0.22523  1.0000
  C   C757      1.0  0.85992  0.02056  0.23467  1.0000
  C   C758      1.0  0.84653  0.03366  0.24589  1.0000
  C   C759      1.0  0.82614  0.03358  0.24743  1.0000
  C   C760      1.0  0.81925  0.02053  0.23802  1.0000
  H   H1194     1.0  0.74052  0.21233  0.18359  1.0000
  N   N74       1.0  0.85132  0.15506  0.21741  1.0000
  C   C761      1.0  0.83822  0.14165  0.21474  1.0000
  C   C762      1.0  0.86604  0.14414  0.23010  1.0000
  C   C763      1.0  0.83923  0.17154  0.22702  1.0000
  C   C764      1.0  0.86171  0.16295  0.19777  1.0000
  H   H1195     1.0  0.82976  0.13579  0.22919  1.0000
  H   H1196     1.0  0.84681  0.12879  0.20789  1.0000
  H   H1197     1.0  0.82714  0.14939  0.20497  1.0000
  H   H1198     1.0  0.87503  0.13118  0.22366  1.0000
  H   H1199     1.0  0.87645  0.15374  0.23198  1.0000
  H   H1200     1.0  0.85866  0.13853  0.24525  1.0000
  H   H1201     1.0  0.84849  0.18223  0.22893  1.0000
  H   H1202     1.0  0.83137  0.16611  0.24200  1.0000
  H   H1203     1.0  0.82771  0.17984  0.21803  1.0000
  H   H1204     1.0  0.87160  0.17334  0.19904  1.0000
  H   H1205     1.0  0.85095  0.17120  0.18788  1.0000
  H   H1206     1.0  0.87091  0.15094  0.18999  1.0000
  H   H1207     1.0  0.70712  0.12102  0.22793  1.0000
  C   C765      1.0  0.62953  0.19274  0.12870  1.0000
  H   H1208     1.0  0.60238  0.21089  0.10565  1.0000
  H   H1209     1.0  0.75820  0.17167  0.08754  1.0000
  H   H1210     1.0  0.60941  0.18559  0.16552  1.0000
  C   C766      1.0  0.87726  0.02930  0.17028  1.0000
  H   H1211     1.0  0.68720  0.02809  0.29255  1.0000
  C   C767      1.0  0.72287  0.07537  0.31599  1.0000
  C   C768      1.0  0.67615  0.20714  0.29136  1.0000
  H   H1212     1.0  0.75838  0.10214  0.25690  1.0000
  N   N75       1.0  0.68105  0.19095  0.30763  1.0000
  Fe  Fe160     1.0  0.66179  0.22168  0.15246  1.0000
  H   H1213     1.0  0.67813  0.00738  0.30882  1.0000
  H   H1214     1.0  0.71230  0.19261  0.30184  1.0000
  H   H1215     1.0  0.88412  0.01924  0.15922  1.0000
  S   S315      1.0  0.66341  0.09096  0.31872  1.0000
  N   N76       1.0  0.85753  0.03984  0.16611  1.0000
  S   S316      1.0  0.61215  0.09912  0.30141  1.0000
  H   H1216     1.0  0.74084  0.12210  0.20848  1.0000
  C   C769      1.0  0.60093  0.18636  0.15310  1.0000
  C   C770      1.0  0.74690  0.11156  0.22087  1.0000
  C   C771      1.0  0.84435  0.02531  0.16679  1.0000
  N   N77       1.0  0.73438  0.11416  0.24022  1.0000
  H   H1217     1.0  0.82949  0.03262  0.16316  1.0000
  H   H1218     1.0  0.86883  0.06364  0.14527  1.0000
  H   H1219     1.0  0.78037  0.16443  0.05621  1.0000
  H   H1220     1.0  0.84293  0.17076  0.31910  1.0000
  C   C772      1.0  0.74667  0.23773  0.20586  1.0000
  H   H1221     1.0  0.86722  0.04269  0.13455  1.0000
  H   H1222     1.0  0.87621  0.02013  0.18529  1.0000
  H   H1223     1.0  0.85077  0.01498  0.15598  1.0000
  C   C773      1.0  0.73820  0.07683  0.32602  1.0000
  C   C774      1.0  0.59691  0.20074  0.11917  1.0000
  H   H1224     1.0  0.69790  0.20768  0.31940  1.0000
  C   C775      1.0  0.67367  0.02113  0.29857  1.0000
  H   H1225     1.0  0.63860  0.19184  0.14061  1.0000
  H   H1226     1.0  0.63571  0.20274  0.11548  1.0000
  N   N78       1.0  0.78725  0.17982  0.07765  1.0000
  C   C776      1.0  0.68396  0.17183  0.30044  1.0000
  S   S317      1.0  0.84214  0.13542  0.30401  1.0000
  H   H1227     1.0  0.84677  0.04400  0.19647  1.0000
  C   C777      1.0  0.77542  0.23932  0.12842  1.0000
  H   H1228     1.0  0.71340  0.22175  0.21079  1.0000
  C   C778      1.0  0.60614  0.21989  0.14059  1.0000
  C   C779      1.0  0.71417  0.11054  0.23979  1.0000
  H   H1229     1.0  0.70437  0.11259  0.25405  1.0000
  H   H1230     1.0  0.80318  0.17426  0.04898  1.0000
  H   H1231     1.0  0.58499  0.19132  0.15865  1.0000
  H   H1232     1.0  0.78927  0.21083  0.07085  1.0000
  C   C780      1.0  0.69949  0.19326  0.31413  1.0000
  H   H1233     1.0  0.84506  0.05918  0.14184  1.0000
  H   H1234     1.0  0.79879  0.19822  0.09304  1.0000
  H   H1235     1.0  0.83396  0.06098  0.17843  1.0000
  C   C781      1.0  0.79740  0.19663  0.07769  1.0000
  H   H1236     1.0  0.85847  0.06372  0.18140  1.0000
  C   C782      1.0  0.85972  0.05191  0.14612  1.0000
  C   C783      1.0  0.84880  0.05274  0.18124  1.0000
  C   C784      1.0  0.73329  0.13456  0.24391  1.0000
  H   H1237     1.0  0.60248  0.17109  0.14981  1.0000
  H   H1238     1.0  0.84205  0.01623  0.18177  1.0000
  H   H1239     1.0  0.71428  0.09520  0.23735  1.0000
  H   H1240     1.0  0.87573  0.02032  0.23353  1.0000
  H   H1241     1.0  0.73517  0.01655  0.31657  1.0000
  C   C785      1.0  0.60475  0.08167  0.32205  1.0000
  C   C786      1.0  0.79759  0.16162  0.08840  1.0000
  H   H1242     1.0  0.75360  0.23087  0.16812  1.0000
  H   H1243     1.0  0.74378  0.08443  0.25415  1.0000
  H   H1244     1.0  0.77986  0.19057  0.04832  1.0000
  H   H1245     1.0  0.79090  0.23429  0.12984  1.0000
  H   H1246     1.0  0.75825  0.19773  0.08020  1.0000
  H   H1247     1.0  0.67389  0.22185  0.29624  1.0000
  H   H1248     1.0  0.72641  0.14563  0.23235  1.0000
  C   C787      1.0  0.76646  0.18385  0.08759  1.0000
  H   H1249     1.0  0.81305  0.15771  0.08082  1.0000
  H   H1250     1.0  0.78999  0.14874  0.08920  1.0000
  H   H1251     1.0  0.74802  0.09632  0.21765  1.0000
  H   H1252     1.0  0.73407  0.10168  0.27109  1.0000
  H   H1253     1.0  0.68821  0.20705  0.27832  1.0000
  S   S318      1.0  0.85578  0.14050  0.01462  1.0000
  C   C788      1.0  0.73892  0.22817  0.17677  1.0000
  H   H1254     1.0  0.65047  0.18963  0.32021  1.0000
  N   N79       1.0  0.73209  0.24131  0.19197  1.0000
  N   N80       1.0  0.65786  0.03478  0.30883  1.0000
  H   H1255     1.0  0.70794  0.08248  0.32070  1.0000
  H   H1256     1.0  0.76150  0.24096  0.19802  1.0000
  H   H1257     1.0  0.64629  0.04911  0.28209  1.0000
  H   H1258     1.0  0.66868  0.01674  0.28589  1.0000
  H   H1259     1.0  0.74880  0.22210  0.21335  1.0000
  C   C789      1.0  0.74460  0.23336  0.12054  1.0000
  S   S319      1.0  0.80859  0.14164  0.99477  1.0000
  H   H1260     1.0  0.64071  0.06347  0.30185  1.0000
  H   H1261     1.0  0.63179  0.17776  0.12451  1.0000
  H   H1262     1.0  0.66225  0.20589  0.28616  1.0000
  C   C790      1.0  0.75769  0.06820  0.31969  1.0000
  H   H1263     1.0  0.71138  0.12582  0.32594  1.0000
  Fe  Fe161     1.0  0.65749  0.23781  0.10922  1.0000
  H   H1264     1.0  0.79951  0.10185  0.99603  1.0000
  H   H1265     1.0  0.69685  0.17045  0.28826  1.0000
  C   C791      1.0  0.71256  0.23729  0.20307  1.0000
  H   H1266     1.0  0.58085  0.20622  0.12361  1.0000
  H   H1267     1.0  0.68658  0.15924  0.31260  1.0000
  H   H1268     1.0  0.61161  0.23052  0.12755  1.0000
  H   H1269     1.0  0.59035  0.22577  0.14578  1.0000
  H   H1270     1.0  0.67848  0.04785  0.31987  1.0000
  H   H1271     1.0  0.86351  0.99720  0.21703  1.0000
  H   H1272     1.0  0.67070  0.17013  0.29442  1.0000
  C   C792      1.0  0.66522  0.04039  0.32535  1.0000
  S   S320      1.0  0.89860  0.09596  0.99956  1.0000
  H   H1273     1.0  0.70125  0.23982  0.19299  1.0000
  H   H1274     1.0  0.73868  0.14395  0.32652  1.0000
  H   H1275     1.0  0.70340  0.18146  0.32660  1.0000
  H   H1276     1.0  0.78296  0.10209  0.38989  1.0000
  S   S321      1.0  0.58579  0.03382  0.37299  1.0000
  C   C793      1.0  0.65877  0.14009  0.42373  1.0000
  Fe  Fe162     1.0  0.65595  0.08381  0.50714  1.0000
  S   S322      1.0  0.64688  0.11610  0.50972  1.0000
  S   S323      1.0  0.64049  0.07782  0.48297  1.0000
  Fe  Fe163     1.0  0.68267  0.07827  0.53945  1.0000
  S   S324      1.0  0.67542  0.10988  0.54363  1.0000
  S   S325      1.0  0.70268  0.05742  0.55912  1.0000
  Fe  Fe164     1.0  0.64409  0.10643  0.54276  1.0000
  S   S326      1.0  0.61894  0.12002  0.56449  1.0000
  Fe  Fe165     1.0  0.67900  0.11600  0.51034  1.0000
  S   S327      1.0  0.69869  0.13696  0.49180  1.0000
  S   S328      1.0  0.65091  0.07420  0.54042  1.0000
  S   S329      1.0  0.68846  0.08440  0.50594  1.0000
  Fe  Fe166     1.0  0.86579  0.21309  0.41561  1.0000
  H   H1277     1.0  0.67380  0.11160  0.40119  1.0000
  C   C794      1.0  0.77181  0.11431  0.35391  1.0000
  Fe  Fe167     1.0  0.85407  0.18068  0.39693  1.0000
  S   S330      1.0  0.82428  0.19825  0.39352  1.0000
  S   S331      1.0  0.85916  0.15036  0.38717  1.0000
  H   H1278     1.0  0.64023  0.11048  0.42115  1.0000
  H   H1279     1.0  0.66951  0.02730  0.33641  1.0000
  Fe  Fe168     1.0  0.82315  0.20550  0.42371  1.0000
  S   S332      1.0  0.79264  0.20625  0.44168  1.0000
  H   H1280     1.0  0.84838  0.18070  0.63890  1.0000
  S   S333      1.0  0.85193  0.18570  0.42876  1.0000
  Fe  Fe169     1.0  0.72064  0.19649  0.36401  1.0000
  S   S334      1.0  0.68769  0.19882  0.36594  1.0000
  S   S335      1.0  0.74148  0.17080  0.35271  1.0000
  S   S336      1.0  0.70742  0.16266  0.65450  1.0000
  C   C795      1.0  0.72641  0.14350  0.33869  1.0000
  Fe  Fe170     1.0  0.68604  0.20817  0.39548  1.0000
  S   S337      1.0  0.66417  0.19544  0.42069  1.0000
  S   S338      1.0  0.71915  0.20349  0.39440  1.0000
  H   H1281     1.0  0.59999  0.11148  0.51657  1.0000
  H   H1282     1.0  0.72797  0.22900  0.41919  1.0000
  Fe  Fe171     1.0  0.75394  0.10376  0.63380  1.0000
  S   S339      1.0  0.75005  0.13476  0.61722  1.0000
  S   S340      1.0  0.74547  0.07671  0.62567  1.0000
  Fe  Fe172     1.0  0.77893  0.13611  0.62704  1.0000
  S   S341      1.0  0.80336  0.15262  0.61075  1.0000
  S   S342      1.0  0.78422  0.10435  0.64140  1.0000
  H   H1283     1.0  0.61064  0.06726  0.51910  1.0000
  C   C796      1.0  0.67982  0.11014  0.41534  1.0000
  H   H1284     1.0  0.58779  0.06256  0.51371  1.0000
  S   S343      1.0  0.55943  0.06815  0.62213  1.0000
  H   H1285     1.0  0.67169  0.14816  0.42031  1.0000
  H   H1286     1.0  0.73324  0.16446  0.51867  1.0000
  C   C797      1.0  0.80517  0.19016  0.61583  1.0000
  C   C798      1.0  0.79378  0.17762  0.61113  1.0000
  C   C799      1.0  0.77407  0.18466  0.60845  1.0000
  C   C800      1.0  0.76569  0.20416  0.61064  1.0000
  C   C801      1.0  0.72999  0.18030  0.48086  1.0000
  H   H1287     1.0  0.82051  0.18481  0.61750  1.0000
  H   H1288     1.0  0.76528  0.17506  0.60465  1.0000
  H   H1289     1.0  0.75051  0.20962  0.60828  1.0000
  H   H1290     1.0  0.77961  0.16994  0.48270  1.0000
  C   C802      1.0  0.78155  0.23187  0.34628  1.0000
  S   S344      1.0  0.64109  0.01706  0.38715  1.0000
  C   C803      1.0  0.74349  0.23055  0.41669  1.0000
  H   H1291     1.0  0.66379  0.03817  0.49077  1.0000
  H   H1292     1.0  0.85814  0.11478  0.37228  1.0000
  H   H1293     1.0  0.59484  0.06648  0.55428  1.0000
  C   C804      1.0  0.77622  0.22137  0.42655  1.0000
  H   H1294     1.0  0.75246  0.20310  0.65503  1.0000
  C   C805      1.0  0.55807  0.99683  0.37619  1.0000
  H   H1295     1.0  0.54471  0.02670  0.39683  1.0000
  H   H1296     1.0  0.61058  0.09526  0.53645  1.0000
  C   C806      1.0  0.77802  0.20185  0.36927  1.0000
  H   H1297     1.0  0.75033  0.20924  0.44229  1.0000
  S   S345      1.0  0.77713  0.07178  0.33085  1.0000
  C   C807      1.0  0.75038  0.14822  0.48612  1.0000
  C   C808      1.0  0.60302  0.10544  0.58130  1.0000
  C   C809      1.0  0.58654  0.11466  0.59320  1.0000
  C   C810      1.0  0.57327  0.10343  0.60628  1.0000
  C   C811      1.0  0.57642  0.08289  0.60745  1.0000
  C   C812      1.0  0.59315  0.07367  0.59586  1.0000
  C   C813      1.0  0.60643  0.08487  0.58290  1.0000
  H   H1298     1.0  0.58385  0.13059  0.59212  1.0000
  H   H1299     1.0  0.56040  0.11067  0.61514  1.0000
  H   H1300     1.0  0.59571  0.05776  0.59680  1.0000
  H   H1301     1.0  0.61913  0.07753  0.57402  1.0000
  C   C814      1.0  0.71460  0.06439  0.57676  1.0000
  C   C815      1.0  0.72193  0.04941  0.59121  1.0000
  C   C816      1.0  0.73123  0.05371  0.60583  1.0000
  C   C817      1.0  0.73359  0.07308  0.60631  1.0000
  C   C818      1.0  0.72628  0.08833  0.59187  1.0000
  C   C819      1.0  0.71677  0.08397  0.57709  1.0000
  H   H1302     1.0  0.72046  0.03427  0.59110  1.0000
  H   H1303     1.0  0.73682  0.04181  0.61680  1.0000
  H   H1304     1.0  0.72814  0.10335  0.59201  1.0000
  H   H1305     1.0  0.71150  0.09565  0.56579  1.0000
  C   C820      1.0  0.68880  0.15279  0.47203  1.0000
  C   C821      1.0  0.70170  0.15901  0.45492  1.0000
  C   C822      1.0  0.69426  0.17211  0.43910  1.0000
  C   C823      1.0  0.67391  0.17924  0.44041  1.0000
  C   C824      1.0  0.66096  0.17276  0.45743  1.0000
  C   C825      1.0  0.66838  0.15950  0.47322  1.0000
  H   H1306     1.0  0.71745  0.15351  0.45378  1.0000
  H   H1307     1.0  0.70427  0.17656  0.42587  1.0000
  H   H1308     1.0  0.64519  0.17821  0.45848  1.0000
  H   H1309     1.0  0.65837  0.15491  0.48648  1.0000
  H   H1310     1.0  0.80497  0.21876  0.62361  1.0000
  C   C826      1.0  0.86731  0.23979  0.46040  1.0000
  H   H1311     1.0  0.55665  0.10627  0.53412  1.0000
  C   C827      1.0  0.85388  0.14645  0.36417  1.0000
  H   H1312     1.0  0.76432  0.19358  0.47823  1.0000
  H   H1313     1.0  0.76044  0.20707  0.33693  1.0000
  C   C828      1.0  0.66568  0.11228  0.59806  1.0000
  H   H1314     1.0  0.56933  0.05202  0.33788  1.0000
  C   C829      1.0  0.85074  0.12339  0.34257  1.0000
  C   C830      1.0  0.72541  0.15393  0.35433  1.0000
  C   C831      1.0  0.70963  0.15321  0.37007  1.0000
  H   H1315     1.0  0.68669  0.12365  0.44693  1.0000
  C   C832      1.0  0.71930  0.00903  0.36642  1.0000
  H   H1316     1.0  0.80964  0.13857  0.35485  1.0000
  S   S346      1.0  0.60551  0.99362  0.41492  1.0000
  H   H1317     1.0  0.70900  0.16098  0.38237  1.0000
  S   S347      1.0  0.87045  0.20632  0.38407  1.0000
  H   H1318     1.0  0.56796  0.10647  0.50858  1.0000
  C   C833      1.0  0.64343  0.05607  0.47214  1.0000
  C   C834      1.0  0.63297  0.05637  0.45648  1.0000
  C   C835      1.0  0.63474  0.03948  0.44744  1.0000
  H   H1319     1.0  0.64800  0.08911  0.58263  1.0000
  C   C836      1.0  0.58231  0.05849  0.33791  1.0000
  H   H1320     1.0  0.62338  0.06972  0.45132  1.0000
  H   H1321     1.0  0.62659  0.03990  0.43545  1.0000
  C   C837      1.0  0.59335  0.05218  0.35353  1.0000
  H   H1322     1.0  0.62800  0.10659  0.60980  1.0000
  C   C838      1.0  0.67332  0.11636  0.44930  1.0000
  S   S348      1.0  0.83679  0.23292  0.41282  1.0000
  S   S349      1.0  0.72114  0.22746  0.34859  1.0000
  C   C839      1.0  0.60997  0.06081  0.35359  1.0000
  H   H1323     1.0  0.62752  0.08311  0.33878  1.0000
  H   H1324     1.0  0.85184  0.10839  0.33998  1.0000
  H   H1325     1.0  0.65361  0.05058  0.33350  1.0000
  H   H1326     1.0  0.61821  0.05642  0.36594  1.0000
  H   H1327     1.0  0.76423  0.13953  0.49115  1.0000
  H   H1328     1.0  0.58820  0.11208  0.54192  1.0000
  H   H1329     1.0  0.72757  0.19610  0.48280  1.0000
  H   H1330     1.0  0.75676  0.01652  0.36180  1.0000
  Fe  Fe173     1.0  0.63696  0.99672  0.41637  1.0000
  S   S350      1.0  0.88904  0.22654  0.42596  1.0000
  C   C840      1.0  0.73666  0.20115  0.65658  1.0000
  N   N81       1.0  0.54554  0.99588  0.39596  1.0000
  H   H1331     1.0  0.57285  0.08361  0.56092  1.0000
  H   H1332     1.0  0.78111  0.18543  0.37184  1.0000
  H   H1333     1.0  0.57146  0.06331  0.54889  1.0000
  C   C841      1.0  0.52446  0.99821  0.39354  1.0000
  S   S351      1.0  0.68332  0.24063  0.38297  1.0000
  H   H1334     1.0  0.77347  0.11496  0.33753  1.0000
  H   H1335     1.0  0.76163  0.20641  0.37254  1.0000
  H   H1336     1.0  0.55636  0.08585  0.52178  1.0000
  H   H1337     1.0  0.71627  0.03170  0.33095  1.0000
  H   H1338     1.0  0.63587  0.11447  0.44666  1.0000
  H   H1339     1.0  0.74146  0.03724  0.34969  1.0000
  C   C842      1.0  0.69407  0.13448  0.35300  1.0000
  H   H1340     1.0  0.80984  0.10096  0.33819  1.0000
  C   C843      1.0  0.54842  0.01192  0.40587  1.0000
  C   C844      1.0  0.82708  0.15124  0.65261  1.0000
  C   C845      1.0  0.65725  0.02169  0.46983  1.0000
  C   C846      1.0  0.75609  0.21949  0.42987  1.0000
  S   S352      1.0  0.67268  0.12558  0.35108  1.0000
  H   H1341     1.0  0.73267  0.20382  0.64137  1.0000
  C   C847      1.0  0.69385  0.14372  0.36928  1.0000
  H   H1342     1.0  0.82489  0.19036  0.65225  1.0000
  Fe  Fe174     1.0  0.73641  0.14311  0.64707  1.0000
  H   H1343     1.0  0.66662  0.00823  0.47515  1.0000
  C   C848      1.0  0.78728  0.11634  0.38175  1.0000
  H   H1344     1.0  0.55489  0.01158  0.36694  1.0000
  C   C849      1.0  0.80632  0.10042  0.35458  1.0000
  H   H1345     1.0  0.81425  0.20920  0.32944  1.0000
  H   H1346     1.0  0.68798  0.07898  0.61359  1.0000
  N   N82       1.0  0.58461  0.08698  0.52967  1.0000
  C   C850      1.0  0.74881  0.02174  0.34876  1.0000
  H   H1347     1.0  0.66642  0.12200  0.60886  1.0000
  H   H1348     1.0  0.63874  0.10715  0.63132  1.0000
  H   H1349     1.0  0.81193  0.15942  0.65089  1.0000
  H   H1350     1.0  0.81538  0.20969  0.35479  1.0000
  H   H1351     1.0  0.71650  0.17398  0.48868  1.0000
  C   C851      1.0  0.65565  0.03866  0.47874  1.0000
  C   C852      1.0  0.77659  0.21625  0.61672  1.0000
  S   S353      1.0  0.76469  0.14756  0.65526  1.0000
  C   C853      1.0  0.65810  0.08131  0.59331  1.0000
  C   C854      1.0  0.84644  0.13912  0.32746  1.0000
  H   H1352     1.0  0.73773  0.14119  0.49500  1.0000
  H   H1353     1.0  0.65290  0.06713  0.60034  1.0000
  H   H1354     1.0  0.78405  0.14835  0.35285  1.0000
  Fe  Fe175     1.0  0.61071  0.01195  0.38468  1.0000
  H   H1355     1.0  0.80105  0.11820  0.38686  1.0000
  H   H1356     1.0  0.67403  0.09182  0.63312  1.0000
  H   H1357     1.0  0.66786  0.17948  0.33713  1.0000
  S   S354      1.0  0.50252  0.08198  0.64405  1.0000
  C   C855      1.0  0.59631  0.10213  0.53119  1.0000
  H   H1358     1.0  0.76758  0.17648  0.46112  1.0000
  C   C856      1.0  0.59588  0.07447  0.51499  1.0000
  C   C857      1.0  0.56553  0.09682  0.52324  1.0000
  C   C858      1.0  0.58074  0.07456  0.54928  1.0000
  H   H1359     1.0  0.65146  0.09254  0.43968  1.0000
  H   H1360     1.0  0.66798  0.06876  0.62987  1.0000
  H   H1361     1.0  0.86643  0.14782  0.65196  1.0000
  H   H1362     1.0  0.73505  0.08526  0.33818  1.0000
  C   C859      1.0  0.64729  0.10868  0.43469  1.0000
  H   H1363     1.0  0.67300  0.07760  0.58450  1.0000
  Fe  Fe176     1.0  0.68806  0.23059  0.35332  1.0000
  C   C860      1.0  0.79642  0.20935  0.61917  1.0000
  H   H1364     1.0  0.53909  0.01188  0.42076  1.0000
  H   H1365     1.0  0.59879  0.08330  0.49993  1.0000
  H   H1366     1.0  0.73094  0.17999  0.46471  1.0000
  N   N83       1.0  0.65882  0.09364  0.60825  1.0000
  N   N84       1.0  0.78605  0.21008  0.34875  1.0000
  S   S355      1.0  0.64913  0.00008  0.44373  1.0000
  H   H1367     1.0  0.64771  0.14728  0.43510  1.0000
  H   H1368     1.0  0.68481  0.09413  0.42021  1.0000
  N   N85       1.0  0.66480  0.11883  0.43076  1.0000
  H   H1369     1.0  0.67768  0.10047  0.45526  1.0000
  H   H1370     1.0  0.69318  0.11759  0.41186  1.0000
  H   H1371     1.0  0.66242  0.12294  0.46119  1.0000
  Fe  Fe177     1.0  0.53503  0.07800  0.64661  1.0000
  H   H1372     1.0  0.65200  0.14253  0.40993  1.0000
  C   C861      1.0  0.78341  0.23485  0.41047  1.0000
  H   H1373     1.0  0.57414  0.99428  0.37747  1.0000
  H   H1374     1.0  0.75090  0.14664  0.47034  1.0000
  H   H1375     1.0  0.68096  0.14456  0.38072  1.0000
  C   C862      1.0  0.64684  0.02199  0.45414  1.0000
  C   C863      1.0  0.88474  0.23966  0.44652  1.0000
  H   H1376     1.0  0.76027  0.02217  0.33516  1.0000
  H   H1377     1.0  0.71128  0.02422  0.36786  1.0000
  H   H1378     1.0  0.75980  0.16222  0.51607  1.0000
  Fe  Fe178     1.0  0.71660  0.23499  0.37923  1.0000
  H   H1379     1.0  0.83549  0.15039  0.63737  1.0000
  H   H1380     1.0  0.80193  0.08572  0.36095  1.0000
  C   C864      1.0  0.79619  0.13585  0.34985  1.0000
  C   C865      1.0  0.84949  0.16218  0.34907  1.0000
  N   N86       1.0  0.74811  0.16919  0.48849  1.0000
  H   H1381     1.0  0.84941  0.17712  0.35132  1.0000
  N   N87       1.0  0.79041  0.11672  0.36001  1.0000
  S   S356      1.0  0.76472  0.23937  0.62258  1.0000
  C   C866      1.0  0.72429  0.01633  0.33059  1.0000
  C   C867      1.0  0.67275  0.08285  0.62184  1.0000
  C   C868      1.0  0.61542  0.07580  0.33805  1.0000
  C   C869      1.0  0.74644  0.17059  0.50978  1.0000
  C   C870      1.0  0.63873  0.09813  0.61967  1.0000
  H   H1382     1.0  0.78456  0.20716  0.38043  1.0000
  H   H1383     1.0  0.74490  0.18621  0.51210  1.0000
  H   H1384     1.0  0.68079  0.10942  0.58928  1.0000
  C   C871      1.0  0.85443  0.12706  0.36081  1.0000
  H   H1385     1.0  0.82026  0.10109  0.35999  1.0000
  C   C872      1.0  0.83953  0.18097  0.65401  1.0000
  C   C873      1.0  0.76563  0.17763  0.47720  1.0000
  Fe  Fe179     1.0  0.84011  0.22408  0.38282  1.0000
  H   H1386     1.0  0.77532  0.12845  0.38633  1.0000
  H   H1387     1.0  0.63284  0.08439  0.62713  1.0000
  H   H1388     1.0  0.76724  0.09982  0.36085  1.0000
  C   C874      1.0  0.71076  0.13360  0.33813  1.0000
  H   H1389     1.0  0.85607  0.23156  0.45889  1.0000
  H   H1390     1.0  0.65554  0.12071  0.58757  1.0000
  H   H1391     1.0  0.75941  0.12607  0.35823  1.0000
  H   H1392     1.0  0.56418  0.01050  0.40795  1.0000
  H   H1393     1.0  0.72346  0.23893  0.64515  1.0000
  H   H1394     1.0  0.70793  0.99972  0.36638  1.0000
  H   H1395     1.0  0.51454  0.99759  0.40815  1.0000
  H   H1396     1.0  0.78009  0.18649  0.33586  1.0000
  H   H1397     1.0  0.72624  0.00320  0.38005  1.0000
  H   H1398     1.0  0.71326  0.00692  0.32973  1.0000
  H   H1399     1.0  0.69845  0.21521  0.65462  1.0000
  N   N88       1.0  0.73429  0.00890  0.34823  1.0000
  H   H1400     1.0  0.51973  0.01260  0.38430  1.0000
  H   H1401     1.0  0.87090  0.23839  0.34898  1.0000
  H   H1402     1.0  0.81176  0.18740  0.34764  1.0000
  H   H1403     1.0  0.66185  0.20578  0.33033  1.0000
  H   H1404     1.0  0.79969  0.13632  0.33342  1.0000
  C   C875      1.0  0.77686  0.20288  0.33444  1.0000
  H   H1405     1.0  0.79874  0.23659  0.40777  1.0000
  C   C876      1.0  0.84590  0.15851  0.33081  1.0000
  H   H1406     1.0  0.78748  0.23871  0.33106  1.0000
  C   C877      1.0  0.80779  0.20376  0.34498  1.0000
  H   H1407     1.0  0.78838  0.23766  0.35690  1.0000
  H   H1408     1.0  0.64389  0.01158  0.32785  1.0000
  H   H1409     1.0  0.76526  0.23709  0.34925  1.0000
  H   H1410     1.0  0.82537  0.13588  0.65978  1.0000
  Fe  Fe180     1.0  0.84843  0.15269  0.77011  1.0000
  S   S357      1.0  0.85183  0.11969  0.77321  1.0000
  S   S358      1.0  0.82131  0.17284  0.78170  1.0000
  Fe  Fe181     1.0  0.89053  0.15397  0.74977  1.0000
  S   S359      1.0  0.89790  0.12118  0.75033  1.0000
  S   S360      1.0  0.91127  0.17580  0.73669  1.0000
  Fe  Fe182     1.0  0.86743  0.12426  0.74163  1.0000
  S   S361      1.0  0.86201  0.11045  0.71640  1.0000
  Fe  Fe183     1.0  0.88182  0.11934  0.78179  1.0000
  S   S362      1.0  0.89195  0.10143  0.81009  1.0000
  S   S363      1.0  0.86188  0.15730  0.73812  1.0000
  S   S364      1.0  0.87653  0.15185  0.78169  1.0000
  N   N89       1.0  0.94924  0.16081  0.77854  1.0000
  N   N90       1.0  0.56492  0.13975  0.73346  1.0000
  N   N91       1.0  0.72335  0.21457  0.66927  1.0000
  S   S365      1.0  0.97737  0.10394  0.82994  1.0000
  H   H1411     1.0  0.72760  0.06207  0.75113  1.0000
  S   S366      1.0  0.95486  0.13360  0.92365  1.0000
  C   C878      1.0  0.92888  0.15849  0.78855  1.0000
  Fe  Fe184     1.0  0.73496  0.16181  0.88632  1.0000
  S   S367      1.0  0.71914  0.14367  0.91249  1.0000
  S   S368      1.0  0.72430  0.19457  0.88185  1.0000
  Fe  Fe185     1.0  0.75728  0.12603  0.86931  1.0000
  S   S369      1.0  0.74345  0.10515  0.89397  1.0000
  S   S370      1.0  0.77637  0.11265  0.84403  1.0000
  Fe  Fe186     1.0  0.71503  0.12573  0.89016  1.0000
  S   S371      1.0  0.68593  0.11436  0.89331  1.0000
  Fe  Fe187     1.0  0.74906  0.12471  0.91406  1.0000
  S   S372      1.0  0.75977  0.10782  0.94262  1.0000
  S   S373      1.0  0.72850  0.14531  0.86396  1.0000
  S   S374      1.0  0.76534  0.14426  0.88930  1.0000
  C   C879      1.0  0.52318  0.00065  0.73603  1.0000
  H   H1412     1.0  0.55178  0.13939  0.70771  1.0000
  H   H1413     1.0  0.92828  0.14333  0.79689  1.0000
  S   S375      1.0  0.77472  0.10954  0.70075  1.0000
  H   H1414     1.0  0.85127  0.11038  0.82393  1.0000
  H   H1415     1.0  0.73140  0.21528  0.79513  1.0000
  Fe  Fe188     1.0  0.63877  0.10411  0.79718  1.0000
  S   S376      1.0  0.64092  0.13584  0.78635  1.0000
  S   S377      1.0  0.64288  0.09103  0.82897  1.0000
  Fe  Fe189     1.0  0.62938  0.09783  0.75726  1.0000
  S   S378      1.0  0.63148  0.12926  0.74356  1.0000
  S   S379      1.0  0.62423  0.07954  0.73531  1.0000
  Fe  Fe190     1.0  0.65808  0.12550  0.75863  1.0000
  S   S380      1.0  0.68632  0.13786  0.74706  1.0000
  Fe  Fe191     1.0  0.61406  0.13662  0.77240  1.0000
  S   S381      1.0  0.59053  0.16347  0.77069  1.0000
  S   S382      1.0  0.65788  0.09334  0.77009  1.0000
  S   S383      1.0  0.60997  0.10554  0.78546  1.0000
  Fe  Fe192     1.0  0.52704  0.08020  0.69090  1.0000
  H   H1416     1.0  0.69199  0.22247  0.67893  1.0000
  S   S384      1.0  0.53658  0.07871  0.72087  1.0000
  H   H1417     1.0  0.64807  0.19916  0.88092  1.0000
  H   H1418     1.0  0.87604  0.23421  0.69084  1.0000
  N   N92       1.0  0.83112  0.23005  0.73148  1.0000
  C   C880      1.0  0.60000  0.07842  0.73147  1.0000
  C   C881      1.0  0.58424  0.07781  0.74728  1.0000
  C   C882      1.0  0.56499  0.07746  0.74379  1.0000
  C   C883      1.0  0.56131  0.07771  0.72449  1.0000
  C   C884      1.0  0.57712  0.07778  0.70871  1.0000
  C   C885      1.0  0.59643  0.07801  0.71224  1.0000
  H   H1419     1.0  0.58692  0.07767  0.76221  1.0000
  H   H1420     1.0  0.55286  0.07724  0.75610  1.0000
  H   H1421     1.0  0.57446  0.07788  0.69379  1.0000
  H   H1422     1.0  0.60862  0.07818  0.69998  1.0000
  C   C886      1.0  0.59433  0.17618  0.78870  1.0000
  C   C887      1.0  0.59371  0.19664  0.78454  1.0000
  C   C888      1.0  0.60184  0.20607  0.79659  1.0000
  C   C889      1.0  0.61008  0.19501  0.81295  1.0000
  C   C890      1.0  0.60911  0.17487  0.81802  1.0000
  C   C891      1.0  0.60134  0.16543  0.80581  1.0000
  H   H1423     1.0  0.58807  0.20499  0.77140  1.0000
  H   H1424     1.0  0.73489  0.18867  0.79992  1.0000
  H   H1425     1.0  0.61533  0.16631  0.83077  1.0000
  H   H1426     1.0  0.60153  0.14962  0.80923  1.0000
  C   C892      1.0  0.68157  0.15383  0.68863  1.0000
  C   C893      1.0  0.71551  0.15396  0.69244  1.0000
  C   C894      1.0  0.71061  0.14892  0.71302  1.0000
  C   C895      1.0  0.69142  0.14544  0.72138  1.0000
  C   C896      1.0  0.67689  0.14783  0.70919  1.0000
  H   H1427     1.0  0.97231  0.16668  0.89925  1.0000
  H   H1428     1.0  0.73059  0.15581  0.68608  1.0000
  H   H1429     1.0  0.72189  0.14712  0.72239  1.0000
  H   H1430     1.0  0.66211  0.14498  0.71545  1.0000
  H   H1431     1.0  0.97026  0.19965  0.92351  1.0000
  C   C897      1.0  0.65522  0.09920  0.84557  1.0000
  C   C898      1.0  0.65008  0.09257  0.86589  1.0000
  C   C899      1.0  0.65958  0.09758  0.87999  1.0000
  C   C900      1.0  0.67487  0.10893  0.87413  1.0000
  C   C901      1.0  0.68025  0.11574  0.85374  1.0000
  C   C902      1.0  0.67027  0.11104  0.83947  1.0000
  H   H1432     1.0  0.63859  0.08341  0.87081  1.0000
  H   H1433     1.0  0.65517  0.09232  0.89559  1.0000
  H   H1434     1.0  0.69207  0.12446  0.84896  1.0000
  H   H1435     1.0  0.67453  0.11608  0.82380  1.0000
  C   C903      1.0  0.77398  0.11721  0.95651  1.0000
  C   C904      1.0  0.78243  0.10457  0.97216  1.0000
  N   N93       1.0  0.52669  0.02136  0.73206  1.0000
  C   C905      1.0  0.54554  0.02291  0.71828  1.0000
  H   H1436     1.0  0.57091  0.11882  0.71310  1.0000
  N   N94       1.0  0.66760  0.18247  0.85988  1.0000
  H   H1437     1.0  0.97100  0.14867  0.75569  1.0000
  H   H1438     1.0  0.81145  0.08284  0.85124  1.0000
  C   C906      1.0  0.76192  0.20463  0.87510  1.0000
  C   C907      1.0  0.74140  0.21113  0.87774  1.0000
  C   C908      1.0  0.85114  0.10168  0.97029  1.0000
  C   C909      1.0  0.77661  0.13700  0.95263  1.0000
  H   H1439     1.0  0.95515  0.13187  0.77013  1.0000
  H   H1440     1.0  0.76766  0.18901  0.87635  1.0000
  H   H1441     1.0  0.77016  0.14692  0.94071  1.0000
  H   H1442     1.0  0.83770  0.08288  0.79951  1.0000
  C   C910      1.0  0.93951  0.12282  0.94482  1.0000
  C   C911      1.0  0.92586  0.13525  0.95661  1.0000
  C   C912      1.0  0.91343  0.12735  0.97357  1.0000
  C   C913      1.0  0.91447  0.10688  0.97891  1.0000
  C   C914      1.0  0.92813  0.09448  0.96711  1.0000
  C   C915      1.0  0.94056  0.10237  0.95016  1.0000
  H   H1443     1.0  0.92498  0.15109  0.95269  1.0000
  H   H1444     1.0  0.54517  0.01816  0.70389  1.0000
  H   H1445     1.0  0.92912  0.07862  0.97113  1.0000
  H   H1446     1.0  0.95103  0.09260  0.94132  1.0000
  C   C916      1.0  0.83760  0.11004  0.71257  1.0000
  C   C917      1.0  0.82096  0.11603  0.72619  1.0000
  C   C918      1.0  0.80173  0.11580  0.72244  1.0000
  C   C919      1.0  0.79899  0.11015  0.70482  1.0000
  C   C920      1.0  0.81561  0.10442  0.69111  1.0000
  C   C921      1.0  0.83483  0.10406  0.69514  1.0000
  H   H1447     1.0  0.82291  0.12062  0.73968  1.0000
  H   H1448     1.0  0.78894  0.12012  0.73318  1.0000
  H   H1449     1.0  0.81367  0.09972  0.67765  1.0000
  H   H1450     1.0  0.84762  0.09916  0.68466  1.0000
  C   C922      1.0  0.80721  0.15725  0.79873  1.0000
  C   C923      1.0  0.80242  0.16000  0.81863  1.0000
  C   C924      1.0  0.79241  0.14653  0.83259  1.0000
  C   C925      1.0  0.78720  0.13043  0.82655  1.0000
  C   C926      1.0  0.79171  0.12788  0.80659  1.0000
  C   C927      1.0  0.80182  0.14126  0.79267  1.0000
  H   H1451     1.0  0.80706  0.17210  0.82339  1.0000
  H   H1452     1.0  0.78927  0.14828  0.84809  1.0000
  H   H1453     1.0  0.78771  0.11537  0.80194  1.0000
  H   H1454     1.0  0.80564  0.13908  0.77727  1.0000
  C   C928      1.0  0.91551  0.10293  0.81552  1.0000
  C   C929      1.0  0.91781  0.10337  0.83517  1.0000
  C   C930      1.0  0.93661  0.10388  0.83993  1.0000
  C   C931      1.0  0.95331  0.10339  0.82511  1.0000
  C   C932      1.0  0.95104  0.10253  0.80558  1.0000
  C   C933      1.0  0.93221  0.10259  0.80073  1.0000
  H   H1455     1.0  0.90500  0.10344  0.84675  1.0000
  H   H1456     1.0  0.93819  0.10446  0.85504  1.0000
  H   H1457     1.0  0.96396  0.10174  0.79413  1.0000
  H   H1458     1.0  0.93069  0.10180  0.78564  1.0000
  C   C934      1.0  0.90087  0.19866  0.74426  1.0000
  C   C935      1.0  0.90247  0.21630  0.73106  1.0000
  C   C936      1.0  0.68414  0.19363  0.85806  1.0000
  Fe  Fe193     1.0  0.98630  0.10694  0.85917  1.0000
  C   C937      1.0  0.88077  0.21722  0.76924  1.0000
  C   C938      1.0  0.89040  0.19929  0.76345  1.0000
  H   H1459     1.0  0.91061  0.21594  0.71618  1.0000
  H   H1460     1.0  0.58554  0.15962  0.73185  1.0000
  H   H1461     1.0  0.87241  0.21747  0.78405  1.0000
  H   H1462     1.0  0.88984  0.18607  0.77406  1.0000
  H   H1463     1.0  0.63863  0.22166  0.73458  1.0000
  C   C939      1.0  0.96294  0.15571  0.79339  1.0000
  H   H1464     1.0  0.69069  0.05833  0.95571  1.0000
  H   H1465     1.0  0.78047  0.08924  0.97532  1.0000
  H   H1466     1.0  0.70906  0.05909  0.73734  1.0000
  H   H1467     1.0  0.96327  0.14014  0.80093  1.0000
  H   H1468     1.0  0.95841  0.16524  0.80519  1.0000
  H   H1469     1.0  0.81560  0.22965  0.70748  1.0000
  N   N95       1.0  0.65108  0.19383  0.75031  1.0000
  C   C940      1.0  0.65159  0.18406  0.77108  1.0000
  C   C941      1.0  0.64245  0.18172  0.73983  1.0000
  C   C942      1.0  0.67151  0.19594  0.74036  1.0000
  H   H1470     1.0  0.53613  0.14467  0.75127  1.0000
  H   H1471     1.0  0.67037  0.15563  0.67916  1.0000
  H   H1472     1.0  0.66181  0.16967  0.77178  1.0000
  H   H1473     1.0  0.63663  0.18110  0.77867  1.0000
  H   H1474     1.0  0.64244  0.18818  0.72390  1.0000
  H   H1475     1.0  0.65097  0.16652  0.74051  1.0000
  H   H1476     1.0  0.62683  0.18031  0.74674  1.0000
  H   H1477     1.0  0.68122  0.18131  0.74015  1.0000
  H   H1478     1.0  0.67839  0.20492  0.74810  1.0000
  H   H1479     1.0  0.67168  0.20347  0.72472  1.0000
  H   H1480     1.0  0.69720  0.10975  0.93318  1.0000
  H   H1481     1.0  0.88901  0.10190  0.95381  1.0000
  C   C943      1.0  0.70251  0.21224  0.66984  1.0000
  H   H1482     1.0  0.84530  0.07998  0.85984  1.0000
  H   H1483     1.0  0.68161  0.07974  0.93908  1.0000
  C   C944      1.0  0.86273  0.13297  0.96511  1.0000
  C   C945      1.0  0.71543  0.07016  0.74287  1.0000
  H   H1484     1.0  0.92309  0.16900  0.79931  1.0000
  C   C946      1.0  0.95560  0.14755  0.76339  1.0000
  N   N96       1.0  0.70730  0.08232  0.95102  1.0000
  C   C947      1.0  0.70350  0.10413  0.94722  1.0000
  H   H1485     1.0  0.81508  0.24033  0.75825  1.0000
  C   C948      1.0  0.68841  0.07477  0.95293  1.0000
  C   C949      1.0  0.71598  0.07559  0.96955  1.0000
  C   C950      1.0  0.79328  0.11168  0.98392  1.0000
  H   H1486     1.0  0.53060  0.04339  0.74832  1.0000
  H   H1487     1.0  0.71744  0.11032  0.94585  1.0000
  H   H1488     1.0  0.51210  0.04987  0.72000  1.0000
  C   C951      1.0  0.85696  0.14914  0.66664  1.0000
  H   H1489     1.0  0.72443  0.05847  0.93648  1.0000
  C   C952      1.0  0.52791  0.02781  0.75089  1.0000
  Fe  Fe194     1.0  0.63710  0.23082  0.80740  1.0000
  C   C953      1.0  0.89282  0.23439  0.73689  1.0000
  H   H1490     1.0  0.73026  0.08121  0.96841  1.0000
  H   H1491     1.0  0.85581  0.13391  0.67455  1.0000
  H   H1492     1.0  0.73652  0.22106  0.83630  1.0000
  H   H1493     1.0  0.62312  0.21262  0.75689  1.0000
  H   H1494     1.0  0.85310  0.05837  0.84790  1.0000
  H   H1495     1.0  0.83727  0.10776  0.97961  1.0000
  H   H1496     1.0  0.97844  0.15736  0.78641  1.0000
  C   C954      1.0  0.66732  0.17662  0.84050  1.0000
  N   N97       1.0  0.85905  0.11734  0.95516  1.0000
  C   C955      1.0  0.81290  0.22870  0.72397  1.0000
  H   H1497     1.0  0.63570  0.18750  0.86667  1.0000
  H   H1498     1.0  0.81939  0.06149  0.83897  1.0000
  H   H1499     1.0  0.80747  0.21450  0.73041  1.0000
  H   H1500     1.0  0.69376  0.10267  0.72613  1.0000
  H   H1501     1.0  0.80070  0.24094  0.72768  1.0000
  C   C956      1.0  0.81861  0.07779  0.83689  1.0000
  H   H1502     1.0  0.77165  0.18694  0.79330  1.0000
  S   S385      1.0  0.98208  0.13544  0.87092  1.0000
  C   C957      1.0  0.57345  0.12538  0.74940  1.0000
  H   H1503     1.0  0.73289  0.06429  0.70572  1.0000
  H   H1504     1.0  0.82847  0.11138  0.84119  1.0000
  H   H1505     1.0  0.84922  0.06027  0.81273  1.0000
  H   H1506     1.0  0.69983  0.08508  0.70916  1.0000
  C   C958      1.0  0.83653  0.10540  0.82757  1.0000
  H   H1507     1.0  0.72022  0.20291  0.81825  1.0000
  H   H1508     1.0  0.87278  0.12674  0.97628  1.0000
  C   C959      1.0  0.94949  0.18150  0.76878  1.0000
  H   H1509     1.0  0.68271  0.20716  0.84667  1.0000
  C   C960      1.0  0.78721  0.14415  0.96454  1.0000
  H   H1510     1.0  0.68124  0.16673  0.83562  1.0000
  S   S386      1.0  0.66862  0.22570  0.79220  1.0000
  C   C961      1.0  0.82707  0.22842  0.75338  1.0000
  H   H1511     1.0  0.78886  0.15958  0.96161  1.0000
  H   H1512     1.0  0.88470  0.12026  0.93263  1.0000
  C   C962      1.0  0.64863  0.19508  0.86603  1.0000
  C   C963      1.0  0.73847  0.07513  0.71234  1.0000
  H   H1513     1.0  0.65469  0.16857  0.84125  1.0000
  H   H1514     1.0  0.69878  0.18452  0.85387  1.0000
  C   C964      1.0  0.87790  0.10879  0.94379  1.0000
  H   H1515     1.0  0.65671  0.19326  0.77994  1.0000
  H   H1516     1.0  0.84761  0.08986  0.96340  1.0000
  H   H1517     1.0  0.74113  0.23779  0.66131  1.0000
  H   H1518     1.0  0.86207  0.09460  0.98047  1.0000
  H   H1519     1.0  0.74444  0.08600  0.69988  1.0000
  C   C965      1.0  0.63875  0.21357  0.75000  1.0000
  H   H1520     1.0  0.87567  0.09711  0.93586  1.0000
  H   H1521     1.0  0.86098  0.21438  0.73116  1.0000
  H   H1522     1.0  0.67738  0.08012  0.96540  1.0000
  C   C966      1.0  0.79554  0.13159  0.98028  1.0000
  H   H1523     1.0  0.74414  0.09236  0.74149  1.0000
  C   C967      1.0  0.67030  0.16457  0.87493  1.0000
  H   H1524     1.0  0.68432  0.15458  0.87061  1.0000
  H   H1525     1.0  0.65800  0.15584  0.87679  1.0000
  H   H1526     1.0  0.68459  0.19853  0.87236  1.0000
  C   C968      1.0  0.76776  0.23879  0.86917  1.0000
  H   H1527     1.0  0.94455  0.19199  0.77968  1.0000
  C   C969      1.0  0.70098  0.15655  0.68023  1.0000
  H   H1528     1.0  0.84052  0.22958  0.75942  1.0000
  S   S387      1.0  0.62364  0.20547  0.82589  1.0000
  C   C970      1.0  0.70607  0.09540  0.71585  1.0000
  H   H1529     1.0  0.71092  0.10712  0.70363  1.0000
  C   C971      1.0  0.84442  0.12592  0.94161  1.0000
  H   H1530     1.0  0.67098  0.16826  0.88971  1.0000
  H   H1531     1.0  0.83012  0.13258  0.94989  1.0000
  C   C972      1.0  0.84697  0.21380  0.72582  1.0000
  N   N98       1.0  0.83846  0.08365  0.83025  1.0000
  H   H1532     1.0  0.54859  0.03838  0.71484  1.0000
  C   C973      1.0  0.73380  0.20211  0.80678  1.0000
  H   H1533     1.0  0.94571  0.15122  0.75179  1.0000
  C   C974      1.0  0.77508  0.21847  0.87074  1.0000
  C   C975      1.0  0.98290  0.17746  0.89444  1.0000
  C   C976      1.0  0.88178  0.23475  0.75593  1.0000
  H   H1534     1.0  0.60212  0.22176  0.79298  1.0000
  H   H1535     1.0  0.82827  0.11253  0.81520  1.0000
  N   N99       1.0  0.75173  0.20180  0.81558  1.0000
  H   H1536     1.0  0.80842  0.08447  0.82588  1.0000
  H   H1537     1.0  0.86210  0.08107  0.80549  1.0000
  C   C977      1.0  0.85141  0.07477  0.84536  1.0000
  C   C978      1.0  0.84724  0.07664  0.81117  1.0000
  H   H1538     1.0  0.56293  0.11524  0.75729  1.0000
  H   H1539     1.0  0.86658  0.07878  0.84063  1.0000
  H   H1540     1.0  0.64648  0.20905  0.85533  1.0000
  H   H1541     1.0  0.66552  0.18976  0.82873  1.0000
  H   H1542     1.0  0.70003  0.19694  0.67630  1.0000
  H   H1543     1.0  0.74076  0.18491  0.84323  1.0000
  H   H1544     1.0  0.86972  0.14456  0.95436  1.0000
  C   C979      1.0  0.72840  0.20968  0.68961  1.0000
  H   H1545     1.0  0.72708  0.19405  0.69607  1.0000
  H   H1546     1.0  0.55242  0.16141  0.75261  1.0000
  H   H1547     1.0  0.97424  0.19202  0.88928  1.0000
  H   H1548     1.0  0.78321  0.20061  0.80612  1.0000
  C   C980      1.0  0.73088  0.09944  0.73439  1.0000
  Fe  Fe195     1.0  0.97804  0.11751  0.90156  1.0000
  H   H1549     1.0  0.54680  0.12001  0.72802  1.0000
  H   H1550     1.0  0.79096  0.21344  0.86866  1.0000
  H   H1551     1.0  0.76708  0.18401  0.83860  1.0000
  S   S388      1.0  0.97985  0.08916  0.88957  1.0000
  C   C981      1.0  0.76943  0.20068  0.80000  1.0000
  H   H1552     1.0  0.73567  0.11135  0.72241  1.0000
  H   H1553     1.0  0.71920  0.05919  0.97286  1.0000
  H   H1554     1.0  0.51388  0.02702  0.76160  1.0000
  H   H1555     1.0  0.82253  0.21394  0.76047  1.0000
  H   H1556     1.0  0.71827  0.23653  0.87787  1.0000
  H   H1557     1.0  0.50909  0.99896  0.74642  1.0000
  C   C982      1.0  0.75393  0.18447  0.83134  1.0000
  Fe  Fe196     1.0  0.49986  0.06060  0.67248  1.0000
  H   H1558     1.0  0.86499  0.15591  0.67546  1.0000
  N   N100      1.0  0.72271  0.08502  0.72636  1.0000
  H   H1559     1.0  0.57705  0.13281  0.76080  1.0000
  H   H1560     1.0  0.71544  0.08000  0.91996  1.0000
  H   H1561     1.0  0.70582  0.08099  0.98252  1.0000
  H   H1562     1.0  0.59337  0.14176  0.71527  1.0000
  H   H1563     1.0  0.93937  0.18578  0.75741  1.0000
  H   H1564     1.0  0.91846  0.16112  0.77758  1.0000
  S   S389      1.0  0.53254  0.05481  0.67392  1.0000
  H   H1565     1.0  0.64450  0.22284  0.75832  1.0000
  H   H1566     1.0  0.75569  0.17039  0.82536  1.0000
  H   H1567     1.0  0.84868  0.14035  0.97312  1.0000
  H   H1568     1.0  0.57427  0.16245  0.70994  1.0000
  C   C983      1.0  0.54780  0.15308  0.74241  1.0000
  H   H1569     1.0  0.84100  0.11452  0.93403  1.0000
  C   C984      1.0  0.72137  0.07489  0.93427  1.0000
  H   H1570     1.0  0.69283  0.11031  0.95946  1.0000
  C   C985      1.0  0.72586  0.23520  0.66097  1.0000
  H   H1571     1.0  0.96461  0.18380  0.76103  1.0000
  H   H1572     1.0  0.81021  0.17106  0.68299  1.0000
  H   H1573     1.0  0.74392  0.21172  0.68971  1.0000
  H   H1574     1.0  0.84992  0.13780  0.93001  1.0000
  H   H1575     1.0  0.75132  0.06723  0.71972  1.0000
  H   H1576     1.0  0.84261  0.19915  0.73231  1.0000
  H   H1577     1.0  0.71839  0.21924  0.69972  1.0000
  H   H1578     1.0  0.76814  0.21345  0.78778  1.0000
  C   C986      1.0  0.55831  0.12907  0.71998  1.0000
  H   H1579     1.0  0.76290  0.22038  0.83109  1.0000
  H   H1580     1.0  0.71969  0.10663  0.74565  1.0000
  H   H1581     1.0  0.70355  0.07720  0.75373  1.0000
  C   C987      1.0  0.73413  0.23139  0.87614  1.0000
  H   H1582     1.0  0.96826  0.17426  0.93329  1.0000
  H   H1583     1.0  0.73590  0.08012  0.93260  1.0000
  H   H1584     1.0  0.90322  0.13710  0.98262  1.0000
  H   H1585     1.0  0.50889  0.02984  0.70859  1.0000
  H   H1586     1.0  0.54088  0.16408  0.73084  1.0000
  H   H1587     1.0  0.98029  0.04862  0.84770  1.0000
  C   C988      1.0  0.51009  0.03410  0.72298  1.0000
  H   H1588     1.0  0.58750  0.11633  0.74341  1.0000
  C   C989      1.0  0.58018  0.15143  0.72209  1.0000
  H   H1589     1.0  0.99341  0.17267  0.88137  1.0000
  H   H1590     1.0  0.54029  0.01856  0.75817  1.0000
  H   H1591     1.0  0.98650  0.18564  0.94038  1.0000
  C   C990      1.0  0.74965  0.21997  0.82432  1.0000
  H   H1592     1.0  0.74753  0.23343  0.81300  1.0000
  H   H1593     1.0  0.55843  0.01363  0.72470  1.0000
  H   H1594     1.0  0.52200  0.99548  0.72208  1.0000
  H   H1595     1.0  0.82264  0.14712  0.69214  1.0000
  Fe  Fe197     1.0  0.76796  0.11583  0.66915  1.0000
  H   H1596     1.0  0.85044  0.21446  0.70941  1.0000
  C   C991      1.0  0.82510  0.16202  0.68416  1.0000
  H   H1597     1.0  0.83254  0.16865  0.69363  1.0000
  C   C992      1.0  0.97901  0.18485  0.92773  1.0000
  S   S390      1.0  0.78914  0.23296  0.67063  1.0000
  S   S391      1.0  0.84686  0.22898  0.66808  1.0000
  N   N101      1.0  0.99354  0.17852  0.91072  1.0000
  H   H1598     1.0  0.99447  0.14777  0.92277  1.0000
  H   H1599     1.0  0.99214  0.06702  0.85358  1.0000
  H   H1600     1.0  0.56359  0.23795  0.88522  1.0000
  N   N102      1.0  0.83717  0.16083  0.66434  1.0000
  S   S392      1.0  0.53162  0.10320  0.66381  1.0000
  H   H1601     1.0  0.99023  0.02492  0.87792  1.0000
  C   C993      1.0  0.99476  0.05393  0.84584  1.0000
  S   S393      1.0  0.73826  0.11217  0.66313  1.0000
  H   H1602     1.0  0.73567  0.18542  0.66262  1.0000
  H   H1603     1.0  0.84731  0.18853  0.66235  1.0000
  Fe  Fe198     1.0  0.66957  0.26342  0.13391  1.0000
  Fe  Fe199     1.0  0.66470  0.46057  0.11491  1.0000
  S   S394      1.0  0.67818  0.47427  0.08467  1.0000
  S   S395      1.0  0.68545  0.43426  0.12774  1.0000
  Fe  Fe200     1.0  0.64870  0.47313  0.07604  1.0000
  S   S396      1.0  0.64757  0.46221  0.04717  1.0000
  S   S397      1.0  0.63580  0.45833  0.10593  1.0000
  Fe  Fe201     1.0  0.68160  0.36161  0.22536  1.0000
  S   S398      1.0  0.70513  0.34384  0.20613  1.0000
  S   S399      1.0  0.65988  0.38732  0.21316  1.0000
  Fe  Fe202     1.0  0.69385  0.33719  0.26371  1.0000
  S   S400      1.0  0.71848  0.31762  0.24764  1.0000
  H   H1604     1.0  0.76831  0.31737  0.32110  1.0000
  Fe  Fe203     1.0  0.72470  0.34561  0.22779  1.0000
  S   S401      1.0  0.75574  0.35186  0.21760  1.0000
  Fe  Fe204     1.0  0.69642  0.31768  0.22788  1.0000
  S   S402      1.0  0.69206  0.28899  0.22068  1.0000
  S   S403      1.0  0.70188  0.36544  0.24554  1.0000
  S   S404      1.0  0.67108  0.33520  0.24543  1.0000
  Fe  Fe205     1.0  0.85948  0.36917  0.28130  1.0000
  S   S405      1.0  0.84791  0.34643  0.30596  1.0000
  S   S406      1.0  0.86182  0.39941  0.28774  1.0000
  Fe  Fe206     1.0  0.85878  0.34400  0.24906  1.0000
  S   S407      1.0  0.84762  0.31966  0.27134  1.0000
  S   S408      1.0  0.86419  0.34083  0.21644  1.0000
  Fe  Fe207     1.0  0.82729  0.34376  0.28554  1.0000
  S   S409      1.0  0.79520  0.34060  0.29493  1.0000
  Fe  Fe208     1.0  0.86943  0.32465  0.28928  1.0000
  S   S410      1.0  0.88779  0.29799  0.30427  1.0000
  S   S411      1.0  0.83692  0.36820  0.26200  1.0000
  S   S412      1.0  0.88264  0.34738  0.26581  1.0000
  H   H1605     1.0  0.88526  0.44242  0.32378  1.0000
  C   C994      1.0  0.96694  0.47179  0.31463  1.0000
  C   C995      1.0  0.90359  0.41378  0.32554  1.0000
  Fe  Fe209     1.0  0.62662  0.36519  0.01300  1.0000
  H   H1606     1.0  0.71999  0.25727  0.12298  1.0000
  S   S413      1.0  0.62668  0.37828  0.04096  1.0000
  H   H1607     1.0  0.67569  0.26770  0.28822  1.0000
  H   H1608     1.0  0.67183  0.40961  0.07847  1.0000
  S   S414      1.0  0.61151  0.33830  0.01770  1.0000
  C   C996      1.0  0.87655  0.27372  0.26078  1.0000
  C   C997      1.0  0.67739  0.26850  0.31878  1.0000
  S   S415      1.0  0.86357  0.26314  0.18112  1.0000
  H   H1609     1.0  0.65804  0.31434  0.04262  1.0000
  S   S416      1.0  0.80703  0.25755  0.18814  1.0000
  H   H1610     1.0  0.67486  0.32441  0.05320  1.0000
  C   C998      1.0  0.73075  0.39577  0.19246  1.0000
  C   C999      1.0  0.68058  0.42187  0.07623  1.0000
  S   S417      1.0  0.66697  0.29519  0.13696  1.0000
  H   H1611     1.0  0.65405  0.34027  0.04359  1.0000
  H   H1612     1.0  0.72437  0.38243  0.20036  1.0000
  C   C1000     1.0  0.62566  0.32328  0.06907  1.0000
  H   H1613     1.0  0.91445  0.27300  0.22186  1.0000
  S   S418      1.0  0.77865  0.27195  0.14358  1.0000
  H   H1614     1.0  0.73901  0.27894  0.13388  1.0000
  H   H1615     1.0  0.71691  0.40169  0.07960  1.0000
  H   H1616     1.0  0.68139  0.43308  0.03609  1.0000
  H   H1617     1.0  0.66939  0.30089  0.08451  1.0000
  C   C1001     1.0  0.65226  0.27999  0.02990  1.0000
  C   C1002     1.0  0.66707  0.26731  0.03939  1.0000
  H   H1618     1.0  0.70311  0.41600  0.02924  1.0000
  C   C1003     1.0  0.64205  0.25517  0.06579  1.0000
  C   C1004     1.0  0.62719  0.26770  0.05620  1.0000
  C   C1005     1.0  0.63230  0.28031  0.03838  1.0000
  H   H1619     1.0  0.68252  0.26699  0.03284  1.0000
  H   H1620     1.0  0.71914  0.26548  0.17174  1.0000
  Fe  Fe210     1.0  0.62567  0.48930  0.11315  1.0000
  H   H1621     1.0  0.62081  0.28995  0.03101  1.0000
  H   H1622     1.0  0.73068  0.39096  0.23169  1.0000
  H   H1623     1.0  0.61173  0.26776  0.06261  1.0000
  H   H1624     1.0  0.97236  0.43613  0.30315  1.0000
  H   H1625     1.0  0.69798  0.40348  0.21885  1.0000
  C   C1006     1.0  0.89745  0.29855  0.24720  1.0000
  H   H1626     1.0  0.75071  0.42595  0.18894  1.0000
  C   C1007     1.0  0.86106  0.28531  0.19096  1.0000
  C   C1008     1.0  0.87315  0.29912  0.18102  1.0000
  C   C1009     1.0  0.87352  0.31606  0.18896  1.0000
  C   C1010     1.0  0.86227  0.31928  0.20734  1.0000
  C   C1011     1.0  0.84996  0.30555  0.21750  1.0000
  C   C1012     1.0  0.84928  0.28859  0.20925  1.0000
  H   H1627     1.0  0.88253  0.29661  0.16709  1.0000
  H   H1628     1.0  0.88301  0.32655  0.18096  1.0000
  H   H1629     1.0  0.84095  0.30806  0.23158  1.0000
  H   H1630     1.0  0.84018  0.27779  0.21728  1.0000
  C   C1013     1.0  0.68453  0.29146  0.19756  1.0000
  C   C1014     1.0  0.67357  0.27784  0.19430  1.0000
  C   C1015     1.0  0.66794  0.27922  0.17568  1.0000
  C   C1016     1.0  0.67325  0.29424  0.16034  1.0000
  C   C1017     1.0  0.68412  0.30796  0.16358  1.0000
  C   C1018     1.0  0.68986  0.30648  0.18221  1.0000
  H   H1631     1.0  0.84516  0.30347  0.31253  1.0000
  H   H1632     1.0  0.99424  0.42595  0.31422  1.0000
  H   H1633     1.0  0.68862  0.31930  0.15156  1.0000
  H   H1634     1.0  0.69896  0.31654  0.18442  1.0000
  C   C1019     1.0  0.78434  0.34337  0.27344  1.0000
  C   C1020     1.0  0.76384  0.34414  0.27504  1.0000
  C   C1021     1.0  0.75508  0.34659  0.25788  1.0000
  C   C1022     1.0  0.76676  0.34858  0.23906  1.0000
  C   C1023     1.0  0.78726  0.34781  0.23745  1.0000
  C   C1024     1.0  0.79606  0.34497  0.25462  1.0000
  H   H1635     1.0  0.75469  0.34309  0.28950  1.0000
  H   H1636     1.0  0.73924  0.34716  0.25933  1.0000
  H   H1637     1.0  0.79640  0.34933  0.22302  1.0000
  H   H1638     1.0  0.81193  0.34403  0.25323  1.0000
  C   C1025     1.0  0.64041  0.43937  0.04567  1.0000
  C   C1026     1.0  0.64193  0.43371  0.02691  1.0000
  C   C1027     1.0  0.63766  0.41517  0.02514  1.0000
  C   C1028     1.0  0.63177  0.40206  0.04216  1.0000
  C   C1029     1.0  0.63021  0.40774  0.06091  1.0000
  C   C1030     1.0  0.63442  0.42628  0.06267  1.0000
  H   H1639     1.0  0.64655  0.44368  0.01364  1.0000
  H   H1640     1.0  0.63892  0.41104  0.01060  1.0000
  H   H1641     1.0  0.62552  0.39780  0.07418  1.0000
  H   H1642     1.0  0.63299  0.43043  0.07720  1.0000
  C   C1031     1.0  0.67768  0.42123  0.15126  1.0000
  C   C1032     1.0  0.68994  0.40402  0.15846  1.0000
  C   C1033     1.0  0.68448  0.39345  0.17736  1.0000
  C   C1034     1.0  0.66679  0.40008  0.18923  1.0000
  C   C1035     1.0  0.65438  0.41716  0.18194  1.0000
  C   C1036     1.0  0.65981  0.42774  0.16296  1.0000
  H   H1643     1.0  0.70370  0.39887  0.14936  1.0000
  H   H1644     1.0  0.69403  0.38025  0.18271  1.0000
  H   H1645     1.0  0.64063  0.42236  0.19105  1.0000
  H   H1646     1.0  0.65026  0.44101  0.15747  1.0000
  C   C1037     1.0  0.71140  0.40146  0.06554  1.0000
  C   C1038     1.0  0.76613  0.25792  0.13293  1.0000
  C   C1039     1.0  0.87486  0.42303  0.30842  1.0000
  C   C1040     1.0  0.87778  0.40419  0.30288  1.0000
  C   C1041     1.0  0.89349  0.39001  0.30904  1.0000
  S   S419      1.0  0.68923  0.33164  0.29699  1.0000
  H   H1647     1.0  0.86277  0.43409  0.30366  1.0000
  H   H1648     1.0  0.68116  0.40714  0.04346  1.0000
  H   H1649     1.0  0.89594  0.37549  0.30477  1.0000
  C   C1042     1.0  0.73023  0.26212  0.18215  1.0000
  H   H1650     1.0  0.64469  0.29929  0.09729  1.0000
  N   N103      1.0  0.63445  0.34854  0.18804  1.0000
  C   C1043     1.0  0.63268  0.37001  0.18077  1.0000
  C   C1044     1.0  0.63812  0.33770  0.17096  1.0000
  C   C1045     1.0  0.61587  0.34418  0.20107  1.0000
  C   C1046     1.0  0.65116  0.34225  0.19947  1.0000
  H   H1651     1.0  0.62043  0.37531  0.17180  1.0000
  H   H1652     1.0  0.64666  0.37392  0.17135  1.0000
  H   H1653     1.0  0.62963  0.37862  0.19334  1.0000
  H   H1654     1.0  0.65204  0.34068  0.16084  1.0000
  H   H1655     1.0  0.63970  0.32144  0.17595  1.0000
  H   H1656     1.0  0.62577  0.34196  0.16204  1.0000
  H   H1657     1.0  0.61679  0.32809  0.20689  1.0000
  H   H1658     1.0  0.60288  0.34876  0.19300  1.0000
  H   H1659     1.0  0.61276  0.35210  0.21416  1.0000
  H   H1660     1.0  0.65314  0.32608  0.20508  1.0000
  H   H1661     1.0  0.64864  0.34999  0.21258  1.0000
  H   H1662     1.0  0.66540  0.34564  0.19027  1.0000
  H   H1663     1.0  0.75238  0.40066  0.21913  1.0000
  C   C1047     1.0  0.67791  0.27652  0.29867  1.0000
  H   H1664     1.0  0.86452  0.28197  0.25243  1.0000
  H   H1665     1.0  0.61980  0.33809  0.06125  1.0000
  H   H1666     1.0  0.72546  0.27244  0.19321  1.0000
  C   C1048     1.0  0.66200  0.25511  0.05744  1.0000
  H   H1667     1.0  0.69708  0.42222  0.19746  1.0000
  H   H1668     1.0  0.72743  0.43491  0.17994  1.0000
  H   H1669     1.0  0.89555  0.30387  0.26171  1.0000
  C   C1049     1.0  0.89957  0.27077  0.23034  1.0000
  H   H1670     1.0  0.68545  0.42207  0.09060  1.0000
  C   C1050     1.0  0.74624  0.26453  0.13052  1.0000
  H   H1671     1.0  0.62414  0.31215  0.06008  1.0000
  H   H1672     1.0  0.66939  0.26623  0.20618  1.0000
  H   H1673     1.0  0.74704  0.39099  0.18853  1.0000
  H   H1674     1.0  0.72444  0.40074  0.17839  1.0000
  Fe  Fe211     1.0  0.80183  0.25126  0.15914  1.0000
  N   N104      1.0  0.72641  0.41152  0.20497  1.0000
  C   C1051     1.0  0.73434  0.42923  0.19362  1.0000
  C   C1052     1.0  0.73595  0.40454  0.22297  1.0000
  H   H1675     1.0  0.91198  0.30191  0.23868  1.0000
  C   C1053     1.0  0.70466  0.41657  0.21072  1.0000
  C   C1054     1.0  0.91179  0.26604  0.26167  1.0000
  H   H1676     1.0  0.88566  0.30755  0.23897  1.0000
  H   H1677     1.0  0.73136  0.44141  0.20265  1.0000
  C   C1055     1.0  0.68423  0.30750  0.30539  1.0000
  C   C1056     1.0  0.69056  0.41887  0.04143  1.0000
  H   H1678     1.0  0.73282  0.41588  0.23298  1.0000
  H   H1679     1.0  0.61586  0.32061  0.08361  1.0000
  H   H1680     1.0  0.88837  0.27927  0.22105  1.0000
  H   H1681     1.0  0.91144  0.24989  0.26405  1.0000
  H   H1682     1.0  0.65936  0.26870  0.17323  1.0000
  H   H1683     1.0  0.68232  0.30182  0.27633  1.0000
  H   H1684     1.0  0.70078  0.42810  0.22055  1.0000
  N   N105      1.0  0.80258  0.31945  0.17706  1.0000
  C   C1057     1.0  0.78503  0.33116  0.16882  1.0000
  C   C1058     1.0  0.81604  0.33280  0.17907  1.0000
  C   C1059     1.0  0.81319  0.30544  0.16354  1.0000
  C   C1060     1.0  0.79600  0.30843  0.19683  1.0000
  H   H1685     1.0  0.77460  0.32147  0.16712  1.0000
  H   H1686     1.0  0.78939  0.33972  0.15393  1.0000
  H   H1687     1.0  0.77663  0.34179  0.17875  1.0000
  H   H1688     1.0  0.82946  0.32439  0.18516  1.0000
  H   H1689     1.0  0.82129  0.34143  0.16449  1.0000
  H   H1690     1.0  0.80861  0.34347  0.18930  1.0000
  H   H1691     1.0  0.82616  0.29585  0.16960  1.0000
  H   H1692     1.0  0.81893  0.31328  0.14870  1.0000
  H   H1693     1.0  0.80326  0.29563  0.16103  1.0000
  H   H1694     1.0  0.80879  0.29919  0.20343  1.0000
  H   H1695     1.0  0.78553  0.29847  0.19594  1.0000
  H   H1696     1.0  0.78819  0.31860  0.20747  1.0000
  H   H1697     1.0  0.72456  0.39942  0.05376  1.0000
  S   S420      1.0  0.64322  0.24839  0.13781  1.0000
  H   H1698     1.0  0.72708  0.29475  0.31167  1.0000
  H   H1699     1.0  0.66349  0.33689  0.08551  1.0000
  S   S421      1.0  0.65925  0.29519  0.00745  1.0000
  H   H1700     1.0  0.63875  0.33524  0.09830  1.0000
  C   C1061     1.0  0.68163  0.29589  0.29194  1.0000
  H   H1701     1.0  0.95362  0.46890  0.30949  1.0000
  S   S422      1.0  0.68264  0.25500  0.10413  1.0000
  C   C1062     1.0  0.87140  0.28280  0.31872  1.0000
  H   H1702     1.0  0.71303  0.43857  0.07100  1.0000
  N   N106      1.0  0.97864  0.45328  0.32331  1.0000
  H   H1703     1.0  0.92692  0.26853  0.25411  1.0000
  C   C1063     1.0  0.73544  0.25220  0.12448  1.0000
  H   H1704     1.0  0.64259  0.35247  0.07569  1.0000
  H   H1705     1.0  0.65281  0.29049  0.07392  1.0000
  N   N107      1.0  0.89635  0.27726  0.24999  1.0000
  N   N108      1.0  0.64655  0.32209  0.07166  1.0000
  C   C1064     1.0  0.65366  0.30234  0.08230  1.0000
  C   C1065     1.0  0.65895  0.32543  0.05193  1.0000
  C   C1066     1.0  0.64791  0.33737  0.08331  1.0000
  H   H1706     1.0  0.96157  0.48209  0.32570  1.0000
  H   H1707     1.0  0.70690  0.24714  0.21453  1.0000
  H   H1708     1.0  0.74463  0.26562  0.17346  1.0000
  H   H1709     1.0  0.67030  0.43590  0.07300  1.0000
  C   C1067     1.0  0.98529  0.44003  0.30819  1.0000
  H   H1710     1.0  0.72133  0.43574  0.04528  1.0000
  C   C1068     1.0  0.88760  0.42778  0.31981  1.0000
  H   H1711     1.0  0.72699  0.32065  0.31010  1.0000
  H   H1712     1.0  0.74897  0.30534  0.30021  1.0000
  H   H1713     1.0  0.97590  0.47975  0.30170  1.0000
  N   N109      1.0  0.69765  0.41978  0.06005  1.0000
  C   C1069     1.0  0.90644  0.39486  0.32020  1.0000
  C   C1070     1.0  0.73631  0.30585  0.31270  1.0000
  S   S423      1.0  0.65539  0.35049  0.99740  1.0000
  Fe  Fe212     1.0  0.63978  0.32450  0.00046  1.0000
  H   H1714     1.0  0.70392  0.38825  0.06782  1.0000
  H   H1715     1.0  0.99456  0.44706  0.29486  1.0000
  H   H1716     1.0  0.90961  0.27061  0.27662  1.0000
  H   H1717     1.0  0.76899  0.28159  0.32310  1.0000
  H   H1718     1.0  0.87362  0.27856  0.27565  1.0000
  H   H1719     1.0  0.69814  0.45097  0.05238  1.0000
  C   C1071     1.0  0.70807  0.43698  0.05706  1.0000
  C   C1072     1.0  0.85092  0.28919  0.32012  1.0000
  H   H1720     1.0  0.89841  0.25486  0.23176  1.0000
  H   H1721     1.0  0.67353  0.24539  0.06468  1.0000
  H   H1722     1.0  0.74186  0.24724  0.21769  1.0000
  H   H1723     1.0  0.91880  0.38394  0.32455  1.0000
  H   H1724     1.0  0.87520  0.25779  0.26324  1.0000
  Fe  Fe213     1.0  0.83903  0.24760  0.17703  1.0000
  C   C1073     1.0  0.68337  0.29959  0.32557  1.0000
  S   S424      1.0  0.65336  0.48971  0.12560  1.0000
  S   S425      1.0  0.83408  0.24362  0.14673  1.0000
  S   S426      1.0  0.67324  0.24408  0.32687  1.0000
  Fe  Fe214     1.0  0.91171  0.44677  0.35440  1.0000
  S   S427      1.0  0.88067  0.45715  0.36834  1.0000
  H   H1725     1.0  0.96461  0.33462  0.49778  1.0000
  H   H1726     1.0  0.90767  0.26910  0.46656  1.0000
  C   C1074     1.0  0.89542  0.39581  0.38326  1.0000
  Fe  Fe215     1.0  0.89473  0.45880  0.39465  1.0000
  S   S428      1.0  0.88067  0.44529  0.42516  1.0000
  H   H1727     1.0  0.99014  0.33234  0.57622  1.0000
  H   H1728     1.0  0.87710  0.36643  0.37973  1.0000
  S   S429      1.0  0.92553  0.44674  0.38126  1.0000
  C   C1075     1.0  0.86533  0.25254  0.34093  1.0000
  H   H1729     1.0  0.88976  0.26162  0.36690  1.0000
  H   H1730     1.0  0.87279  0.39674  0.35515  1.0000
  S   S430      1.0  0.96950  0.36995  0.58891  1.0000
  H   H1731     1.0  0.89769  0.29303  0.38759  1.0000
  H   H1732     1.0  0.76038  0.31552  0.34743  1.0000
  H   H1733     1.0  0.88053  0.27466  0.41766  1.0000
  Fe  Fe216     1.0  0.87239  0.33234  0.52939  1.0000
  S   S431      1.0  0.88865  0.30203  0.53819  1.0000
  S   S432      1.0  0.84504  0.34672  0.54777  1.0000
  Fe  Fe217     1.0  0.90001  0.33917  0.48980  1.0000
  S   S433      1.0  0.91803  0.30891  0.49598  1.0000
  S   S434      1.0  0.91234  0.35652  0.46053  1.0000
  Fe  Fe218     1.0  0.88875  0.29806  0.50642  1.0000
  S   S435      1.0  0.87550  0.27228  0.50069  1.0000
  Fe  Fe219     1.0  0.91618  0.31617  0.52679  1.0000
  S   S436      1.0  0.94438  0.31110  0.54091  1.0000
  S   S437      1.0  0.87087  0.32795  0.49837  1.0000
  S   S438      1.0  0.89971  0.34685  0.51994  1.0000
  H   H1734     1.0  0.80071  0.28690  0.56115  1.0000
  H   H1735     1.0  0.87648  0.24786  0.38797  1.0000
  H   H1736     1.0  0.84752  0.40796  0.40483  1.0000
  S   S439      1.0  0.99433  0.39351  0.62227  1.0000
  H   H1737     1.0  0.89984  0.33360  0.63449  1.0000
  N   N110      1.0  0.87240  0.27907  0.38852  1.0000
  C   C1076     1.0  0.91318  0.32590  0.62576  1.0000
  S   S440      1.0  0.99120  0.34615  0.63771  1.0000
  Fe  Fe220     1.0  0.79715  0.28630  0.64645  1.0000
  S   S441      1.0  0.80084  0.31778  0.63410  1.0000
  H   H1738     1.0  0.85352  0.37491  0.39383  1.0000
  S   S442      1.0  0.81066  0.26046  0.63090  1.0000
  H   H1739     1.0  0.89449  0.25934  0.32779  1.0000
  H   H1740     1.0  0.86254  0.26701  0.54334  1.0000
  H   H1741     1.0  0.83640  0.31650  0.65193  1.0000
  C   C1077     1.0  0.83392  0.33749  0.57195  1.0000
  C   C1078     1.0  0.81735  0.34943  0.58074  1.0000
  C   C1079     1.0  0.80748  0.34302  0.59967  1.0000
  C   C1080     1.0  0.81368  0.32434  0.60998  1.0000
  C   C1081     1.0  0.83036  0.31219  0.60137  1.0000
  C   C1082     1.0  0.84065  0.31889  0.58240  1.0000
  H   H1742     1.0  0.81211  0.36382  0.57285  1.0000
  H   H1743     1.0  0.79477  0.35257  0.60625  1.0000
  H   H1744     1.0  0.83557  0.29792  0.60948  1.0000
  H   H1745     1.0  0.85376  0.30980  0.57593  1.0000
  C   C1083     1.0  0.87912  0.26076  0.47907  1.0000
  C   C1084     1.0  0.85871  0.26422  0.65103  1.0000
  S   S443      1.0  0.89876  0.49085  0.38475  1.0000
  H   H1746     1.0  0.77660  0.25649  0.38521  1.0000
  C   C1085     1.0  0.96295  0.35310  0.57584  1.0000
  C   C1086     1.0  0.94418  0.35729  0.56966  1.0000
  C   C1087     1.0  0.93804  0.34428  0.55957  1.0000
  C   C1088     1.0  0.95088  0.32718  0.55492  1.0000
  C   C1089     1.0  0.96966  0.32296  0.56110  1.0000
  C   C1090     1.0  0.97565  0.33578  0.57160  1.0000
  H   H1747     1.0  0.93423  0.37065  0.57283  1.0000
  H   H1748     1.0  0.92346  0.34763  0.55515  1.0000
  H   H1749     1.0  0.97969  0.30974  0.55765  1.0000
  C   C1091     1.0  0.94891  0.31827  0.61972  1.0000
  H   H1750     1.0  0.84937  0.26464  0.64005  1.0000
  H   H1751     1.0  0.86923  0.40042  0.41670  1.0000
  H   H1752     1.0  0.97830  0.36908  0.46715  1.0000
  H   H1753     1.0  0.94221  0.37962  0.46635  1.0000
  H   H1754     1.0  0.94090  0.39596  0.48395  1.0000
  H   H1755     1.0  0.76111  0.27947  0.34956  1.0000
  H   H1756     1.0  0.97427  0.42911  0.34717  1.0000
  H   H1757     1.0  0.95255  0.44025  0.33617  1.0000
  S   S444      1.0  0.73617  0.25578  0.38250  1.0000
  H   H1758     1.0  0.93871  0.34229  0.49710  1.0000
  H   H1759     1.0  0.85760  0.28547  0.36290  1.0000
  C   C1092     1.0  0.97538  0.37035  0.48325  1.0000
  Fe  Fe221     1.0  0.99349  0.36671  0.60853  1.0000
  H   H1760     1.0  0.85734  0.29065  0.41506  1.0000
  C   C1093     1.0  0.95361  0.34591  0.49028  1.0000
  C   C1094     1.0  0.90336  0.38137  0.45157  1.0000
  C   C1095     1.0  0.91345  0.39042  0.43380  1.0000
  C   C1096     1.0  0.90684  0.41008  0.42585  1.0000
  C   C1097     1.0  0.89004  0.42094  0.43557  1.0000
  C   C1098     1.0  0.88002  0.41194  0.45350  1.0000
  C   C1099     1.0  0.88666  0.39220  0.46152  1.0000
  H   H1761     1.0  0.92646  0.38217  0.42609  1.0000
  H   H1762     1.0  0.91474  0.41676  0.41214  1.0000
  H   H1763     1.0  0.86699  0.42022  0.46115  1.0000
  H   H1764     1.0  0.87879  0.38538  0.47528  1.0000
  Fe  Fe222     1.0  0.99400  0.37229  0.65081  1.0000
  C   C1100     1.0  0.77078  0.24621  0.39763  1.0000
  H   H1765     1.0  0.85445  0.27823  0.56535  1.0000
  N   N111      1.0  0.95532  0.36618  0.49244  1.0000
  H   H1766     1.0  0.90196  0.38803  0.39664  1.0000
  H   H1767     1.0  0.95341  0.38293  0.51609  1.0000
  Fe  Fe223     1.0  0.92874  0.47847  0.36931  1.0000
  C   C1101     1.0  0.93185  0.32175  0.65287  1.0000
  C   C1102     1.0  0.86392  0.40721  0.40238  1.0000
  S   S445      1.0  0.95857  0.48905  0.36564  1.0000
  H   H1768     1.0  0.85546  0.34386  0.64499  1.0000
  C   C1103     1.0  0.75501  0.31763  0.33290  1.0000
  C   C1104     1.0  0.86974  0.37538  0.39159  1.0000
  C   C1105     1.0  0.86785  0.28055  0.65075  1.0000
  C   C1106     1.0  0.85017  0.26890  0.55597  1.0000
  H   H1769     1.0  0.91255  0.33141  0.60970  1.0000
  C   C1107     1.0  0.85411  0.28295  0.37940  1.0000
  H   H1770     1.0  0.92038  0.35899  0.63642  1.0000
  C   C1108     1.0  0.81525  0.28023  0.56601  1.0000
  C   C1109     1.0  0.86600  0.40516  0.36758  1.0000
  H   H1771     1.0  0.83740  0.30750  0.54548  1.0000
  H   H1772     1.0  0.86702  0.42267  0.39908  1.0000
  H   H1773     1.0  0.94697  0.35343  0.63082  1.0000
  H   H1774     1.0  0.86937  0.42043  0.36272  1.0000
  H   H1775     1.0  0.93697  0.36502  0.52104  1.0000
  H   H1776     1.0  0.87535  0.36802  0.40564  1.0000
  H   H1777     1.0  0.96324  0.32147  0.62238  1.0000
  C   C1110     1.0  0.68033  0.27998  0.33222  1.0000
  C   C1111     1.0  0.95206  0.36791  0.51377  1.0000
  H   H1778     1.0  0.84394  0.29626  0.38388  1.0000
  H   H1779     1.0  0.86557  0.29341  0.63951  1.0000
  Fe  Fe224     1.0  0.88757  0.48783  0.35713  1.0000
  H   H1780     1.0  0.89895  0.41110  0.38022  1.0000
  H   H1781     1.0  0.90325  0.38838  0.37043  1.0000
  C   C1112     1.0  0.89918  0.25045  0.44883  1.0000
  H   H1782     1.0  0.84573  0.27028  0.38377  1.0000
  H   H1783     1.0  0.94915  0.30202  0.62334  1.0000
  C   C1113     1.0  0.99606  0.45788  0.32997  1.0000
  H   H1784     1.0  0.93228  0.35661  0.61150  1.0000
  H   H1785     1.0  0.94572  0.32381  0.65757  1.0000
  H   H1786     1.0  0.73059  0.30049  0.36315  1.0000
  N   N112      1.0  0.83120  0.27790  0.54881  1.0000
  H   H1787     1.0  0.87487  0.30979  0.38487  1.0000
  N   N113      1.0  0.93170  0.32910  0.63145  1.0000
  H   H1788     1.0  0.92490  0.37761  0.48894  1.0000
  S   S446      1.0  0.82781  0.24546  0.35800  1.0000
  H   H1789     1.0  0.97717  0.38554  0.48460  1.0000
  C   C1114     1.0  0.84484  0.25909  0.34235  1.0000
  S   S447      1.0  0.91781  0.47716  0.34112  1.0000
  C   C1115     1.0  0.75574  0.28263  0.33491  1.0000
  H   H1790     1.0  0.85912  0.26442  0.41656  1.0000
  H   H1791     1.0  0.82451  0.25008  0.54500  1.0000
  C   C1116     1.0  0.89630  0.26114  0.46485  1.0000
  C   C1117     1.0  0.93285  0.35044  0.62741  1.0000
  H   H1792     1.0  0.94839  0.32243  0.60352  1.0000
  H   H1793     1.0  0.81849  0.29004  0.57555  1.0000
  Fe  Fe225     1.0  0.78103  0.25074  0.64193  1.0000
  C   C1118     1.0  0.86707  0.27720  0.41037  1.0000
  H   H1794     1.0  0.88795  0.29739  0.36458  1.0000
  S   S448      1.0  0.76664  0.27785  0.65534  1.0000
  H   H1795     1.0  0.81916  0.30488  0.53135  1.0000
  H   H1796     1.0  0.81338  0.26577  0.57553  1.0000
  H   H1797     1.0  0.82022  0.35030  0.63949  1.0000
  H   H1798     1.0  0.98707  0.35979  0.49050  1.0000
  H   H1799     1.0  0.84962  0.40600  0.36931  1.0000
  S   S449      1.0  0.92022  0.41946  0.33939  1.0000
  C   C1119     1.0  0.86466  0.25004  0.47669  1.0000
  C   C1120     1.0  0.88477  0.26055  0.38319  1.0000
  H   H1800     1.0  0.83806  0.26284  0.52339  1.0000
  H   H1801     1.0  0.81209  0.27138  0.53055  1.0000
  N   N114      1.0  0.87376  0.39591  0.38619  1.0000
  H   H1802     1.0  0.99140  0.46796  0.34134  1.0000
  C   C1121     1.0  0.94022  0.38050  0.48250  1.0000
  C   C1122     1.0  0.82620  0.26498  0.53642  1.0000
  H   H1803     1.0  0.67971  0.27392  0.34781  1.0000
  C   C1123     1.0  0.88373  0.29559  0.38107  1.0000
  H   H1804     1.0  0.91277  0.25041  0.43825  1.0000
  H   H1805     1.0  0.71703  0.29114  0.34841  1.0000
  H   H1806     1.0  0.74614  0.33270  0.33059  1.0000
  C   C1124     1.0  0.83324  0.29746  0.53678  1.0000
  H   H1807     1.0  0.89827  0.25668  0.39058  1.0000
  H   H1808     1.0  0.95567  0.34405  0.47437  1.0000
  H   H1809     1.0  0.96298  0.35709  0.52183  1.0000
  N   N115      1.0  0.74324  0.30226  0.33218  1.0000
  H   H1810     1.0  0.91190  0.30991  0.62848  1.0000
  H   H1811     1.0  0.84497  0.29624  0.52354  1.0000
  H   H1812     1.0  0.74719  0.27074  0.33457  1.0000
  H   H1813     1.0  0.84924  0.25406  0.56499  1.0000
  H   H1814     1.0  0.96132  0.45275  0.35240  1.0000
  H   H1815     1.0  0.71586  0.31737  0.34642  1.0000
  H   H1816     1.0  0.68497  0.30867  0.33605  1.0000
  H   H1817     1.0  0.93069  0.30574  0.65653  1.0000
  C   C1125     1.0  0.72592  0.30292  0.34823  1.0000
  C   C1126     1.0  0.96617  0.44339  0.34049  1.0000
  H   H1818     1.0  0.85138  0.24950  0.48762  1.0000
  H   H1819     1.0  0.82184  0.28243  0.33290  1.0000
  C   C1127     1.0  0.83767  0.27727  0.33173  1.0000
  C   C1128     1.0  0.81558  0.35259  0.65528  1.0000
  C   C1129     1.0  0.75094  0.24372  0.40043  1.0000
  C   C1130     1.0  0.87864  0.26438  0.32896  1.0000
  H   H1820     1.0  0.81376  0.36870  0.65565  1.0000
  H   H1821     1.0  0.84916  0.36334  0.65999  1.0000
  C   C1131     1.0  0.84981  0.34723  0.66031  1.0000
  H   H1822     1.0  0.80071  0.34794  0.66021  1.0000
  Fe  Fe226     1.0  0.87547  0.28332  0.74178  1.0000
  S   S450      1.0  0.87310  0.31053  0.75511  1.0000
  Fe  Fe227     1.0  0.88291  0.30489  0.69982  1.0000
  S   S451      1.0  0.88055  0.33434  0.70936  1.0000
  C   C1132     1.0  0.86139  0.24758  0.66562  1.0000
  Fe  Fe228     1.0  0.89923  0.31686  0.73188  1.0000
  S   S452      1.0  0.92459  0.32661  0.74115  1.0000
  Fe  Fe229     1.0  0.85470  0.32511  0.73159  1.0000
  S   S453      1.0  0.82412  0.34213  0.73888  1.0000
  S   S454      1.0  0.90351  0.28800  0.72068  1.0000
  S   S455      1.0  0.85526  0.29728  0.71975  1.0000
  N   N116      1.0  0.59694  0.38628  0.92462  1.0000
  Fe  Fe230     1.0  0.77056  0.28801  0.86353  1.0000
  S   S456      1.0  0.78497  0.30821  0.87597  1.0000
  Fe  Fe231     1.0  0.51140  0.31237  0.90859  1.0000
  Fe  Fe232     1.0  0.73935  0.32144  0.84927  1.0000
  S   S457      1.0  0.75092  0.34473  0.86008  1.0000
  S   S458      1.0  0.71221  0.32687  0.83467  1.0000
  Fe  Fe233     1.0  0.78082  0.32922  0.84776  1.0000
  S   S459      1.0  0.80649  0.34412  0.83137  1.0000
  Fe  Fe234     1.0  0.75392  0.32199  0.88732  1.0000
  S   S460      1.0  0.74478  0.32828  0.91876  1.0000
  S   S461      1.0  0.76900  0.30793  0.83433  1.0000
  S   S462      1.0  0.73983  0.29983  0.87758  1.0000
  S   S463      1.0  0.62668  0.25343  0.78236  1.0000
  H   H1823     1.0  0.82256  0.36077  0.68974  1.0000
  S   S464      1.0  0.76220  0.25955  0.71531  1.0000
  H   H1824     1.0  0.59823  0.26892  0.89474  1.0000
  S   S465      1.0  0.66530  0.27440  0.78357  1.0000
  H   H1825     1.0  0.89066  0.26384  0.69147  1.0000
  H   H1826     1.0  0.70419  0.30677  0.91319  1.0000
  H   H1827     1.0  0.82638  0.26182  0.72759  1.0000
  C   C1133     1.0  0.56147  0.26207  0.91169  1.0000
  H   H1828     1.0  0.54392  0.25835  0.88113  1.0000
  S   S466      1.0  0.64204  0.25245  0.82520  1.0000
  Fe  Fe235     1.0  0.63379  0.27499  0.79934  1.0000
  S   S467      1.0  0.61280  0.30240  0.80630  1.0000
  C   C1134     1.0  0.56038  0.25402  0.87958  1.0000
  H   H1829     1.0  0.93409  0.33042  0.69790  1.0000
  Fe  Fe236     1.0  0.67256  0.24941  0.80783  1.0000
  S   S468      1.0  0.51700  0.32762  0.87693  1.0000
  S   S469      1.0  0.53707  0.30592  0.92667  1.0000
  S   S470      1.0  0.88687  0.30247  0.66754  1.0000
  S   S471      1.0  0.52761  0.28253  0.84611  1.0000
  H   H1830     1.0  0.80899  0.34040  0.69488  1.0000
  C   C1135     1.0  0.58877  0.29736  0.81667  1.0000
  C   C1136     1.0  0.57430  0.31201  0.82454  1.0000
  C   C1137     1.0  0.55526  0.30782  0.83331  1.0000
  C   C1138     1.0  0.55061  0.28902  0.83398  1.0000
  C   C1139     1.0  0.56492  0.27461  0.82560  1.0000
  C   C1140     1.0  0.58402  0.27863  0.81735  1.0000
  H   H1831     1.0  0.57786  0.32656  0.82397  1.0000
  H   H1832     1.0  0.54422  0.31913  0.83947  1.0000
  H   H1833     1.0  0.56136  0.26009  0.82593  1.0000
  H   H1834     1.0  0.59502  0.26719  0.81146  1.0000
  C   C1141     1.0  0.56508  0.31315  0.94660  1.0000
  S   S472      1.0  0.78440  0.25597  0.86308  1.0000
  C   C1142     1.0  0.87884  0.28065  0.66569  1.0000
  H   H1835     1.0  0.99045  0.30190  0.71816  1.0000
  Fe  Fe237     1.0  0.60191  0.34991  0.98763  1.0000
  H   H1836     1.0  0.56616  0.25621  0.86340  1.0000
  H   H1837     1.0  0.86578  0.28696  0.81034  1.0000
  C   C1143     1.0  0.54662  0.32045  0.94011  1.0000
  H   H1838     1.0  0.74145  0.26071  0.87057  1.0000
  C   C1144     1.0  0.56228  0.34145  0.96343  1.0000
  C   C1145     1.0  0.54394  0.34889  0.95675  1.0000
  C   C1146     1.0  0.53620  0.33855  0.94503  1.0000
  H   H1839     1.0  0.53551  0.36261  0.96089  1.0000
  H   H1840     1.0  0.52195  0.34431  0.94026  1.0000
  C   C1147     1.0  0.70750  0.30351  0.83339  1.0000
  C   C1148     1.0  0.72227  0.28713  0.83640  1.0000
  C   C1149     1.0  0.71951  0.26859  0.83370  1.0000
  C   C1150     1.0  0.70194  0.26635  0.82800  1.0000
  C   C1151     1.0  0.68675  0.28256  0.82574  1.0000
  C   C1152     1.0  0.68954  0.30119  0.82843  1.0000
  H   H1841     1.0  0.73612  0.28872  0.84028  1.0000
  H   H1842     1.0  0.83974  0.30639  0.79200  1.0000
  H   H1843     1.0  0.86098  0.33932  0.66988  1.0000
  H   H1844     1.0  0.67793  0.31381  0.82643  1.0000
  C   C1153     1.0  0.72095  0.34210  0.92376  1.0000
  C   C1154     1.0  0.71287  0.34438  0.94345  1.0000
  C   C1155     1.0  0.69319  0.35369  0.94812  1.0000
  C   C1156     1.0  0.68166  0.36128  0.93305  1.0000
  C   C1157     1.0  0.68992  0.35956  0.91327  1.0000
  C   C1158     1.0  0.70946  0.34977  0.90865  1.0000
  H   H1845     1.0  0.72175  0.33864  0.95517  1.0000
  H   H1846     1.0  0.68707  0.35523  0.96335  1.0000
  H   H1847     1.0  0.68111  0.36546  0.90153  1.0000
  H   H1848     1.0  0.71556  0.34808  0.89342  1.0000
  C   C1159     1.0  0.74726  0.24515  0.87197  1.0000
  H   H1849     1.0  0.72667  0.27658  0.95550  1.0000
  H   H1850     1.0  0.67177  0.28409  0.95754  1.0000
  H   H1851     1.0  0.58060  0.39225  0.95301  1.0000
  H   H1852     1.0  0.73150  0.29042  0.93102  1.0000
  C   C1160     1.0  0.83754  0.24925  0.72276  1.0000
  H   H1853     1.0  0.98124  0.32767  0.71778  1.0000
  C   C1161     1.0  0.82362  0.26632  0.82188  1.0000
  C   C1162     1.0  0.85667  0.27486  0.81482  1.0000
  C   C1163     1.0  0.81878  0.34393  0.76434  1.0000
  C   C1164     1.0  0.83359  0.34664  0.77431  1.0000
  C   C1165     1.0  0.82948  0.34729  0.79480  1.0000
  C   C1166     1.0  0.81067  0.34482  0.80548  1.0000
  C   C1167     1.0  0.79576  0.34231  0.79548  1.0000
  C   C1168     1.0  0.79977  0.34206  0.77489  1.0000
  H   H1854     1.0  0.84819  0.34849  0.76619  1.0000
  H   H1855     1.0  0.84099  0.34945  0.80243  1.0000
  H   H1856     1.0  0.78109  0.34087  0.80357  1.0000
  H   H1857     1.0  0.78822  0.34015  0.76719  1.0000
  C   C1169     1.0  0.96226  0.36615  0.69589  1.0000
  C   C1170     1.0  0.95892  0.36773  0.71608  1.0000
  C   C1171     1.0  0.94714  0.35564  0.72971  1.0000
  C   C1172     1.0  0.93810  0.34227  0.72320  1.0000
  C   C1173     1.0  0.94102  0.34086  0.70289  1.0000
  C   C1174     1.0  0.95334  0.35269  0.68920  1.0000
  H   H1858     1.0  0.96569  0.37818  0.72128  1.0000
  H   H1859     1.0  0.94491  0.35676  0.74537  1.0000
  H   H1860     1.0  0.60726  0.36459  0.94809  1.0000
  H   H1861     1.0  0.84249  0.31075  0.67664  1.0000
  H   H1862     1.0  0.58216  0.37751  0.90382  1.0000
  C   C1175     1.0  0.59110  0.26014  0.88703  1.0000
  C   C1176     1.0  0.60507  0.36578  0.93244  1.0000
  H   H1863     1.0  0.60700  0.38221  0.89420  1.0000
  H   H1864     1.0  0.86040  0.26643  0.82929  1.0000
  C   C1177     1.0  0.68683  0.28557  0.95987  1.0000
  C   C1178     1.0  0.59312  0.38718  0.90416  1.0000
  H   H1865     1.0  0.68508  0.29901  0.96698  1.0000
  C   C1179     1.0  0.82372  0.34489  0.68857  1.0000
  C   C1180     1.0  0.69661  0.25248  0.73081  1.0000
  Fe  Fe238     1.0  0.50956  0.30052  0.86899  1.0000
  C   C1181     1.0  0.57817  0.39269  0.93746  1.0000
  H   H1866     1.0  0.58709  0.40248  0.89772  1.0000
  H   H1867     1.0  0.85188  0.25038  0.72716  1.0000
  H   H1868     1.0  0.62581  0.39493  0.91493  1.0000
  H   H1869     1.0  0.99764  0.31517  0.73489  1.0000
  H   H1870     1.0  0.69196  0.27270  0.97086  1.0000
  C   C1182     1.0  0.69843  0.32003  0.77893  1.0000
  H   H1871     1.0  0.70445  0.31809  0.73986  1.0000
  C   C1183     1.0  0.57296  0.32363  0.95805  1.0000
  H   H1872     1.0  0.70255  0.32421  0.79223  1.0000
  H   H1873     1.0  0.72695  0.29287  0.79393  1.0000
  N   N117      1.0  0.70089  0.28697  0.94099  1.0000
  H   H1874     1.0  0.73538  0.28113  0.77220  1.0000
  H   H1875     1.0  0.67290  0.28085  0.82177  1.0000
  H   H1876     1.0  0.61501  0.39860  0.93970  1.0000
  H   H1877     1.0  0.69769  0.29523  0.75356  1.0000
  C   C1184     1.0  0.69328  0.30425  0.92703  1.0000
  H   H1878     1.0  0.54502  0.26638  0.91451  1.0000
  H   H1879     1.0  0.59482  0.35533  0.93229  1.0000
  H   H1880     1.0  0.95578  0.35160  0.67356  1.0000
  Fe  Fe239     1.0  0.65906  0.25071  0.76890  1.0000
  C   C1185     1.0  0.83160  0.31986  0.66734  1.0000
  H   H1881     1.0  0.60579  0.41502  0.91899  1.0000
  C   C1186     1.0  0.72546  0.25870  0.70590  1.0000
  H   H1882     1.0  0.61977  0.36067  0.92380  1.0000
  S   S473      1.0  0.65676  0.37242  0.93876  1.0000
  H   H1883     1.0  0.56707  0.38280  0.93831  1.0000
  H   H1884     1.0  0.82609  0.25774  0.83670  1.0000
  H   H1885     1.0  0.71346  0.26966  0.91774  1.0000
  N   N118      1.0  0.56926  0.26580  0.89023  1.0000
  C   C1187     1.0  0.99457  0.31620  0.71950  1.0000
  S   S474      1.0  0.67158  0.24903  0.73671  1.0000
  H   H1886     1.0  0.57138  0.40801  0.93196  1.0000
  N   N119      1.0  0.71566  0.30874  0.76765  1.0000
  C   C1188     1.0  0.61145  0.39934  0.92451  1.0000
  S   S475      1.0  0.97828  0.38088  0.67989  1.0000
  H   H1887     1.0  0.89354  0.24792  0.72650  1.0000
  S   S476      1.0  0.50533  0.28452  0.90026  1.0000
  H   H1888     1.0  0.68606  0.31131  0.78430  1.0000
  Fe  Fe240     1.0  0.77729  0.26099  0.68328  1.0000
  C   C1189     1.0  0.73198  0.32056  0.76183  1.0000
  H   H1889     1.0  0.74526  0.31254  0.75327  1.0000
  H   H1890     1.0  0.72738  0.33486  0.75240  1.0000
  H   H1891     1.0  0.73672  0.32408  0.77514  1.0000
  H   H1892     1.0  0.69250  0.33396  0.76972  1.0000
  N   N120      1.0  0.83522  0.28277  0.81623  1.0000
  H   H1893     1.0  0.83444  0.33644  0.69838  1.0000
  H   H1894     1.0  0.70897  0.25553  0.94213  1.0000
  C   C1190     1.0  0.82953  0.29595  0.83144  1.0000
  H   H1895     1.0  0.54774  0.29155  0.88335  1.0000
  N   N121      1.0  0.83016  0.34116  0.66787  1.0000
  S   S477      1.0  0.61459  0.37801  0.98448  1.0000
  C   C1191     1.0  0.72048  0.28927  0.94494  1.0000
  C   C1192     1.0  0.83106  0.29400  0.79675  1.0000
  H   H1896     1.0  0.81701  0.31478  0.67282  1.0000
  Fe  Fe241     1.0  0.64217  0.36090  0.96939  1.0000
  H   H1897     1.0  0.57323  0.29914  0.94298  1.0000
  H   H1898     1.0  0.56768  0.27086  0.92022  1.0000
  C   C1193     1.0  0.70984  0.30433  0.74965  1.0000
  H   H1899     1.0  0.73123  0.25621  0.83565  1.0000
  C   C1194     1.0  0.72242  0.29004  0.78024  1.0000
  H   H1900     1.0  0.67914  0.30250  0.92268  1.0000
  H   H1901     1.0  0.71954  0.30290  0.95143  1.0000
  H   H1902     1.0  0.72256  0.29597  0.74069  1.0000
  H   H1903     1.0  0.71044  0.28078  0.78506  1.0000
  H   H1904     1.0  0.71527  0.24590  0.66937  1.0000
  C   C1195     1.0  0.70303  0.26885  0.93210  1.0000
  H   H1905     1.0  0.83771  0.30877  0.82756  1.0000
  H   H1906     1.0  0.69633  0.25817  0.69928  1.0000
  S   S478      1.0  0.80644  0.27215  0.67576  1.0000
  C   C1196     1.0  0.56408  0.28702  0.88255  1.0000
  H   H1907     1.0  0.83247  0.28807  0.84636  1.0000
  H   H1908     1.0  0.58703  0.31768  0.96313  1.0000
  C   C1197     1.0  0.73696  0.25688  0.72091  1.0000
  C   C1198     1.0  0.88197  0.26386  0.68002  1.0000
  H   H1909     1.0  0.68853  0.26653  0.92903  1.0000
  H   H1910     1.0  0.81508  0.30056  0.79731  1.0000
  H   H1911     1.0  0.69020  0.31795  0.93382  1.0000
  H   H1912     1.0  0.73206  0.26205  0.69050  1.0000
  S   S479      1.0  0.62903  0.33362  0.97106  1.0000
  H   H1913     1.0  0.83961  0.25142  0.70624  1.0000
  H   H1914     1.0  0.81342  0.30207  0.83296  1.0000
  S   S480      1.0  0.86811  0.25662  0.76321  1.0000
  C   C1199     1.0  0.70531  0.25651  0.71086  1.0000
  H   H1915     1.0  0.56921  0.29649  0.89122  1.0000
  H   H1916     1.0  0.57087  0.29060  0.86675  1.0000
  H   H1917     1.0  0.83511  0.28452  0.78489  1.0000
  H   H1918     1.0  0.86146  0.26478  0.80351  1.0000
  H   H1919     1.0  0.82768  0.25594  0.81085  1.0000
  S   S481      1.0  0.57108  0.35486  0.97857  1.0000
  H   H1920     1.0  0.80736  0.27187  0.82298  1.0000
  H   H1921     1.0  0.59733  0.26278  0.87090  1.0000
  C   C1200     1.0  0.87372  0.24708  0.67963  1.0000
  S   S482      1.0  0.69986  0.24384  0.82175  1.0000
  H   H1922     1.0  0.70150  0.24775  0.76127  1.0000
  H   H1923     1.0  0.73704  0.25161  0.75254  1.0000
  H   H1924     1.0  0.91905  0.32960  0.66219  1.0000
  H   H1925     1.0  0.56501  0.24622  0.91805  1.0000
  H   H1926     1.0  0.99399  0.33450  0.68179  1.0000
  C   C1201     1.0  0.70807  0.25088  0.74583  1.0000
  C   C1202     1.0  0.72820  0.25304  0.74088  1.0000
  H   H1927     1.0  0.59560  0.24422  0.89265  1.0000
  Fe  Fe242     1.0  0.81748  0.24542  0.66099  1.0000
  S   S483      1.0  0.60054  0.68806  0.13742  1.0000
  S   S484      1.0  0.91502  0.72628  0.27944  1.0000
  H   H1928     1.0  0.94796  0.73911  0.19850  1.0000
  H   H1929     1.0  0.92233  0.72626  0.23736  1.0000
  Fe  Fe243     1.0  0.87898  0.69551  0.19945  1.0000
  S   S485      1.0  0.88761  0.69055  0.16758  1.0000
  S   S486      1.0  0.88771  0.67507  0.22661  1.0000
  H   H1930     1.0  0.79646  0.55549  0.29777  1.0000
  Fe  Fe244     1.0  0.85493  0.70044  0.16569  1.0000
  S   S487      1.0  0.83100  0.69084  0.15273  1.0000
  S   S488      1.0  0.84641  0.70284  0.19804  1.0000
  Fe  Fe245     1.0  0.80559  0.63238  0.29081  1.0000
  Fe  Fe246     1.0  0.89007  0.72310  0.16192  1.0000
  Fe  Fe247     1.0  0.52170  0.60262  0.11058  1.0000
  S   S489      1.0  0.51512  0.63265  0.09214  1.0000
  S   S490      1.0  0.54766  0.58292  0.09528  1.0000
  S   S491      1.0  0.59612  0.50119  0.13063  1.0000
  S   S492      1.0  0.51531  0.67284  0.12819  1.0000
  H   H1931     1.0  0.82658  0.69350  0.26546  1.0000
  S   S493      1.0  0.51784  0.61472  0.13932  1.0000
  H   H1932     1.0  0.84522  0.52399  0.30307  1.0000
  S   S494      1.0  0.63338  0.73438  0.18722  1.0000
  S   S495      1.0  0.64546  0.72193  0.27287  1.0000
  H   H1933     1.0  0.85205  0.64658  0.24102  1.0000
  S   S496      1.0  0.60548  0.70080  0.18836  1.0000
  Fe  Fe248     1.0  0.63787  0.70271  0.18414  1.0000
  S   S497      1.0  0.66026  0.68098  0.20002  1.0000
  Fe  Fe249     1.0  0.77941  0.60355  0.14673  1.0000
  S   S498      1.0  0.75507  0.62226  0.16390  1.0000
  S   S499      1.0  0.81173  0.60689  0.14517  1.0000
  Fe  Fe250     1.0  0.74998  0.58002  0.13613  1.0000
  S   S500      1.0  0.72345  0.59742  0.15241  1.0000
  S   S501      1.0  0.74906  0.55218  0.12366  1.0000
  Fe  Fe251     1.0  0.73856  0.62360  0.13878  1.0000
  S   S502      1.0  0.72235  0.65354  0.12865  1.0000
  Fe  Fe252     1.0  0.74242  0.59457  0.17603  1.0000
  S   S503      1.0  0.73036  0.58990  0.20857  1.0000
  S   S504      1.0  0.76377  0.60674  0.12027  1.0000
  S   S505      1.0  0.76810  0.57521  0.16095  1.0000
  H   H1934     1.0  0.60066  0.53952  0.14617  1.0000
  S   S506      1.0  0.80181  0.57861  0.25608  1.0000
  C   C1203     1.0  0.64901  0.54610  0.13596  1.0000
  H   H1935     1.0  0.83693  0.57827  0.32421  1.0000
  C   C1204     1.0  0.53188  0.65426  0.17969  1.0000
  H   H1936     1.0  0.83881  0.65026  0.19094  1.0000
  S   S507      1.0  0.67586  0.53288  0.09085  1.0000
  H   H1937     1.0  0.81649  0.61581  0.23321  1.0000
  C   C1205     1.0  0.72770  0.54698  0.11614  1.0000
  C   C1206     1.0  0.72606  0.52725  0.11582  1.0000
  C   C1207     1.0  0.70996  0.52261  0.10873  1.0000
  C   C1208     1.0  0.69564  0.53773  0.10132  1.0000
  C   C1209     1.0  0.69725  0.55746  0.10170  1.0000
  C   C1210     1.0  0.71301  0.56206  0.10933  1.0000
  H   H1938     1.0  0.73738  0.51548  0.12095  1.0000
  C   C1211     1.0  0.83013  0.66469  0.29847  1.0000
  H   H1939     1.0  0.68639  0.56927  0.09580  1.0000
  H   H1940     1.0  0.71422  0.57730  0.10925  1.0000
  C   C1212     1.0  0.75015  0.58655  0.22191  1.0000
  C   C1213     1.0  0.74650  0.58528  0.24262  1.0000
  C   C1214     1.0  0.76237  0.58309  0.25320  1.0000
  C   C1215     1.0  0.78190  0.58142  0.24310  1.0000
  C   C1216     1.0  0.78555  0.58253  0.22247  1.0000
  C   C1217     1.0  0.76967  0.58549  0.21186  1.0000
  H   H1941     1.0  0.73142  0.58611  0.25043  1.0000
  H   H1942     1.0  0.75951  0.58229  0.26918  1.0000
  H   H1943     1.0  0.80063  0.58152  0.21460  1.0000
  H   H1944     1.0  0.77261  0.58695  0.19590  1.0000
  C   C1218     1.0  0.68028  0.67432  0.18189  1.0000
  C   C1219     1.0  0.68538  0.68801  0.16510  1.0000
  C   C1220     1.0  0.69908  0.68184  0.14901  1.0000
  C   C1221     1.0  0.70783  0.66201  0.14984  1.0000
  C   C1222     1.0  0.70372  0.64863  0.16723  1.0000
  C   C1223     1.0  0.68992  0.65476  0.18324  1.0000
  H   H1945     1.0  0.67846  0.70331  0.16430  1.0000
  H   H1946     1.0  0.70244  0.69231  0.13573  1.0000
  H   H1947     1.0  0.71048  0.63333  0.16811  1.0000
  H   H1948     1.0  0.68596  0.64411  0.19617  1.0000
  S   S508      1.0  0.76959  0.59435  0.30653  1.0000
  H   H1949     1.0  0.51218  0.63890  0.21514  1.0000
  C   C1224     1.0  0.62302  0.71601  0.24723  1.0000
  H   H1950     1.0  0.60677  0.71132  0.22555  1.0000
  H   H1951     1.0  0.63166  0.70131  0.24806  1.0000
  C   C1225     1.0  0.55995  0.55974  0.10549  1.0000
  C   C1226     1.0  0.57487  0.54934  0.09298  1.0000
  C   C1227     1.0  0.58556  0.53112  0.10040  1.0000
  C   C1228     1.0  0.58161  0.52317  0.12049  1.0000
  C   C1229     1.0  0.56632  0.53334  0.13296  1.0000
  C   C1230     1.0  0.55554  0.55161  0.12552  1.0000
  H   H1952     1.0  0.57830  0.55545  0.07744  1.0000
  H   H1953     1.0  0.59690  0.52330  0.09052  1.0000
  H   H1954     1.0  0.56299  0.52719  0.14850  1.0000
  H   H1955     1.0  0.54397  0.55944  0.13527  1.0000
  C   C1231     1.0  0.53917  0.67695  0.13034  1.0000
  C   C1232     1.0  0.54107  0.69462  0.13628  1.0000
  C   C1233     1.0  0.55965  0.69802  0.13914  1.0000
  C   C1234     1.0  0.57660  0.68397  0.13551  1.0000
  C   C1235     1.0  0.57472  0.66637  0.12941  1.0000
  C   C1236     1.0  0.55606  0.66275  0.12706  1.0000
  H   H1956     1.0  0.52813  0.70581  0.13858  1.0000
  H   H1957     1.0  0.56096  0.71174  0.14354  1.0000
  H   H1958     1.0  0.55479  0.64912  0.12244  1.0000
  H   H1959     1.0  0.51540  0.56643  0.08660  1.0000
  C   C1237     1.0  0.82621  0.66702  0.15161  1.0000
  C   C1238     1.0  0.80676  0.66496  0.15031  1.0000
  C   C1239     1.0  0.80219  0.64663  0.14854  1.0000
  C   C1240     1.0  0.81706  0.63006  0.14794  1.0000
  C   C1241     1.0  0.83656  0.63205  0.14929  1.0000
  C   C1242     1.0  0.84115  0.65045  0.15110  1.0000
  H   H1960     1.0  0.79508  0.67762  0.15060  1.0000
  H   H1961     1.0  0.78720  0.64544  0.14725  1.0000
  H   H1962     1.0  0.84821  0.61936  0.14868  1.0000
  H   H1963     1.0  0.85627  0.65190  0.15171  1.0000
  C   C1243     1.0  0.90913  0.71066  0.26502  1.0000
  C   C1244     1.0  0.91428  0.71429  0.24431  1.0000
  C   C1245     1.0  0.90854  0.70279  0.23244  1.0000
  C   C1246     1.0  0.89784  0.68748  0.24123  1.0000
  C   C1247     1.0  0.89387  0.68304  0.26197  1.0000
  C   C1248     1.0  0.89908  0.69488  0.27389  1.0000
  C   C1249     1.0  0.80936  0.54683  0.30462  1.0000
  H   H1964     1.0  0.91254  0.70568  0.21648  1.0000
  H   H1965     1.0  0.88628  0.67077  0.26872  1.0000
  H   H1966     1.0  0.89541  0.69175  0.28988  1.0000
  H   H1967     1.0  0.81981  0.66903  0.21687  1.0000
  C   C1250     1.0  0.93290  0.73908  0.17400  1.0000
  S   S509      1.0  0.85828  0.73256  0.15696  1.0000
  H   H1968     1.0  0.54262  0.57045  0.05841  1.0000
  H   H1969     1.0  0.81582  0.65721  0.24229  1.0000
  S   S510      1.0  0.73159  0.64403  0.29835  1.0000
  S   S511      1.0  0.82911  0.65120  0.28003  1.0000
  H   H1970     1.0  0.80131  0.50090  0.30210  1.0000
  S   S512      1.0  0.63662  0.50400  0.08258  1.0000
  H   H1971     1.0  0.54137  0.64300  0.18894  1.0000
  C   C1251     1.0  0.84851  0.66794  0.30145  1.0000
  C   C1252     1.0  0.83602  0.63637  0.20109  1.0000
  H   H1972     1.0  0.84274  0.60783  0.23207  1.0000
  C   C1253     1.0  0.81269  0.67231  0.31013  1.0000
  H   H1973     1.0  0.81644  0.71812  0.11884  1.0000
  Fe  Fe253     1.0  0.50902  0.64425  0.12119  1.0000
  H   H1974     1.0  0.83799  0.73674  0.28344  1.0000
  S   S513      1.0  0.78403  0.63205  0.31923  1.0000
  Fe  Fe254     1.0  0.66477  0.50340  0.09472  1.0000
  N   N122      1.0  0.65786  0.65370  0.12671  1.0000
  C   C1254     1.0  0.64996  0.65581  0.14767  1.0000
  C   C1255     1.0  0.66490  0.67214  0.11616  1.0000
  C   C1256     1.0  0.64203  0.64983  0.11701  1.0000
  C   C1257     1.0  0.67456  0.63705  0.12600  1.0000
  H   H1975     1.0  0.64507  0.64202  0.15632  1.0000
  H   H1976     1.0  0.63695  0.66781  0.14884  1.0000
  H   H1977     1.0  0.66131  0.65954  0.15518  1.0000
  H   H1978     1.0  0.65269  0.68504  0.11672  1.0000
  H   H1979     1.0  0.67705  0.67540  0.12286  1.0000
  H   H1980     1.0  0.67081  0.67120  0.10025  1.0000
  H   H1981     1.0  0.64769  0.64751  0.10137  1.0000
  H   H1982     1.0  0.62958  0.66250  0.11657  1.0000
  H   H1983     1.0  0.63565  0.63658  0.12509  1.0000
  H   H1984     1.0  0.68624  0.63903  0.13415  1.0000
  H   H1985     1.0  0.68180  0.63576  0.11046  1.0000
  H   H1986     1.0  0.66962  0.62276  0.13299  1.0000
  H   H1987     1.0  0.75256  0.66531  0.31820  1.0000
  H   H1988     1.0  0.63572  0.55695  0.10138  1.0000
  C   C1258     1.0  0.72517  0.66692  0.30718  1.0000
  H   H1989     1.0  0.65795  0.55619  0.12517  1.0000
  H   H1990     1.0  0.62237  0.52109  0.14602  1.0000
  H   H1991     1.0  0.69631  0.67301  0.29797  1.0000
  H   H1992     1.0  0.70897  0.50739  0.10844  1.0000
  C   C1259     1.0  0.73820  0.67392  0.31640  1.0000
  C   C1260     1.0  0.51000  0.59822  0.05855  1.0000
  S   S514      1.0  0.78379  0.63035  0.27168  1.0000
  H   H1993     1.0  0.56730  0.72205  0.30494  1.0000
  Fe  Fe255     1.0  0.89697  0.72533  0.31008  1.0000
  C   C1261     1.0  0.81752  0.65478  0.22660  1.0000
  C   C1262     1.0  0.59821  0.73427  0.31474  1.0000
  C   C1263     1.0  0.52096  0.67540  0.20484  1.0000
  H   H1994     1.0  0.85320  0.69075  0.26137  1.0000
  H   H1995     1.0  0.52919  0.68715  0.19581  1.0000
  H   H1996     1.0  0.54134  0.66512  0.17107  1.0000
  C   C1264     1.0  0.50567  0.56556  0.07577  1.0000
  N   N123      1.0  0.80982  0.55491  0.10788  1.0000
  C   C1265     1.0  0.81483  0.57091  0.11641  1.0000
  C   C1266     1.0  0.80153  0.54036  0.12413  1.0000
  C   C1267     1.0  0.82793  0.54508  0.09647  1.0000
  C   C1268     1.0  0.79495  0.56334  0.09454  1.0000
  H   H1997     1.0  0.82088  0.58241  0.10470  1.0000
  H   H1998     1.0  0.82597  0.56525  0.12664  1.0000
  H   H1999     1.0  0.80150  0.57850  0.12522  1.0000
  H   H2000     1.0  0.79684  0.52844  0.11829  1.0000
  H   H2001     1.0  0.81243  0.53344  0.13433  1.0000
  H   H2002     1.0  0.78811  0.54743  0.13329  1.0000
  H   H2003     1.0  0.82462  0.53293  0.08984  1.0000
  H   H2004     1.0  0.83946  0.53859  0.10611  1.0000
  H   H2005     1.0  0.83455  0.55569  0.08412  1.0000
  H   H2006     1.0  0.79027  0.55165  0.08832  1.0000
  H   H2007     1.0  0.80072  0.57421  0.08195  1.0000
  H   H2008     1.0  0.78124  0.57114  0.10262  1.0000
  N   N124      1.0  0.71030  0.64458  0.24286  1.0000
  C   C1269     1.0  0.73055  0.63524  0.24652  1.0000
  C   C1270     1.0  0.69929  0.62938  0.24007  1.0000
  C   C1271     1.0  0.71155  0.65959  0.22475  1.0000
  C   C1272     1.0  0.69981  0.65412  0.26008  1.0000
  H   H2009     1.0  0.73918  0.64623  0.24904  1.0000
  H   H2010     1.0  0.73897  0.62799  0.23376  1.0000
  H   H2011     1.0  0.73012  0.62375  0.26004  1.0000
  H   H2012     1.0  0.70679  0.62199  0.22711  1.0000
  H   H2013     1.0  0.69821  0.61766  0.25334  1.0000
  H   H2014     1.0  0.68393  0.63593  0.23729  1.0000
  H   H2015     1.0  0.69648  0.66698  0.22165  1.0000
  H   H2016     1.0  0.71919  0.65282  0.21143  1.0000
  H   H2017     1.0  0.71986  0.67126  0.22622  1.0000
  H   H2018     1.0  0.68447  0.66141  0.25788  1.0000
  H   H2019     1.0  0.70784  0.66556  0.26270  1.0000
  H   H2020     1.0  0.69869  0.64321  0.27403  1.0000
  H   H2021     1.0  0.61746  0.53820  0.16340  1.0000
  H   H2022     1.0  0.67201  0.73298  0.19940  1.0000
  N   N125      1.0  0.83814  0.72080  0.25965  1.0000
  H   H2023     1.0  0.82713  0.71458  0.29090  1.0000
  C   C1273     1.0  0.60894  0.72169  0.23440  1.0000
  H   H2024     1.0  0.79312  0.71065  0.13005  1.0000
  N   N126      1.0  0.62791  0.55042  0.13321  1.0000
  H   H2025     1.0  0.85361  0.71304  0.28485  1.0000
  H   H2026     1.0  0.52739  0.64678  0.16871  1.0000
  H   H2027     1.0  0.63134  0.53223  0.11060  1.0000
  H   H2028     1.0  0.50682  0.54968  0.07462  1.0000
  H   H2029     1.0  0.61079  0.55209  0.10991  1.0000
  H   H2030     1.0  0.59752  0.71838  0.32039  1.0000
  C   C1274     1.0  0.61663  0.53676  0.14789  1.0000
  H   H2031     1.0  0.79550  0.72514  0.10568  1.0000
  C   C1275     1.0  0.81906  0.73221  0.25453  1.0000
  C   C1276     1.0  0.62635  0.54785  0.11290  1.0000
  H   H2032     1.0  0.62065  0.57355  0.15119  1.0000
  H   H2033     1.0  0.86936  0.72136  0.25033  1.0000
  C   C1277     1.0  0.61962  0.57100  0.13606  1.0000
  N   N127      1.0  0.51436  0.66401  0.19199  1.0000
  S   S515      1.0  0.88348  0.72709  0.19391  1.0000
  H   H2034     1.0  0.82223  0.63240  0.19792  1.0000
  H   H2035     1.0  0.80322  0.65114  0.22438  1.0000
  C   C1278     1.0  0.50318  0.64888  0.20447  1.0000
  C   C1279     1.0  0.84956  0.67910  0.31590  1.0000
  C   C1280     1.0  0.81955  0.52864  0.27707  1.0000
  H   H2036     1.0  0.52031  0.59989  0.06842  1.0000
  C   C1281     1.0  0.62641  0.72937  0.25841  1.0000
  Fe  Fe256     1.0  0.76261  0.62759  0.30035  1.0000
  H   H2037     1.0  0.66129  0.72910  0.22516  1.0000
  H   H2038     1.0  0.53392  0.55397  0.04618  1.0000
  C   C1282     1.0  0.71386  0.70341  0.32136  1.0000
  H   H2039     1.0  0.86432  0.55096  0.31813  1.0000
  H   H2040     1.0  0.58778  0.65550  0.12642  1.0000
  H   H2041     1.0  0.85626  0.65810  0.21561  1.0000
  C   C1283     1.0  0.56898  0.73776  0.29938  1.0000
  C   C1284     1.0  0.53221  0.56969  0.04818  1.0000
  C   C1285     1.0  0.83950  0.70012  0.25674  1.0000
  C   C1286     1.0  0.83054  0.62023  0.23519  1.0000
  H   H2042     1.0  0.79421  0.72495  0.15919  1.0000
  H   H2043     1.0  0.57814  0.73828  0.28431  1.0000
  H   H2044     1.0  0.60366  0.57462  0.13417  1.0000
  Fe  Fe257     1.0  0.79318  0.59906  0.32271  1.0000
  C   C1287     1.0  0.85287  0.64422  0.22541  1.0000
  Fe  Fe258     1.0  0.60805  0.70933  0.15519  1.0000
  H   H2045     1.0  0.83682  0.50102  0.30399  1.0000
  H   H2046     1.0  0.62768  0.58166  0.12501  1.0000
  S   S516      1.0  0.64103  0.70891  0.15103  1.0000
  N   N128      1.0  0.81473  0.52689  0.29895  1.0000
  H   H2047     1.0  0.76455  0.73586  0.14136  1.0000
  H   H2048     1.0  0.65580  0.53080  0.13343  1.0000
  H   H2049     1.0  0.84851  0.62454  0.19702  1.0000
  H   H2050     1.0  0.68767  0.72776  0.21824  1.0000
  H   H2051     1.0  0.86195  0.66154  0.29280  1.0000
  C   C1288     1.0  0.85476  0.72947  0.24668  1.0000
  C   C1289     1.0  0.67314  0.73586  0.21440  1.0000
  H   H2052     1.0  0.82425  0.51391  0.27222  1.0000
  H   H2053     1.0  0.92589  0.72652  0.18131  1.0000
  H   H2054     1.0  0.82932  0.62162  0.25114  1.0000
  H   H2055     1.0  0.60815  0.73509  0.30014  1.0000
  H   H2056     1.0  0.86583  0.63252  0.22234  1.0000
  H   H2057     1.0  0.65084  0.54758  0.15119  1.0000
  N   N129      1.0  0.83424  0.63887  0.22209  1.0000
  H   H2058     1.0  0.51371  0.60774  0.04405  1.0000
  Fe  Fe259     1.0  0.79271  0.59778  0.27953  1.0000
  C   C1290     1.0  0.79779  0.51603  0.30615  1.0000
  H   H2059     1.0  0.68665  0.70520  0.30990  1.0000
  Fe  Fe260     1.0  0.85184  0.73402  0.18952  1.0000
  H   H2060     1.0  0.83990  0.69899  0.24091  1.0000
  S   S517      1.0  0.81662  0.60009  0.29587  1.0000
  H   H2061     1.0  0.80620  0.72652  0.26457  1.0000
  C   C1291     1.0  0.83218  0.51612  0.30798  1.0000
  H   H2062     1.0  0.80651  0.53626  0.26980  1.0000
  C   C1292     1.0  0.70658  0.67833  0.30490  1.0000
  H   H2063     1.0  0.53105  0.66573  0.21469  1.0000
  C   C1293     1.0  0.80005  0.72305  0.12060  1.0000
  N   N130      1.0  0.51149  0.57735  0.05622  1.0000
  H   H2064     1.0  0.83176  0.53745  0.27109  1.0000
  H   H2065     1.0  0.86383  0.68158  0.31815  1.0000
  H   H2066     1.0  0.82904  0.51447  0.32451  1.0000
  H   H2067     1.0  0.81747  0.73136  0.23902  1.0000
  H   H2068     1.0  0.50948  0.68884  0.16891  1.0000
  H   H2069     1.0  0.82191  0.55534  0.29963  1.0000
  H   H2070     1.0  0.95383  0.73477  0.25064  1.0000
  C   C1294     1.0  0.83924  0.72134  0.28063  1.0000
  H   H2071     1.0  0.85460  0.72895  0.23079  1.0000
  Fe  Fe261     1.0  0.60111  0.73351  0.18859  1.0000
  H   H2072     1.0  0.80539  0.54615  0.32104  1.0000
  S   S518      1.0  0.86485  0.73925  0.31353  1.0000
  C   C1295     1.0  0.73250  0.69206  0.32360  1.0000
  C   C1296     1.0  0.70102  0.69658  0.31179  1.0000
  H   H2073     1.0  0.78435  0.52384  0.29967  1.0000
  H   H2074     1.0  0.53722  0.57839  0.03355  1.0000
  C   C1297     1.0  0.50140  0.67755  0.17893  1.0000
  H   H2075     1.0  0.60548  0.73975  0.32519  1.0000
  S   S519      1.0  0.91419  0.73876  0.14224  1.0000
  H   H2076     1.0  0.79840  0.67013  0.30760  1.0000
  S   S520      1.0  0.64965  0.73016  0.32490  1.0000
  Fe  Fe262     1.0  0.64990  0.74213  0.29259  1.0000
  H   H2077     1.0  0.81690  0.73395  0.14840  1.0000
  C   C1298     1.0  0.59810  0.74077  0.23263  1.0000
  C   C1299     1.0  0.80046  0.73762  0.14946  1.0000
  H   H2078     1.0  0.50810  0.68276  0.21449  1.0000
  S   S521      1.0  0.60137  0.74240  0.15550  1.0000
  C   C1300     1.0  0.81374  0.68319  0.32485  1.0000
  N   N131      1.0  0.79429  0.74131  0.12961  1.0000
  Fe  Fe263     1.0  0.63436  0.74091  0.15444  1.0000
  H   H2079     1.0  0.79381  0.51448  0.32263  1.0000
  H   H2080     1.0  0.97802  0.74026  0.25108  1.0000
  H   H2081     1.0  0.50211  0.58462  0.02747  1.0000
  Fe  Fe264     1.0  0.67801  0.74237  0.32088  1.0000
  C   C1301     1.0  0.83851  0.52854  0.36006  1.0000
  H   H2082     1.0  0.92186  0.60206  0.36579  1.0000
  Fe  Fe265     1.0  0.89783  0.71719  0.35447  1.0000
  C   C1302     1.0  0.85275  0.54900  0.33082  1.0000
  S   S522      1.0  0.91369  0.70536  0.38085  1.0000
  H   H2083     1.0  0.99260  0.50837  0.36130  1.0000
  S   S523      1.0  0.83337  0.70035  0.34581  1.0000
  H   H2084     1.0  0.84679  0.61875  0.34150  1.0000
  S   S524      1.0  0.86586  0.73057  0.36162  1.0000
  H   H2085     1.0  0.81039  0.54173  0.37519  1.0000
  H   H2086     1.0  0.79351  0.63390  0.38156  1.0000
  H   H2087     1.0  0.95266  0.60369  0.40349  1.0000
  H   H2088     1.0  0.92259  0.63819  0.35690  1.0000
  H   H2089     1.0  0.74251  0.69726  0.33096  1.0000
  H   H2090     1.0  0.93158  0.51681  0.38908  1.0000
  C   C1303     1.0  0.94456  0.61834  0.39767  1.0000
  S   S525      1.0  0.99673  0.65126  0.36080  1.0000
  C   C1304     1.0  0.80024  0.63125  0.36623  1.0000
  H   H2091     1.0  0.83883  0.51453  0.36990  1.0000
  H   H2092     1.0  0.93649  0.64962  0.36952  1.0000
  H   H2093     1.0  0.96542  0.59940  0.36790  1.0000
  S   S526      1.0  0.99608  0.60585  0.40832  1.0000
  C   C1305     1.0  0.92638  0.60270  0.38021  1.0000
  H   H2094     1.0  0.82137  0.60955  0.39382  1.0000
  H   H2095     1.0  0.88008  0.73864  0.39562  1.0000
  C   C1306     1.0  0.82740  0.60770  0.37812  1.0000
  S   S527      1.0  0.89246  0.69868  0.33334  1.0000
  S   S528      1.0  0.79980  0.57979  0.35155  1.0000
  H   H2096     1.0  0.84694  0.63914  0.36703  1.0000
  S   S529      1.0  0.97097  0.56525  0.39771  1.0000
  C   C1307     1.0  0.82127  0.56165  0.34952  1.0000
  C   C1308     1.0  0.85348  0.53094  0.34363  1.0000
  H   H2097     1.0  0.56438  0.72908  0.33947  1.0000
  N   N132      1.0  0.82210  0.62599  0.36424  1.0000
  C   C1309     1.0  0.94603  0.52141  0.38553  1.0000
  C   C1310     1.0  0.92737  0.63772  0.37147  1.0000
  H   H2098     1.0  0.82430  0.61058  0.33959  1.0000
  H   H2099     1.0  0.82656  0.63617  0.33277  1.0000
  H   H2100     1.0  0.79342  0.61924  0.36290  1.0000
  H   H2101     1.0  0.91389  0.64158  0.38239  1.0000
  H   H2102     1.0  0.93934  0.67928  0.40616  1.0000
  C   C1311     1.0  0.83043  0.64226  0.36895  1.0000
  H   H2103     1.0  0.91272  0.60519  0.39130  1.0000
  N   N133      1.0  0.93875  0.61825  0.37821  1.0000
  H   H2104     1.0  0.79573  0.64491  0.35583  1.0000
  H   H2105     1.0  0.96678  0.62531  0.36202  1.0000
  C   C1312     1.0  0.96791  0.54423  0.38826  1.0000
  C   C1313     1.0  0.98350  0.53351  0.37681  1.0000
  C   C1314     1.0  0.98039  0.51670  0.36993  1.0000
  C   C1315     1.0  0.96167  0.51053  0.37430  1.0000
  S   S530      1.0  0.87088  0.51087  0.33613  1.0000
  C   C1316     1.0  0.94917  0.53812  0.39252  1.0000
  C   C1317     1.0  0.95676  0.61420  0.36350  1.0000
  H   H2106     1.0  0.93142  0.62200  0.40902  1.0000
  H   H2107     1.0  0.82485  0.64491  0.38451  1.0000
  H   H2108     1.0  0.82625  0.65639  0.35910  1.0000
  C   C1318     1.0  0.82237  0.54391  0.36297  1.0000
  H   H2109     1.0  0.97103  0.67711  0.33622  1.0000
  H   H2110     1.0  0.93705  0.54622  0.40147  1.0000
  C   C1319     1.0  0.83694  0.56439  0.33397  1.0000
  H   H2111     1.0  0.95304  0.61446  0.34852  1.0000
  H   H2112     1.0  0.95460  0.62929  0.39654  1.0000
  H   H2113     1.0  0.93465  0.58782  0.38527  1.0000
  C   C1320     1.0  0.83032  0.62273  0.34363  1.0000
  C   C1321     1.0  0.93667  0.69015  0.37539  1.0000
  C   C1322     1.0  0.94559  0.68938  0.35569  1.0000
  C   C1323     1.0  0.96403  0.67737  0.35150  1.0000
  C   C1324     1.0  0.97346  0.66573  0.36693  1.0000
  C   C1325     1.0  0.96447  0.66635  0.38666  1.0000
  C   C1326     1.0  0.94614  0.67862  0.39089  1.0000
  H   H2114     1.0  0.93845  0.69827  0.34366  1.0000
  Fe  Fe266     1.0  0.86094  0.71424  0.33867  1.0000
  H   H2115     1.0  0.97189  0.65775  0.39865  1.0000
  H   H2116     1.0  0.82128  0.59515  0.37498  1.0000
  H   H2117     1.0  0.80027  0.68917  0.33389  1.0000
  S   S531      1.0  0.70670  0.72607  0.33055  1.0000
  H   H2118     1.0  0.84378  0.60320  0.37693  1.0000
  H   H2119     1.0  0.99799  0.53801  0.37346  1.0000
  C   C1327     1.0  0.83217  0.68672  0.32758  1.0000
  Fe  Fe267     1.0  0.99857  0.58007  0.39197  1.0000
  S   S532      1.0  0.90513  0.74256  0.33083  1.0000
  Fe  Fe268     1.0  0.70749  0.83498  0.17231  1.0000
  S   S533      1.0  0.72829  0.80805  0.18279  1.0000
  S   S534      1.0  0.67560  0.83090  0.17351  1.0000
  Fe  Fe269     1.0  0.73807  0.86282  0.16972  1.0000
  S   S535      1.0  0.76082  0.83764  0.17977  1.0000
  S   S536      1.0  0.74428  0.89426  0.16625  1.0000
  Fe  Fe270     1.0  0.75093  0.82147  0.15938  1.0000
  S   S537      1.0  0.77584  0.80324  0.14213  1.0000
  Fe  Fe271     1.0  0.73615  0.82692  0.20201  1.0000
  S   S538      1.0  0.74192  0.81588  0.23316  1.0000
  S   S539      1.0  0.72968  0.84743  0.14720  1.0000
  S   S540      1.0  0.71362  0.85307  0.19358  1.0000
  S   S541      1.0  0.76006  0.88449  0.27141  1.0000
  Fe  Fe272     1.0  0.84217  0.94001  0.16958  1.0000
  S   S542      1.0  0.87294  0.94267  0.15301  1.0000
  S   S543      1.0  0.83081  0.91185  0.16782  1.0000
  H   H2120     1.0  0.70183  0.79026  0.30523  1.0000
  H   H2121     1.0  0.78902  0.77200  0.20839  1.0000
  Fe  Fe273     1.0  0.74959  0.87651  0.30425  1.0000
  Fe  Fe274     1.0  0.88085  0.94411  0.18248  1.0000
  S   S544      1.0  0.90591  0.92384  0.19650  1.0000
  S   S545      1.0  0.85056  0.94019  0.19925  1.0000
  H   H2122     1.0  0.72672  0.78259  0.29366  1.0000
  H   H2123     1.0  0.74045  0.85780  0.21886  1.0000
  Fe  Fe275     1.0  0.98850  0.79555  0.17603  1.0000
  S   S546      1.0  0.87380  0.97730  0.17894  1.0000
  C   C1328     1.0  0.93963  0.76370  0.14518  1.0000
  S   S547      1.0  0.97135  0.76995  0.18709  1.0000
  C   C1329     1.0  0.78530  0.90994  0.21923  1.0000
  S   S548      1.0  0.97306  0.86734  0.14862  1.0000
  S   S549      1.0  0.98250  0.82143  0.19244  1.0000
  H   H2124     1.0  0.77218  0.91472  0.21133  1.0000
  H   H2125     1.0  0.79129  0.84786  0.22920  1.0000
  S   S550      1.0  0.82312  0.99120  0.21545  1.0000
  H   H2126     1.0  0.66883  0.86164  0.19993  1.0000
  H   H2127     1.0  0.82109  0.82503  0.23869  1.0000
  H   H2128     1.0  0.79008  0.81220  0.23789  1.0000
  C   C1330     1.0  0.80844  0.91962  0.23622  1.0000
  H   H2129     1.0  0.85406  0.74518  0.24817  1.0000
  H   H2130     1.0  0.61813  0.75890  0.26546  1.0000
  H   H2131     1.0  0.64902  0.78326  0.21118  1.0000
  H   H2132     1.0  0.68520  0.85750  0.22998  1.0000
  C   C1331     1.0  0.68660  0.76573  0.19980  1.0000
  H   H2133     1.0  0.96818  0.74517  0.22809  1.0000
  H   H2134     1.0  0.83985  0.77217  0.16234  1.0000
  Fe  Fe276     1.0  0.99105  0.83913  0.16248  1.0000
  H   H2135     1.0  0.64942  0.76572  0.19529  1.0000
  H   H2136     1.0  0.78152  0.89814  0.23183  1.0000
  Fe  Fe277     1.0  0.66167  0.78060  0.29653  1.0000
  C   C1332     1.0  0.95525  0.76211  0.17423  1.0000
  C   C1333     1.0  0.95219  0.77098  0.15496  1.0000
  H   H2137     1.0  0.59065  0.83076  0.31432  1.0000
  H   H2138     1.0  0.78319  0.81137  0.21444  1.0000
  H   H2139     1.0  0.66172  0.75429  0.24646  1.0000
  H   H2140     1.0  0.95942  0.78341  0.14763  1.0000
  H   H2141     1.0  0.60663  0.88066  0.32300  1.0000
  C   C1334     1.0  0.92547  0.90904  0.18310  1.0000
  C   C1335     1.0  0.93023  0.91323  0.16242  1.0000
  C   C1336     1.0  0.94522  0.90057  0.15213  1.0000
  C   C1337     1.0  0.95545  0.88354  0.16239  1.0000
  C   C1338     1.0  0.95078  0.87942  0.18309  1.0000
  C   C1339     1.0  0.93593  0.89220  0.19339  1.0000
  H   H2142     1.0  0.92245  0.92630  0.15438  1.0000
  H   H2143     1.0  0.94886  0.90393  0.13613  1.0000
  H   H2144     1.0  0.95860  0.86640  0.19115  1.0000
  H   H2145     1.0  0.93238  0.88891  0.20941  1.0000
  C   C1340     1.0  0.71575  0.77974  0.30736  1.0000
  C   C1341     1.0  0.67078  0.81086  0.16382  1.0000
  C   C1342     1.0  0.65160  0.80584  0.16822  1.0000
  C   C1343     1.0  0.64724  0.79009  0.16058  1.0000
  C   C1344     1.0  0.66197  0.77938  0.14826  1.0000
  C   C1345     1.0  0.68115  0.78441  0.14388  1.0000
  C   C1346     1.0  0.68563  0.79992  0.15183  1.0000
  H   H2146     1.0  0.63998  0.81434  0.17732  1.0000
  H   H2147     1.0  0.63233  0.78653  0.16377  1.0000
  H   H2148     1.0  0.69255  0.77635  0.13416  1.0000
  H   H2149     1.0  0.70042  0.80375  0.14821  1.0000
  C   C1347     1.0  0.79142  0.79119  0.15931  1.0000
  C   C1348     1.0  0.78334  0.78641  0.17929  1.0000
  C   C1349     1.0  0.79548  0.77609  0.19306  1.0000
  C   C1350     1.0  0.81579  0.77068  0.18691  1.0000
  C   C1351     1.0  0.82403  0.77580  0.16701  1.0000
  C   C1352     1.0  0.81183  0.78606  0.15319  1.0000
  H   H2150     1.0  0.76763  0.79021  0.18414  1.0000
  H   H2151     1.0  0.99210  0.78777  0.11586  1.0000
  C   C1353     1.0  0.61523  0.74839  0.25718  1.0000
  H   H2152     1.0  0.81822  0.79014  0.13783  1.0000
  C   C1354     1.0  0.76840  0.89916  0.16657  1.0000
  C   C1355     1.0  0.77132  0.91869  0.16593  1.0000
  C   C1356     1.0  0.79036  0.92301  0.16605  1.0000
  C   C1357     1.0  0.80661  0.90775  0.16690  1.0000
  C   C1358     1.0  0.80368  0.88826  0.16757  1.0000
  C   C1359     1.0  0.78473  0.88399  0.16737  1.0000
  H   H2153     1.0  0.75881  0.93055  0.16507  1.0000
  H   H2154     1.0  0.79246  0.93812  0.16519  1.0000
  H   H2155     1.0  0.81620  0.87641  0.16799  1.0000
  H   H2156     1.0  0.78285  0.86901  0.16738  1.0000
  C   C1360     1.0  0.74788  0.83494  0.24312  1.0000
  C   C1361     1.0  0.75526  0.83061  0.26115  1.0000
  C   C1362     1.0  0.76003  0.84573  0.26928  1.0000
  C   C1363     1.0  0.75677  0.86531  0.25979  1.0000
  C   C1364     1.0  0.75014  0.86955  0.24135  1.0000
  C   C1365     1.0  0.74578  0.85435  0.23298  1.0000
  H   H2157     1.0  0.75729  0.81557  0.26885  1.0000
  H   H2158     1.0  0.76619  0.84223  0.28298  1.0000
  H   H2159     1.0  0.74770  0.88465  0.23385  1.0000
  H   H2160     1.0  0.70033  0.85876  0.29983  1.0000
  N   N134      1.0  0.89066  0.87998  0.15085  1.0000
  C   C1366     1.0  0.90890  0.86514  0.15163  1.0000
  C   C1367     1.0  0.88464  0.88732  0.17011  1.0000
  C   C1368     1.0  0.87448  0.87092  0.14685  1.0000
  C   C1369     1.0  0.89456  0.89662  0.13481  1.0000
  H   H2161     1.0  0.91403  0.85933  0.13732  1.0000
  H   H2162     1.0  0.90659  0.85239  0.16361  1.0000
  H   H2163     1.0  0.92134  0.87157  0.15466  1.0000
  H   H2164     1.0  0.87126  0.89891  0.16995  1.0000
  H   H2165     1.0  0.88130  0.87528  0.18256  1.0000
  H   H2166     1.0  0.89651  0.89406  0.17374  1.0000
  H   H2167     1.0  0.86047  0.88180  0.14644  1.0000
  H   H2168     1.0  0.87122  0.85822  0.15855  1.0000
  H   H2169     1.0  0.87838  0.86548  0.13228  1.0000
  H   H2170     1.0  0.88088  0.90773  0.13330  1.0000
  H   H2171     1.0  0.89990  0.89153  0.12017  1.0000
  H   H2172     1.0  0.90608  0.90439  0.13773  1.0000
  C   C1370     1.0  0.67341  0.76026  0.23486  1.0000
  H   H2173     1.0  0.71242  0.76457  0.30840  1.0000
  H   H2174     1.0  0.70179  0.75880  0.20273  1.0000
  C   C1371     1.0  0.68702  0.83699  0.29095  1.0000
  H   H2175     1.0  0.69679  0.83698  0.27682  1.0000
  H   H2176     1.0  0.92591  0.76182  0.24519  1.0000
  C   C1372     1.0  0.65133  0.76719  0.21047  1.0000
  H   H2177     1.0  0.76729  0.75036  0.11697  1.0000
  H   H2178     1.0  0.55398  0.74627  0.29751  1.0000
  H   H2179     1.0  0.82131  0.91317  0.22592  1.0000
  H   H2180     1.0  0.82483  0.80854  0.19012  1.0000
  C   C1373     1.0  0.92981  0.74781  0.15474  1.0000
  H   H2181     1.0  0.70246  0.96202  0.32222  1.0000
  C   C1374     1.0  0.79520  0.94216  0.20917  1.0000
  H   H2182     1.0  0.59276  0.76895  0.24275  1.0000
  S   S551      1.0  0.83159  0.97295  0.16453  1.0000
  S   S552      1.0  0.63219  0.77161  0.29734  1.0000
  H   H2183     1.0  0.63090  0.85749  0.24546  1.0000
  C   C1375     1.0  0.96937  0.77953  0.23995  1.0000
  H   H2184     1.0  0.76031  0.94003  0.23359  1.0000
  S   S553      1.0  0.58331  0.74840  0.21380  1.0000
  H   H2185     1.0  0.82064  0.75344  0.11555  1.0000
  H   H2186     1.0  0.80756  0.93635  0.19801  1.0000
  H   H2187     1.0  0.97376  0.77997  0.22363  1.0000
  C   C1376     1.0  0.94993  0.76553  0.27005  1.0000
  H   H2188     1.0  0.61266  0.79926  0.32259  1.0000
  H   H2189     1.0  0.73964  0.80512  0.30993  1.0000
  H   H2190     1.0  0.64901  0.81504  0.31883  1.0000
  N   N135      1.0  0.79073  0.92666  0.22627  1.0000
  C   C1377     1.0  0.82583  0.82339  0.22273  1.0000
  H   H2191     1.0  0.83509  0.80854  0.22218  1.0000
  H   H2192     1.0  0.93729  0.77052  0.13028  1.0000
  H   H2193     1.0  0.64639  0.87391  0.21283  1.0000
  C   C1378     1.0  0.79613  0.81047  0.22217  1.0000
  H   H2194     1.0  0.83550  0.83466  0.21582  1.0000
  H   H2195     1.0  0.80477  0.79532  0.22215  1.0000
  C   C1379     1.0  0.79666  0.84553  0.21351  1.0000
  N   N136      1.0  0.80850  0.82567  0.21243  1.0000
  H   H2196     1.0  0.64603  0.85261  0.20179  1.0000
  C   C1380     1.0  0.65477  0.85919  0.21008  1.0000
  H   H2197     1.0  0.68432  0.82842  0.21465  1.0000
  H   H2198     1.0  0.63923  0.76066  0.22097  1.0000
  H   H2199     1.0  0.79772  0.90320  0.20871  1.0000
  H   H2200     1.0  0.78329  0.84768  0.20617  1.0000
  H   H2201     1.0  0.80540  0.85742  0.20608  1.0000
  C   C1381     1.0  0.68929  0.84908  0.30414  1.0000
  C   C1382     1.0  0.66987  0.82682  0.22435  1.0000
  C   C1383     1.0  0.67058  0.85535  0.23912  1.0000
  H   H2202     1.0  0.66142  0.81953  0.21645  1.0000
  H   H2203     1.0  0.66273  0.87000  0.24267  1.0000
  H   H2204     1.0  0.77037  0.92355  0.25371  1.0000
  C   C1384     1.0  0.67261  0.82458  0.29627  1.0000
  C   C1385     1.0  0.77400  0.93486  0.24052  1.0000
  N   N137      1.0  0.65873  0.84616  0.22881  1.0000
  C   C1386     1.0  0.81542  0.82320  0.19139  1.0000
  Fe  Fe278     1.0  0.86315  0.97564  0.15056  1.0000
  S   S554      1.0  0.83072  0.75750  0.20417  1.0000
  H   H2205     1.0  0.67323  0.81667  0.23812  1.0000
  H   H2206     1.0  0.67370  0.84591  0.25332  1.0000
  H   H2207     1.0  0.82427  0.83479  0.18333  1.0000
  H   H2208     1.0  0.80274  0.82406  0.18333  1.0000
  H   H2209     1.0  0.79973  0.95489  0.21388  1.0000
  C   C1387     1.0  0.60090  0.75406  0.24436  1.0000
  H   H2210     1.0  0.64216  0.83345  0.25599  1.0000
  C   C1388     1.0  0.63968  0.84323  0.24172  1.0000
  H   H2211     1.0  0.80549  0.90806  0.24935  1.0000
  S   S555      1.0  0.67039  0.80907  0.27985  1.0000
  H   H2212     1.0  0.77755  0.94759  0.24603  1.0000
  H   H2213     1.0  0.96327  0.76067  0.27757  1.0000
  H   H2214     1.0  0.68804  0.75262  0.23892  1.0000
  H   H2215     1.0  0.81788  0.74811  0.25561  1.0000
  H   H2216     1.0  0.78211  0.94797  0.20142  1.0000
  H   H2217     1.0  0.94294  0.78044  0.27358  1.0000
  C   C1389     1.0  0.93696  0.77198  0.23905  1.0000
  C   C1390     1.0  0.80418  0.75716  0.11674  1.0000
  S   S556      1.0  0.65672  0.76024  0.13750  1.0000
  H   H2218     1.0  0.58731  0.77311  0.31489  1.0000
  H   H2219     1.0  0.63040  0.83628  0.23439  1.0000
  N   N138      1.0  0.57826  0.74583  0.31302  1.0000
  C   C1391     1.0  0.58000  0.76672  0.30513  1.0000
  H   H2220     1.0  0.56518  0.77598  0.30410  1.0000
  H   H2221     1.0  0.81312  0.93192  0.24150  1.0000
  H   H2222     1.0  0.68527  0.78195  0.19942  1.0000
  Fe  Fe279     1.0  0.84280  0.97317  0.19306  1.0000
  H   H2223     1.0  0.67227  0.77620  0.23575  1.0000
  C   C1392     1.0  0.94557  0.74617  0.18367  1.0000
  H   H2224     1.0  0.68533  0.76349  0.18459  1.0000
  H   H2225     1.0  0.76776  0.76130  0.13831  1.0000
  H   H2226     1.0  0.79953  0.77137  0.12265  1.0000
  H   H2227     1.0  0.80037  0.75988  0.10145  1.0000
  C   C1393     1.0  0.77250  0.74744  0.13166  1.0000
  H   H2228     1.0  0.98326  0.77526  0.24664  1.0000
  H   H2229     1.0  0.58895  0.76831  0.29002  1.0000
  H   H2230     1.0  0.96292  0.79489  0.24246  1.0000
  N   N139      1.0  0.72328  0.78202  0.32528  1.0000
  N   N140      1.0  0.95513  0.76567  0.24835  1.0000
  H   H2231     1.0  0.94036  0.77209  0.22266  1.0000
  S   S557      1.0  0.99469  0.81342  0.14584  1.0000
  N   N141      1.0  0.67114  0.75726  0.21489  1.0000
  H   H2232     1.0  0.79550  0.75071  0.15717  1.0000
  C   C1394     1.0  0.66034  0.82443  0.31474  1.0000
  H   H2233     1.0  0.92969  0.78712  0.24159  1.0000
  S   S558      1.0  0.67930  0.75225  0.28819  1.0000
  S   S559      1.0  0.72390  0.89509  0.32046  1.0000
  H   H2234     1.0  0.93920  0.75524  0.27690  1.0000
  H   H2235     1.0  0.75321  0.76927  0.31473  1.0000
  S   S560      1.0  0.73699  0.84858  0.31562  1.0000
  C   C1395     1.0  0.96422  0.74557  0.24437  1.0000
  C   C1396     1.0  0.67728  0.84870  0.32274  1.0000
  H   H2236     1.0  0.71461  0.81354  0.32088  1.0000
  C   C1397     1.0  0.72797  0.80216  0.32299  1.0000
  H   H2237     1.0  0.98230  0.75451  0.12424  1.0000
  H   H2238     1.0  0.99790  0.74780  0.10200  1.0000
  H   H2239     1.0  0.99637  0.76775  0.14861  1.0000
  C   C1398     1.0  0.99773  0.74838  0.11797  1.0000
  N   N142      1.0  0.59132  0.87602  0.35303  1.0000
  H   H2240     1.0  0.85517  0.76566  0.38135  1.0000
  C   C1399     1.0  0.88330  0.74923  0.40432  1.0000
  S   S561      1.0  0.72996  0.86078  0.35975  1.0000
  S   S562      1.0  0.68110  0.86277  0.33979  1.0000
  Fe  Fe280     1.0  0.74238  0.88828  0.34496  1.0000
  S   S563      1.0  0.74166  0.91102  0.36447  1.0000
  Fe  Fe281     1.0  0.75494  0.84487  0.34012  1.0000
  S   S564      1.0  0.76836  0.81300  0.34912  1.0000
  H   H2241     1.0  0.89008  0.76139  0.36499  1.0000
  C   C1400     1.0  0.57313  0.88966  0.34839  1.0000
  H   H2242     1.0  0.71866  0.93756  0.39014  1.0000
  H   H2243     1.0  0.57568  0.85132  0.36329  1.0000
  S   S565      1.0  0.64972  0.96891  0.40307  1.0000
  Fe  Fe282     1.0  0.87249  0.75441  0.33617  1.0000
  Fe  Fe283     1.0  0.61858  0.96783  0.39880  1.0000
  S   S566      1.0  0.60632  0.93885  0.40502  1.0000
  H   H2244     1.0  0.56394  0.89461  0.36201  1.0000
  H   H2245     1.0  0.59275  0.86059  0.32862  1.0000
  H   H2246     1.0  0.70388  0.76379  0.34504  1.0000
  H   H2247     1.0  0.84862  0.77458  0.40476  1.0000
  H   H2248     1.0  0.69247  0.96665  0.38439  1.0000
  H   H2249     1.0  0.73355  0.80449  0.33632  1.0000
  S   S567      1.0  0.53068  0.87098  0.38292  1.0000
  S   S568      1.0  0.53280  0.92891  0.36675  1.0000
  H   H2250     1.0  0.71330  0.78023  0.35674  1.0000
  N   N143      1.0  0.88005  0.76978  0.39380  1.0000
  H   H2251     1.0  0.60842  0.89945  0.34956  1.0000
  C   C1401     1.0  0.89328  0.77124  0.37444  1.0000
  H   H2252     1.0  0.87485  0.78255  0.42060  1.0000
  Fe  Fe284     1.0  0.52786  0.86202  0.35416  1.0000
  C   C1402     1.0  0.80254  0.78593  0.34747  1.0000
  C   C1403     1.0  0.56255  0.81209  0.35677  1.0000
  C   C1404     1.0  0.57476  0.79377  0.36099  1.0000
  S   S569      1.0  0.86194  0.78666  0.33814  1.0000
  S   S570      1.0  0.60720  0.76546  0.35282  1.0000
  H   H2253     1.0  0.88231  0.79886  0.39827  1.0000
  H   H2254     1.0  0.54864  0.81575  0.36637  1.0000
  H   H2255     1.0  0.57020  0.78328  0.37385  1.0000
  H   H2256     1.0  0.80105  0.83570  0.33954  1.0000
  C   C1405     1.0  0.70797  0.77882  0.34295  1.0000
  H   H2257     1.0  0.57794  0.86442  0.38241  1.0000
  C   C1406     1.0  0.82787  0.81409  0.33875  1.0000
  C   C1407     1.0  0.80716  0.82016  0.34100  1.0000
  C   C1408     1.0  0.58679  0.93529  0.39347  1.0000
  C   C1409     1.0  0.57574  0.92005  0.40206  1.0000
  C   C1410     1.0  0.55951  0.91745  0.39374  1.0000
  C   C1411     1.0  0.55423  0.93009  0.37670  1.0000
  C   C1412     1.0  0.56577  0.94480  0.36770  1.0000
  C   C1413     1.0  0.58197  0.94740  0.37600  1.0000
  H   H2258     1.0  0.57941  0.91053  0.41553  1.0000
  H   H2259     1.0  0.55071  0.90609  0.40086  1.0000
  H   H2260     1.0  0.56200  0.95436  0.35428  1.0000
  H   H2261     1.0  0.59063  0.95888  0.36898  1.0000
  C   C1414     1.0  0.58623  0.82055  0.32748  1.0000
  Fe  Fe285     1.0  0.51838  0.90151  0.36916  1.0000
  H   H2262     1.0  0.90921  0.76689  0.37621  1.0000
  C   C1415     1.0  0.82323  0.77987  0.34491  1.0000
  H   H2263     1.0  0.64435  0.90745  0.40116  1.0000
  S   S571      1.0  0.51691  0.89278  0.33990  1.0000
  C   C1416     1.0  0.58583  0.85930  0.36831  1.0000
  C   C1417     1.0  0.65228  0.91122  0.38579  1.0000
  H   H2264     1.0  0.66968  0.87472  0.37874  1.0000
  C   C1418     1.0  0.79443  0.80607  0.34549  1.0000
  H   H2265     1.0  0.65334  0.83618  0.34235  1.0000
  H   H2266     1.0  0.73425  0.97840  0.34662  1.0000
  S   S572      1.0  0.76923  0.87188  0.32764  1.0000
  C   C1419     1.0  0.88458  0.78325  0.40587  1.0000
  C   C1420     1.0  0.83595  0.79395  0.34065  1.0000
  H   H2267     1.0  0.74767  0.76901  0.34109  1.0000
  H   H2268     1.0  0.54842  0.96417  0.40160  1.0000
  H   H2269     1.0  0.57256  0.75075  0.34344  1.0000
  H   H2270     1.0  0.82930  0.76430  0.34645  1.0000
  C   C1421     1.0  0.72475  0.93280  0.35963  1.0000
  H   H2271     1.0  0.59911  0.84834  0.37175  1.0000
  S   S573      1.0  0.67703  0.98658  0.34858  1.0000
  C   C1422     1.0  0.69537  0.96597  0.35301  1.0000
  C   C1423     1.0  0.70011  0.95918  0.37211  1.0000
  C   C1424     1.0  0.71503  0.94282  0.37533  1.0000
  H   H2272     1.0  0.64494  0.90555  0.37553  1.0000
  C   C1425     1.0  0.56818  0.82535  0.33979  1.0000
  H   H2273     1.0  0.66897  0.87638  0.40446  1.0000
  H   H2274     1.0  0.79278  0.77495  0.35101  1.0000
  H   H2275     1.0  0.59630  0.89255  0.37440  1.0000
  H   H2276     1.0  0.83764  0.82505  0.33547  1.0000
  H   H2277     1.0  0.67614  0.90639  0.41376  1.0000
  C   C1426     1.0  0.85912  0.77543  0.39052  1.0000
  C   C1427     1.0  0.60411  0.88665  0.36065  1.0000
  H   H2278     1.0  0.89903  0.74437  0.40675  1.0000
  H   H2279     1.0  0.89119  0.78650  0.36595  1.0000
  H   H2280     1.0  0.69976  0.90279  0.36186  1.0000
  S   S574      1.0  0.55334  0.84812  0.33321  1.0000
  C   C1428     1.0  0.59275  0.78895  0.34850  1.0000
  C   C1429     1.0  0.72035  0.93993  0.34044  1.0000
  C   C1430     1.0  0.66261  0.83656  0.32794  1.0000
  H   H2281     1.0  0.75622  0.98784  0.33362  1.0000
  C   C1431     1.0  0.68274  0.91090  0.39803  1.0000
  H   H2282     1.0  0.64985  0.92765  0.38212  1.0000
  H   H2283     1.0  0.61801  0.87679  0.36424  1.0000
  H   H2284     1.0  0.87363  0.74749  0.41904  1.0000
  H   H2285     1.0  0.52183  0.98628  0.38609  1.0000
  H   H2286     1.0  0.68187  0.92494  0.35924  1.0000
  H   H2287     1.0  0.90029  0.77944  0.40857  1.0000
  H   H2288     1.0  0.67734  0.90261  0.35263  1.0000
  N   N144      1.0  0.67368  0.90299  0.38411  1.0000
  C   C1432     1.0  0.68355  0.90861  0.36356  1.0000
  S   S575      1.0  0.62161  0.98602  0.36858  1.0000
  H   H2289     1.0  0.68044  0.92733  0.39519  1.0000
  H   H2290     1.0  0.69908  0.90562  0.39657  1.0000
  H   H2291     1.0  0.75231  0.98231  0.36030  1.0000
  C   C1433     1.0  0.67621  0.88122  0.38906  1.0000
  H   H2292     1.0  0.69223  0.87460  0.38787  1.0000
  Fe  Fe286     1.0  0.71326  0.86660  0.33408  1.0000
  C   C1434     1.0  0.70583  0.95662  0.33710  1.0000
  Fe  Fe287     1.0  0.65165  0.98917  0.37394  1.0000
  S   S576      1.0  0.66274  0.77178  0.32910  1.0000
  H   H2293     1.0  0.72831  0.93271  0.32813  1.0000
  H   H2294     1.0  0.85626  0.79075  0.38231  1.0000
  H   H2295     1.0  0.73826  0.75201  0.32999  1.0000
  H   H2296     1.0  0.56732  0.97386  0.40956  1.0000
  Fe  Fe288     1.0  0.63431  0.76068  0.32960  1.0000
  C   C1435     1.0  0.74473  0.98850  0.34713  1.0000
  C   C1436     1.0  0.60217  0.86846  0.33480  1.0000
  H   H2297     1.0  0.54267  0.97564  0.42349  1.0000
  H   H2298     1.0  0.69418  0.78979  0.34161  1.0000
  H   H2299     1.0  0.57657  0.90308  0.33781  1.0000
  H   H2300     1.0  0.55558  0.98562  0.36784  1.0000
  H   H2301     1.0  0.56358  0.88249  0.34163  1.0000
  C   C1437     1.0  0.55123  0.97657  0.40819  1.0000
  C   C1438     1.0  0.56589  0.74463  0.33289  1.0000
  C   C1439     1.0  0.59864  0.80259  0.33201  1.0000
  H   H2302     1.0  0.55070  0.75319  0.33223  1.0000
  H   H2303     1.0  0.61585  0.85786  0.33775  1.0000
  C   C1440     1.0  0.74141  0.76741  0.32788  1.0000
  H   H2304     1.0  0.53547  0.99056  0.74276  1.0000
