data_image0
_chemical_formula_structural       CH3C2H4FeS2FeHSFeSCS2H4CHCHC2HC4H2CH5C3H7C2HNH4NHCH3FeH4CSC2HCH2CHNCSCFeSCFeHFeHSFeCHFeS2HSC3H2FeSH2C6H3CH2CS2HSCH3CHCSHCHNCH3C2SH2CH2NHSH2CHC2H9SHC3NH2SHFeH2FeSCFeSFeSH3C5SH3C2FeCH3CH2CH2CHCHSCSC2H2CHCHSHSH5CFe2CHCH6FeS2HSHFeSCSHSHC3H2FeHC5H3SCH2C2H3CHNFeH3C2HCSCHFeS2Fe2S2HCS2FeHCH2SH2SH2C3HNCH2SH6CH2C3H2C4SC2H4CH4C2HCHNHNHCHCHC3H6CHNH4CH3CSHCHCNH3CHCH2FeHFe2S2HFeS3H4CH2C5H2SHCH4CH2SCNC3HSHC4H4SHC3H4CH2C2H2CH2C2N2HCH2CFeS2FeS2FeSFeS3C5H4CH2C5H8CH3CHCHCHCH2CHNHC2H3CH2SH4NH4CHFeC2HSFeSCFeS2HFeHS2C3SH4CH3C2H2CH3CHCH2CH7SHFe2H6C2SNH10CHCH3C4HCH4SCNCHFeSHFeS2FeCFeS3CHCFeS2FeS2FeSFeS3H5NHC2HC3H4NC2H2NH2C8H4CHCH2NC5H4C3HCH2C2H2CH2SCHCHCH3CHC3HNCHCH2CH2SH2CH3CHSH3CHCHSHCH2NCFeS2HCHFeHS2FeS2FeS2FeSFeS4H2CH2C2H2C6H4C5H4C9H7CHCH2CHFeCH2NH4SNH4CH4CHCH2CH7NCFeHCHCHCH2CH3CH2C3H2CSH4FeS2FeHCHFeS3HC6H4C5HSH2CH2FeHCHCH2NCHCHSHSH2CNH5C2SCNH7NS2CFeS2FeS2FeSFeS3C3HC2H6C6H5C2H7NC2HC3HNC4H13CSCHC3NHSC2HC2H6CH2CH4SH4CHCHSHSHFeSFeSHFeS2FeSFeS2CH3C4H2C5HCH3CSC3H8FeNSH2C6SH2C2FeH9FeH2FeCHNCSH2SC2FeHCH2CHSH2C2H3SH2FeSHSHCH3CS2FeSFeHFeSHC2H3C6H5C2HCFeH2SHSCHNHSCSC2H13FeH2S2FeHC4H3NC2HSC4H4CNHFeHCH2CH2NSHFeS2HFeS4HC4H3C4H9CSNH5CFe2C2H2SH2CH2CHC3H2CH2CH3CH3C2HC2HSHFeSHSHCHC2NSH2CH2C3HCHSH3NHCHC2H2C2H2CHFeHCHSH3CHFeCSCSH2SFeCHFeSHFeSHSHCS2CHSHFeH3SC6H5NH3CH2CH3CFeHCH4CHNHC2SCHC2FeS2FeH3C4HCH5FeNHCHSC2H5SH2CHC3HCH2CHSH2C2N
_chemical_formula_sum              "C480 H768 Fe96 S192 N48"
_cell_length_a       57.7651
_cell_length_b       57.2171
_cell_length_c       40.3603
_cell_angle_alpha    91.4739
_cell_angle_beta     91.6718
_cell_angle_gamma    118.703

_space_group_name_H-M_alt    "P 1"
_space_group_IT_number       1

loop_
  _space_group_symop_operation_xyz
  'x, y, z'

loop_
  _atom_site_type_symbol
  _atom_site_label
  _atom_site_symmetry_multiplicity
  _atom_site_fract_x
  _atom_site_fract_y
  _atom_site_fract_z
  _atom_site_occupancy
  C   C1        1.0  0.24429  0.48999  0.19496  1.0000
  H   H1        1.0  0.16652  0.39168  0.50520  1.0000
  H   H2        1.0  0.22486  0.47376  0.19926  1.0000
  H   H3        1.0  0.24910  0.48819  0.51376  1.0000
  C   C2        1.0  0.26239  0.48496  0.17783  1.0000
  C   C3        1.0  0.25134  0.51592  0.20670  1.0000
  H   H4        1.0  0.25692  0.46487  0.16901  1.0000
  H   H5        1.0  0.26400  0.51722  0.04278  1.0000
  H   H6        1.0  0.13231  0.37338  0.51492  1.0000
  H   H7        1.0  0.26030  0.51336  0.11749  1.0000
  Fe  Fe1       1.0  0.13456  0.44332  0.63582  1.0000
  S   S1        1.0  0.14061  0.47188  0.67865  1.0000
  S   S2        1.0  0.09746  0.40637  0.61563  1.0000
  Fe  Fe2       1.0  0.19104  0.47739  0.61222  1.0000
  H   H8        1.0  0.18935  0.38927  0.57397  1.0000
  S   S3        1.0  0.21499  0.48018  0.56711  1.0000
  Fe  Fe3       1.0  0.18081  0.47511  0.68610  1.0000
  S   S4        1.0  0.19901  0.47443  0.73633  1.0000
  C   C4        1.0  0.21960  0.50128  0.79635  1.0000
  S   S5        1.0  0.17315  0.44336  0.64627  1.0000
  S   S6        1.0  0.15187  0.47528  0.59918  1.0000
  H   H9        1.0  0.14001  0.47304  0.91340  1.0000
  H   H10       1.0  0.04543  0.37043  0.58708  1.0000
  H   H11       1.0  0.17228  0.46389  0.88357  1.0000
  H   H12       1.0  0.12299  0.48750  0.82866  1.0000
  C   C5        1.0  0.24862  0.46050  0.58736  1.0000
  H   H13       1.0  0.16906  0.43313  0.52938  1.0000
  C   C6        1.0  0.14310  0.48979  0.83280  1.0000
  H   H14       1.0  0.07116  0.46823  0.64765  1.0000
  C   C7        1.0  0.13908  0.48434  0.89181  1.0000
  C   C8        1.0  0.17080  0.47613  0.86348  1.0000
  H   H15       1.0  0.03601  0.46849  0.61195  1.0000
  C   C9        1.0  0.05167  0.48363  0.59688  1.0000
  C   C10       1.0  0.18606  0.40634  0.56791  1.0000
  C   C11       1.0  0.08602  0.48287  0.63145  1.0000
  C   C12       1.0  0.06803  0.45311  0.58286  1.0000
  H   H16       1.0  0.08507  0.44905  0.58442  1.0000
  H   H17       1.0  0.12782  0.43752  0.83065  1.0000
  C   C13       1.0  0.24141  0.47295  0.56283  1.0000
  H   H18       1.0  0.12468  0.43314  0.87455  1.0000
  H   H19       1.0  0.10364  0.47979  0.63254  1.0000
  H   H20       1.0  0.04309  0.48161  0.57125  1.0000
  H   H21       1.0  0.23873  0.45608  0.61054  1.0000
  H   H22       1.0  0.11929  0.48319  0.89059  1.0000
  C   C14       1.0  0.06233  0.41476  0.65274  1.0000
  C   C15       1.0  0.06559  0.40046  0.62637  1.0000
  C   C16       1.0  0.04313  0.38166  0.60749  1.0000
  H   H23       1.0  0.18219  0.51493  0.74177  1.0000
  H   H24       1.0  0.14185  0.36390  0.58719  1.0000
  H   H25       1.0  0.18619  0.49707  0.86946  1.0000
  H   H26       1.0  0.05657  0.50372  0.60753  1.0000
  H   H27       1.0  0.17602  0.46959  0.83991  1.0000
  H   H28       1.0  0.07938  0.42903  0.66773  1.0000
  H   H29       1.0  0.06119  0.45067  0.55634  1.0000
  C   C17       1.0  0.12427  0.44570  0.85417  1.0000
  C   C18       1.0  0.03692  0.41052  0.65990  1.0000
  H   H30       1.0  0.03463  0.42167  0.68042  1.0000
  N   N1        1.0  0.14428  0.47397  0.86057  1.0000
  H   H31       1.0  0.15405  0.50570  0.89714  1.0000
  H   H32       1.0  0.14876  0.48382  0.80914  1.0000
  H   H33       1.0  0.15684  0.51144  0.83775  1.0000
  H   H34       1.0  0.14381  0.39401  0.60456  1.0000
  N   N2        1.0  0.07531  0.47997  0.59699  1.0000
  H   H35       1.0  0.10397  0.44327  0.85188  1.0000
  C   C19       1.0  0.15289  0.38046  0.52490  1.0000
  H   H36       1.0  0.05171  0.43731  0.59634  1.0000
  H   H37       1.0  0.15993  0.43403  0.57100  1.0000
  H   H38       1.0  0.22852  0.48851  0.79877  1.0000
  Fe  Fe4       1.0  0.16091  0.50394  0.64237  1.0000
  H   H39       1.0  0.13477  0.41498  0.53968  1.0000
  H   H40       1.0  0.15525  0.36259  0.52940  1.0000
  H   H41       1.0  0.20051  0.41809  0.54921  1.0000
  H   H42       1.0  0.19119  0.41955  0.59072  1.0000
  C   C20       1.0  0.26836  0.45325  0.58157  1.0000
  S   S7        1.0  0.20159  0.50924  0.65261  1.0000
  C   C21       1.0  0.25458  0.47865  0.53294  1.0000
  C   C22       1.0  0.09558  0.50035  0.57686  1.0000
  H   H43       1.0  0.09251  0.50322  0.64257  1.0000
  C   C23       1.0  0.20470  0.49930  0.76726  1.0000
  H   H44       1.0  0.08852  0.49880  0.55056  1.0000
  H   H45       1.0  0.11387  0.49842  0.57703  1.0000
  C   C24       1.0  0.14008  0.38183  0.58109  1.0000
  H   H46       1.0  0.11916  0.37512  0.57285  1.0000
  N   N3        1.0  0.15858  0.39733  0.55559  1.0000
  C   C25       1.0  0.15535  0.42081  0.54843  1.0000
  S   S8        1.0  0.22085  0.51765  0.93123  1.0000
  C   C26       1.0  0.19353  0.51612  0.76419  1.0000
  Fe  Fe5       1.0  0.11371  0.64058  0.47584  1.0000
  S   S9        1.0  0.13211  0.62103  0.44479  1.0000
  C   C27       1.0  0.15707  0.63145  0.14965  1.0000
  Fe  Fe6       1.0  0.16656  0.66174  0.44164  1.0000
  H   H47       1.0  0.20703  0.58994  0.46047  1.0000
  Fe  Fe7       1.0  0.21363  0.59962  0.25529  1.0000
  H   H48       1.0  0.20172  0.62905  0.41261  1.0000
  S   S10       1.0  0.17779  0.59825  0.27814  1.0000
  Fe  Fe8       1.0  0.23688  0.56434  0.23267  1.0000
  C   C28       1.0  0.17689  0.60287  0.14442  1.0000
  H   H49       1.0  0.14102  0.60285  0.32025  1.0000
  Fe  Fe9       1.0  0.24227  0.60949  0.19058  1.0000
  S   S11       1.0  0.24002  0.58633  0.28091  1.0000
  S   S12       1.0  0.20714  0.57405  0.20908  1.0000
  H   H50       1.0  0.25133  0.62482  0.06743  1.0000
  S   S13       1.0  0.14755  0.68234  0.46905  1.0000
  C   C29       1.0  0.23412  0.59728  0.10633  1.0000
  C   C30       1.0  0.21930  0.57041  0.11365  1.0000
  C   C31       1.0  0.21004  0.55051  0.08801  1.0000
  H   H51       1.0  0.21906  0.64512  0.17502  1.0000
  H   H52       1.0  0.21488  0.56486  0.13900  1.0000
  Fe  Fe10      1.0  0.15126  0.61863  0.49260  1.0000
  S   S14       1.0  0.19375  0.67838  0.39905  1.0000
  H   H53       1.0  0.18712  0.58719  0.35704  1.0000
  H   H54       1.0  0.19860  0.52975  0.09383  1.0000
  C   C32       1.0  0.21615  0.55727  0.05504  1.0000
  C   C33       1.0  0.18895  0.65683  0.36444  1.0000
  C   C34       1.0  0.16377  0.63634  0.35453  1.0000
  C   C35       1.0  0.16057  0.61874  0.32769  1.0000
  C   C36       1.0  0.18250  0.62144  0.31069  1.0000
  C   C37       1.0  0.20769  0.64205  0.32042  1.0000
  H   H55       1.0  0.22473  0.64428  0.30747  1.0000
  H   H56       1.0  0.14674  0.63402  0.36762  1.0000
  H   H57       1.0  0.26249  0.55873  0.05145  1.0000
  C   C38       1.0  0.17116  0.61753  0.19874  1.0000
  H   H58       1.0  0.23038  0.67572  0.35454  1.0000
  H   H59       1.0  0.16811  0.60547  0.39986  1.0000
  C   C39       1.0  0.03898  0.61266  0.47458  1.0000
  S   S15       1.0  0.07042  0.62363  0.45737  1.0000
  S   S16       1.0  0.15662  0.58238  0.49833  1.0000
  H   H60       1.0  0.15161  0.59940  0.20043  1.0000
  S   S17       1.0  0.24645  0.63631  0.23478  1.0000
  C   C40       1.0  0.21402  0.59163  0.43469  1.0000
  H   H61       1.0  0.15718  0.58470  0.14383  1.0000
  H   H62       1.0  0.17497  0.54515  0.40840  1.0000
  H   H63       1.0  0.17920  0.60867  0.44221  1.0000
  C   C41       1.0  0.21085  0.65984  0.34706  1.0000
  H   H64       1.0  0.18614  0.61299  0.21038  1.0000
  C   C42       1.0  0.20276  0.59024  0.37615  1.0000
  S   S18       1.0  0.24560  0.62274  0.13785  1.0000
  H   H65       1.0  0.16188  0.55902  0.43819  1.0000
  C   C43       1.0  0.16983  0.56133  0.41296  1.0000
  H   H66       1.0  0.23615  0.58960  0.02252  1.0000
  N   N4        1.0  0.17716  0.62520  0.16405  1.0000
  C   C44       1.0  0.25935  0.53020  0.10548  1.0000
  H   H67       1.0  0.15349  0.55802  0.39489  1.0000
  H   H68       1.0  0.17108  0.63377  0.21446  1.0000
  H   H69       1.0  0.25508  0.78956  0.46599  1.0000
  C   C45       1.0  0.03603  0.61813  0.50773  1.0000
  C   C46       1.0  0.23115  0.58415  0.04780  1.0000
  S   S19       1.0  0.18726  0.65778  0.48699  1.0000
  H   H70       1.0  0.20449  0.73808  0.48203  1.0000
  H   H71       1.0  0.19902  0.72307  0.44103  1.0000
  C   C47       1.0  0.20356  0.64895  0.16344  1.0000
  H   H72       1.0  0.23166  0.61166  0.43337  1.0000
  H   H73       1.0  0.22048  0.57635  0.43076  1.0000
  N   N5        1.0  0.19298  0.58796  0.41002  1.0000
  H   H74       1.0  0.15673  0.64821  0.16389  1.0000
  S   S20       1.0  0.22875  0.52180  0.22886  1.0000
  H   H75       1.0  0.21984  0.61033  0.37273  1.0000
  H   H76       1.0  0.16109  0.63732  0.12347  1.0000
  C   C48       1.0  0.18521  0.60871  0.41636  1.0000
  H   H77       1.0  0.26322  0.72929  0.47278  1.0000
  C   C49       1.0  0.23986  0.60409  0.07333  1.0000
  C   C50       1.0  0.21201  0.74143  0.45653  1.0000
  H   H78       1.0  0.23512  0.72189  0.49708  1.0000
  H   H79       1.0  0.23052  0.70620  0.45661  1.0000
  H   H80       1.0  0.24685  0.76672  0.41013  1.0000
  H   H81       1.0  0.20434  0.66639  0.17732  1.0000
  H   H82       1.0  0.18225  0.60819  0.11835  1.0000
  H   H83       1.0  0.13691  0.61395  0.14981  1.0000
  H   H84       1.0  0.20931  0.65473  0.13759  1.0000
  H   H85       1.0  0.19142  0.59726  0.15502  1.0000
  H   H86       1.0  0.23637  0.73171  0.40656  1.0000
  S   S21       1.0  0.20689  0.53177  0.02389  1.0000
  H   H87       1.0  0.20941  0.75799  0.44653  1.0000
  C   C51       1.0  0.24236  0.72525  0.47141  1.0000
  C   C52       1.0  0.24859  0.75029  0.42210  1.0000
  C   C53       1.0  0.25662  0.77244  0.47618  1.0000
  N   N6        1.0  0.23991  0.74736  0.45655  1.0000
  H   H88       1.0  0.25061  0.77083  0.50220  1.0000
  H   H89       1.0  0.25848  0.54337  0.12566  1.0000
  S   S22       1.0  0.27170  0.59827  0.21109  1.0000
  H   H90       1.0  0.20920  0.57516  0.37053  1.0000
  Fe  Fe11      1.0  0.27256  0.62128  0.25731  1.0000
  H   H91       1.0  0.26952  0.75465  0.42121  1.0000
  H   H92       1.0  0.24035  0.52169  0.09045  1.0000
  Fe  Fe12      1.0  0.16656  0.67591  0.51516  1.0000
  S   S23       1.0  0.15073  0.53722  0.64054  1.0000
  C   C54       1.0  0.22755  0.78569  0.55442  1.0000
  Fe  Fe13      1.0  0.22955  0.54441  0.97712  1.0000
  S   S24       1.0  0.23512  0.57976  0.94872  1.0000
  Fe  Fe14      1.0  0.23089  0.55433  0.90284  1.0000
  S   S25       1.0  0.20932  0.55411  0.85503  1.0000
  H   H93       1.0  0.18693  0.54634  0.78844  1.0000
  H   H94       1.0  0.18919  0.75177  0.54190  1.0000
  H   H95       1.0  0.22089  0.80015  0.55012  1.0000
  C   C55       1.0  0.15562  0.55231  0.60216  1.0000
  C   C56       1.0  0.14775  0.57166  0.59700  1.0000
  C   C57       1.0  0.14867  0.58164  0.56535  1.0000
  C   C58       1.0  0.21034  0.53519  0.82023  1.0000
  C   C59       1.0  0.16510  0.54353  0.57581  1.0000
  S   S26       1.0  0.13120  0.63566  0.52432  1.0000
  H   H96       1.0  0.25901  0.79987  0.67598  1.0000
  H   H97       1.0  0.27160  0.62526  0.91565  1.0000
  H   H98       1.0  0.17250  0.54590  0.52370  1.0000
  C   C60       1.0  0.26883  0.79302  0.65779  1.0000
  C   C61       1.0  0.20958  0.75825  0.54943  1.0000
  Fe  Fe15      1.0  0.26454  0.53275  0.93292  1.0000
  C   C62       1.0  0.15723  0.57208  0.53877  1.0000
  H   H99       1.0  0.05338  0.62915  0.52408  1.0000
  H   H100      1.0  0.25438  0.76211  0.71053  1.0000
  H   H101      1.0  0.26663  0.65917  0.88397  1.0000
  C   C63       1.0  0.26211  0.77562  0.57143  1.0000
  H   H102      1.0  0.17180  0.52911  0.57972  1.0000
  H   H103      1.0  0.25322  0.77852  0.63981  1.0000
  C   C64       1.0  0.26499  0.75710  0.69139  1.0000
  H   H104      1.0  0.14052  0.57861  0.61737  1.0000
  H   H105      1.0  0.10138  0.52087  0.58672  1.0000
  C   C65       1.0  0.16560  0.55315  0.54411  1.0000
  H   H106      1.0  0.14231  0.59635  0.56143  1.0000
  C   C66       1.0  0.25381  0.79455  0.56581  1.0000
  H   H107      1.0  0.24982  0.74188  0.67355  1.0000
  S   S27       1.0  0.27252  0.55586  0.98111  1.0000
  C   C67       1.0  0.19633  0.53399  0.79062  1.0000
  S   S28       1.0  0.19433  0.70477  0.55653  1.0000
  C   C68       1.0  0.21758  0.73926  0.55618  1.0000
  C   C69       1.0  0.24394  0.74812  0.56726  1.0000
  H   H108      1.0  0.25023  0.73361  0.57306  1.0000
  H   H109      1.0  0.23374  0.52026  0.84515  1.0000
  C   C70       1.0  0.22266  0.51935  0.82261  1.0000
  H   H110      1.0  0.35568  0.50587  0.26649  1.0000
  C   C71       1.0  0.28777  0.50577  0.17302  1.0000
  H   H111      1.0  0.51738  0.31651  0.31921  1.0000
  S   S29       1.0  0.42177  0.34777  0.47005  1.0000
  H   H112      1.0  0.42424  0.07073  0.51247  1.0000
  S   S30       1.0  0.46226  0.30836  0.45250  1.0000
  H   H113      1.0  0.49850  0.25786  0.49979  1.0000
  H   H114      1.0  0.48912  0.28919  0.29854  1.0000
  H   H115      1.0  0.51783  0.22775  0.50805  1.0000
  H   H116      1.0  0.51618  0.25687  0.27770  1.0000
  H   H117      1.0  0.37310  0.46269  0.38772  1.0000
  C   C72       1.0  0.51020  0.29659  0.30639  1.0000
  Fe  Fe16      1.0  0.47155  0.29911  0.50367  1.0000
  Fe  Fe17      1.0  0.45782  0.34180  0.47749  1.0000
  C   C73       1.0  0.40192  0.10092  0.49444  1.0000
  H   H118      1.0  0.41281  0.10920  0.47159  1.0000
  C   C74       1.0  0.52018  0.37479  0.33363  1.0000
  H   H119      1.0  0.51099  0.28298  0.32508  1.0000
  H   H120      1.0  0.50498  0.37916  0.32428  1.0000
  H   H121      1.0  0.38854  0.07918  0.48933  1.0000
  H   H122      1.0  0.38935  0.11045  0.49885  1.0000
  H   H123      1.0  0.46121  0.44533  0.46290  1.0000
  H   H124      1.0  0.41587  0.46766  0.31836  1.0000
  Fe  Fe18      1.0  0.38622  0.46813  0.47768  1.0000
  S   S31       1.0  0.39413  0.50361  0.44762  1.0000
  S   S32       1.0  0.42006  0.45830  0.47385  1.0000
  H   H125      1.0  0.46257  0.40257  0.46019  1.0000
  S   S33       1.0  0.33968  0.50029  0.47514  1.0000
  H   H126      1.0  0.38295  0.44057  0.32235  1.0000
  Fe  Fe19      1.0  0.35092  0.48166  0.43341  1.0000
  S   S34       1.0  0.33463  0.47900  0.38084  1.0000
  C   C75       1.0  0.39739  0.37880  0.47351  1.0000
  S   S35       1.0  0.34314  0.44494  0.46109  1.0000
  H   H127      1.0  0.42022  0.43646  0.39689  1.0000
  S   S36       1.0  0.31087  0.49964  0.15251  1.0000
  H   H128      1.0  0.44374  0.49170  0.36876  1.0000
  C   C76       1.0  0.35583  0.49868  0.35030  1.0000
  C   C77       1.0  0.34623  0.49511  0.31719  1.0000
  C   C78       1.0  0.36313  0.50930  0.29204  1.0000
  H   H129      1.0  0.38505  0.44586  0.41444  1.0000
  H   H130      1.0  0.32577  0.48094  0.31083  1.0000
  Fe  Fe20      1.0  0.50551  0.33886  0.45306  1.0000
  H   H131      1.0  0.39991  0.41826  0.36088  1.0000
  C   C79       1.0  0.42130  0.37850  0.46898  1.0000
  C   C80       1.0  0.39648  0.40300  0.47467  1.0000
  C   C81       1.0  0.41953  0.42712  0.47123  1.0000
  C   C82       1.0  0.44332  0.42676  0.46596  1.0000
  C   C83       1.0  0.44420  0.40259  0.46463  1.0000
  H   H132      1.0  0.49501  0.26405  0.25113  1.0000
  H   H133      1.0  0.41840  0.49918  0.38115  1.0000
  H   H134      1.0  0.37951  0.36022  0.47662  1.0000
  S   S37       1.0  0.50054  0.37284  0.47453  1.0000
  C   C84       1.0  0.39819  0.46010  0.33369  1.0000
  H   H135      1.0  0.36475  0.42881  0.37791  1.0000
  H   H136      1.0  0.37802  0.40298  0.47863  1.0000
  C   C85       1.0  0.42527  0.48408  0.38252  1.0000
  C   C86       1.0  0.38089  0.44833  0.38804  1.0000
  H   H137      1.0  0.28438  0.47619  0.50414  1.0000
  H   H138      1.0  0.43040  0.48314  0.40911  1.0000
  H   H139      1.0  0.39010  0.47421  0.33152  1.0000
  C   C87       1.0  0.41495  0.43846  0.37069  1.0000
  H   H140      1.0  0.43296  0.44479  0.35624  1.0000
  N   N7        1.0  0.40484  0.45774  0.36869  1.0000
  Fe  Fe21      1.0  0.33559  0.46594  0.50452  1.0000
  H   H141      1.0  0.50144  0.36014  0.37992  1.0000
  H   H142      1.0  0.50456  0.31116  0.24553  1.0000
  H   H143      1.0  0.44835  0.10063  0.49394  1.0000
  C   C88       1.0  0.51575  0.27170  0.26075  1.0000
  C   C89       1.0  0.51813  0.36401  0.36511  1.0000
  H   H144      1.0  0.28451  0.50966  0.06997  1.0000
  C   C90       1.0  0.38230  0.51706  0.35821  1.0000
  S   S38       1.0  0.51491  0.32716  0.50244  1.0000
  C   C91       1.0  0.43660  0.09276  0.51625  1.0000
  H   H145      1.0  0.44999  0.14395  0.50753  1.0000
  Fe  Fe22      1.0  0.49862  0.15383  0.58903  1.0000
  S   S39       1.0  0.49547  0.16212  0.71082  1.0000
  S   S40       1.0  0.50480  0.18344  0.54898  1.0000
  Fe  Fe23      1.0  0.46735  0.09547  0.60974  1.0000
  Fe  Fe24      1.0  0.50603  0.35823  0.52374  1.0000
  S   S41       1.0  0.43291  0.05678  0.58751  1.0000
  S   S42       1.0  0.46329  0.32977  0.52834  1.0000
  H   H146      1.0  0.33248  0.46420  0.90780  1.0000
  C   C92       1.0  0.42768  0.02171  0.63685  1.0000
  S   S43       1.0  0.46407  0.13270  0.62114  1.0000
  S   S44       1.0  0.49989  0.11622  0.57449  1.0000
  Fe  Fe25      1.0  0.49480  0.14108  0.66226  1.0000
  H   H147      1.0  0.44602  0.37987  0.60546  1.0000
  C   C93       1.0  0.45576  0.37948  0.58224  1.0000
  H   H148      1.0  0.47343  0.26646  0.59879  1.0000
  H   H149      1.0  0.47112  0.12656  0.85930  1.0000
  S   S45       1.0  0.30601  0.44926  0.54517  1.0000
  H   H150      1.0  0.44134  0.36176  0.56662  1.0000
  H   H151      1.0  0.48377  0.42107  0.51957  1.0000
  S   S46       1.0  0.49507  0.10219  0.65376  1.0000
  H   H152      1.0  0.44664  0.42566  0.54067  1.0000
  H   H153      1.0  0.43070  0.40890  0.57709  1.0000
  C   C94       1.0  0.45781  0.21830  0.55756  1.0000
  C   C95       1.0  0.46913  0.20161  0.56289  1.0000
  C   C96       1.0  0.49074  0.20483  0.54492  1.0000
  H   H154      1.0  0.42640  0.39014  0.53896  1.0000
  N   N8        1.0  0.49700  0.16443  0.88432  1.0000
  C   C97       1.0  0.42100  0.02480  0.60429  1.0000
  H   H155      1.0  0.46096  0.18609  0.58057  1.0000
  H   H156      1.0  0.45892  0.14668  0.90567  1.0000
  S   S47       1.0  0.45397  0.25983  0.53006  1.0000
  H   H157      1.0  0.32132  0.49274  0.60646  1.0000
  H   H158      1.0  0.44088  0.03908  0.65230  1.0000
  H   H159      1.0  0.35090  0.50440  0.63254  1.0000
  H   H160      1.0  0.41843  0.09803  0.57517  1.0000
  H   H161      1.0  0.44087  0.21545  0.57122  1.0000
  H   H162      1.0  0.31774  0.48526  0.91299  1.0000
  C   C98       1.0  0.47474  0.16649  0.89859  1.0000
  H   H163      1.0  0.51477  0.32232  0.58071  1.0000
  H   H164      1.0  0.48041  0.15501  0.83412  1.0000
  C   C99       1.0  0.40511  0.09445  0.55294  1.0000
  C   C100      1.0  0.50833  0.15350  0.90886  1.0000
  C   C101      1.0  0.44104  0.40743  0.55495  1.0000
  H   H165      1.0  0.36310  0.47830  0.97449  1.0000
  H   H166      1.0  0.48139  0.18004  0.92126  1.0000
  C   C102      1.0  0.48309  0.42739  0.58596  1.0000
  C   C103      1.0  0.48752  0.14661  0.85411  1.0000
  C   C104      1.0  0.46835  0.23876  0.53488  1.0000
  C   C105      1.0  0.33034  0.47808  0.92569  1.0000
  S   S48       1.0  0.28282  0.50760  0.91873  1.0000
  C   C106      1.0  0.51978  0.30577  0.58004  1.0000
  C   C107      1.0  0.35251  0.51812  0.96106  1.0000
  H   H167      1.0  0.39239  0.07241  0.54980  1.0000
  H   H168      1.0  0.37627  0.47708  0.93495  1.0000
  H   H169      1.0  0.49546  0.40117  0.54045  1.0000
  H   H170      1.0  0.34315  0.50744  0.98364  1.0000
  C   C108      1.0  0.50118  0.22521  0.52217  1.0000
  H   H171      1.0  0.39228  0.10342  0.55876  1.0000
  H   H172      1.0  0.37273  0.50340  0.88889  1.0000
  H   H173      1.0  0.39233  0.50653  0.96158  1.0000
  H   H174      1.0  0.48053  0.29715  0.61998  1.0000
  C   C109      1.0  0.43774  0.13472  0.52913  1.0000
  C   C110      1.0  0.28147  0.45891  0.55158  1.0000
  H   H175      1.0  0.47283  0.37624  0.58899  1.0000
  C   C111      1.0  0.34330  0.50341  0.60662  1.0000
  H   H176      1.0  0.49348  0.13322  0.91587  1.0000
  N   N9        1.0  0.46433  0.40434  0.56438  1.0000
  H   H177      1.0  0.27350  0.44320  0.60042  1.0000
  N   N10       1.0  0.35632  0.50056  0.93685  1.0000
  H   H178      1.0  0.45176  0.13897  0.55077  1.0000
  C   C112      1.0  0.51847  0.14049  0.75239  1.0000
  H   H179      1.0  0.45078  0.09619  0.53739  1.0000
  C   C113      1.0  0.48635  0.28122  0.61868  1.0000
  H   H180      1.0  0.29642  0.49805  0.85351  1.0000
  C   C114      1.0  0.47753  0.40296  0.53421  1.0000
  C   C115      1.0  0.37266  0.49008  0.95265  1.0000
  C   C116      1.0  0.27463  0.47188  0.52742  1.0000
  H   H181      1.0  0.51019  0.19993  0.85645  1.0000
  H   H182      1.0  0.46579  0.17463  0.88056  1.0000
  H   H183      1.0  0.48163  0.27085  0.64248  1.0000
  H   H184      1.0  0.34911  0.49074  0.59131  1.0000
  H   H185      1.0  0.47388  0.42907  0.60911  1.0000
  H   H186      1.0  0.50355  0.14349  0.84389  1.0000
  C   C117      1.0  0.51753  0.19124  0.87578  1.0000
  H   H187      1.0  0.31928  0.46649  0.94694  1.0000
  N   N11       1.0  0.42033  0.10571  0.52318  1.0000
  H   H188      1.0  0.42628  0.14534  0.53429  1.0000
  H   H189      1.0  0.51582  0.16652  0.93194  1.0000
  H   H190      1.0  0.50936  0.12285  0.73594  1.0000
  H   H191      1.0  0.48997  0.44644  0.57310  1.0000
  C   C118      1.0  0.36974  0.51595  0.90796  1.0000
  H   H192      1.0  0.50937  0.25543  0.58915  1.0000
  H   H193      1.0  0.51729  0.25932  0.63287  1.0000
  H   H194      1.0  0.50094  0.42562  0.59327  1.0000
  C   C119      1.0  0.31057  0.51812  0.86223  1.0000
  S   S49       1.0  0.37811  0.48585  0.52347  1.0000
  H   H195      1.0  0.50775  0.29167  0.55914  1.0000
  C   C120      1.0  0.52124  0.27027  0.60950  1.0000
  H   H196      1.0  0.52147  0.28401  0.92891  1.0000
  C   C121      1.0  0.51492  0.16243  0.74552  1.0000
  N   N12       1.0  0.51460  0.29220  0.61177  1.0000
  H   H197      1.0  0.34814  0.51509  0.54319  1.0000
  H   H198      1.0  0.46417  0.38532  0.51786  1.0000
  H   H199      1.0  0.32086  0.51839  0.55777  1.0000
  C   C122      1.0  0.49025  0.24228  0.51740  1.0000
  H   H200      1.0  0.35650  0.71266  0.17779  1.0000
  C   C123      1.0  0.30694  0.55610  0.10547  1.0000
  H   H201      1.0  0.50598  0.70320  0.19572  1.0000
  H   H202      1.0  0.29512  0.56556  0.27301  1.0000
  Fe  Fe26      1.0  0.39518  0.55123  0.22171  1.0000
  H   H203      1.0  0.31057  0.69093  0.19206  1.0000
  Fe  Fe27      1.0  0.35106  0.53256  0.16900  1.0000
  Fe  Fe28      1.0  0.37354  0.58776  0.19986  1.0000
  S   S50       1.0  0.36633  0.57257  0.14712  1.0000
  S   S51       1.0  0.36515  0.62017  0.21728  1.0000
  H   H204      1.0  0.38986  0.81476  0.02726  1.0000
  Fe  Fe29      1.0  0.40600  0.57475  0.15267  1.0000
  S   S52       1.0  0.43668  0.59931  0.11637  1.0000
  S   S53       1.0  0.35505  0.54773  0.22167  1.0000
  S   S54       1.0  0.41433  0.59309  0.20449  1.0000
  H   H205      1.0  0.51421  0.71549  0.15469  1.0000
  H   H206      1.0  0.31320  0.66350  0.20916  1.0000
  H   H207      1.0  0.33097  0.63955  0.17755  1.0000
  H   H208      1.0  0.31402  0.54801  0.18046  1.0000
  C   C124      1.0  0.39044  0.64773  0.16362  1.0000
  H   H209      1.0  0.38095  0.62881  0.14978  1.0000
  H   H210      1.0  0.30560  0.53867  0.31188  1.0000
  C   C125      1.0  0.41461  0.55378  0.03049  1.0000
  C   C126      1.0  0.41597  0.56202  0.06395  1.0000
  C   C127      1.0  0.43242  0.58870  0.07415  1.0000
  C   C128      1.0  0.44673  0.60723  0.05051  1.0000
  C   C129      1.0  0.32638  0.67929  0.27354  1.0000
  H   H211      1.0  0.39522  0.67462  0.24126  1.0000
  H   H212      1.0  0.40505  0.54759  0.08206  1.0000
  S   S55       1.0  0.39024  0.53280  0.17007  1.0000
  H   H213      1.0  0.45960  0.62787  0.05826  1.0000
  C   C130      1.0  0.44298  0.87793  0.49873  1.0000
  H   H214      1.0  0.48651  0.64200  0.14199  1.0000
  H   H215      1.0  0.30689  0.56925  0.12625  1.0000
  H   H216      1.0  0.30170  0.57796  0.33304  1.0000
  H   H217      1.0  0.41990  0.54466  0.33926  1.0000
  C   C131      1.0  0.45988  0.66017  0.17816  1.0000
  H   H218      1.0  0.30566  0.63154  0.14553  1.0000
  H   H219      1.0  0.48543  0.71346  0.17302  1.0000
  S   S56       1.0  0.40213  0.56181  0.51076  1.0000
  C   C132      1.0  0.38597  0.64909  0.19731  1.0000
  N   N13       1.0  0.33181  0.57966  0.30162  1.0000
  C   C133      1.0  0.31675  0.57867  0.27088  1.0000
  C   C134      1.0  0.32320  0.59050  0.32941  1.0000
  C   C135      1.0  0.32695  0.55247  0.30874  1.0000
  H   H220      1.0  0.32294  0.57095  0.24924  1.0000
  S   S57       1.0  0.41209  0.54333  0.26865  1.0000
  H   H221      1.0  0.41022  0.66992  0.12149  1.0000
  C   C136      1.0  0.41940  0.69558  0.16545  1.0000
  C   C137      1.0  0.32597  0.64676  0.15439  1.0000
  C   C138      1.0  0.36034  0.59714  0.29742  1.0000
  C   C139      1.0  0.49825  0.66281  0.15264  1.0000
  H   H222      1.0  0.33329  0.54375  0.28824  1.0000
  H   H223      1.0  0.45736  0.65632  0.11189  1.0000
  H   H224      1.0  0.48618  0.68762  0.10552  1.0000
  H   H225      1.0  0.33446  0.68381  0.10952  1.0000
  S   S58       1.0  0.31162  0.64599  0.28493  1.0000
  H   H226      1.0  0.51610  0.87957  0.29457  1.0000
  C   C140      1.0  0.50947  0.85938  0.30201  1.0000
  C   C141      1.0  0.38985  0.52693  0.29984  1.0000
  C   C142      1.0  0.39933  0.53082  0.33302  1.0000
  H   H227      1.0  0.44597  0.64020  0.16660  1.0000
  H   H228      1.0  0.40002  0.68495  0.02094  1.0000
  H   H229      1.0  0.45837  0.68709  0.12456  1.0000
  H   H230      1.0  0.34002  0.64760  0.13558  1.0000
  C   C143      1.0  0.29466  0.53170  0.18447  1.0000
  H   H231      1.0  0.50705  0.66170  0.17705  1.0000
  H   H232      1.0  0.36047  0.68644  0.19547  1.0000
  C   C144      1.0  0.40699  0.67100  0.14762  1.0000
  C   C145      1.0  0.49757  0.70317  0.17055  1.0000
  H   H233      1.0  0.48535  0.78721  0.32907  1.0000
  H   H234      1.0  0.32000  0.59890  0.26483  1.0000
  C   C146      1.0  0.46627  0.87611  0.50318  1.0000
  H   H235      1.0  0.51468  0.67381  0.13591  1.0000
  H   H236      1.0  0.36462  0.61774  0.29162  1.0000
  C   C147      1.0  0.39826  0.67363  0.21507  1.0000
  C   C148      1.0  0.40224  0.80554  0.02403  1.0000
  N   N14       1.0  0.48154  0.67573  0.15611  1.0000
  N   N15       1.0  0.32763  0.67314  0.16038  1.0000
  H   H237      1.0  0.30027  0.66769  0.11982  1.0000
  C   C149      1.0  0.32074  0.68199  0.12931  1.0000
  H   H238      1.0  0.36946  0.69513  0.15354  1.0000
  H   H239      1.0  0.36521  0.68312  0.27147  1.0000
  C   C150      1.0  0.48759  0.81197  0.28854  1.0000
  Fe  Fe30      1.0  0.45741  0.81162  0.20329  1.0000
  S   S59       1.0  0.46317  0.80123  0.15081  1.0000
  S   S60       1.0  0.48819  0.84431  0.23823  1.0000
  Fe  Fe31      1.0  0.39862  0.77281  0.19921  1.0000
  S   S61       1.0  0.39893  0.75859  0.14714  1.0000
  S   S62       1.0  0.36112  0.76002  0.22632  1.0000
  Fe  Fe32      1.0  0.43635  0.75904  0.16431  1.0000
  S   S63       1.0  0.44110  0.72431  0.14576  1.0000
  Fe  Fe33      1.0  0.42526  0.80143  0.13692  1.0000
  S   S64       1.0  0.41479  0.81693  0.09083  1.0000
  S   S65       1.0  0.43366  0.76920  0.21771  1.0000
  S   S66       1.0  0.42195  0.81593  0.18800  1.0000
  C   C151      1.0  0.43404  0.84859  0.28962  1.0000
  C   C152      1.0  0.35327  0.69269  0.26701  1.0000
  C   C153      1.0  0.27648  0.53675  0.20109  1.0000
  C   C154      1.0  0.41632  0.80332  0.05169  1.0000
  C   C155      1.0  0.43211  0.79118  0.04745  1.0000
  H   H240      1.0  0.47996  0.88130  0.48348  1.0000
  H   H241      1.0  0.43518  0.86490  0.30633  1.0000
  H   H242      1.0  0.44821  0.67041  0.18374  1.0000
  H   H243      1.0  0.44317  0.78956  0.06855  1.0000
  C   C156      1.0  0.41499  0.69689  0.19915  1.0000
  H   H244      1.0  0.28837  0.65738  0.17769  1.0000
  H   H245      1.0  0.29030  0.68166  0.27356  1.0000
  C   C157      1.0  0.36439  0.71785  0.25312  1.0000
  C   C158      1.0  0.34871  0.72986  0.24654  1.0000
  C   C159      1.0  0.32221  0.71712  0.25494  1.0000
  C   C160      1.0  0.31096  0.69171  0.26801  1.0000
  C   C161      1.0  0.51419  0.85484  0.33509  1.0000
  H   H246      1.0  0.38492  0.72763  0.24697  1.0000
  H   H247      1.0  0.31010  0.72649  0.25020  1.0000
  H   H248      1.0  0.32668  0.61104  0.32464  1.0000
  H   H249      1.0  0.40812  0.80056  0.25800  1.0000
  H   H250      1.0  0.40901  0.78140  0.29201  1.0000
  H   H251      1.0  0.42394  0.84864  0.26571  1.0000
  H   H252      1.0  0.37236  0.59848  0.32015  1.0000
  H   H253      1.0  0.42553  0.80337  0.34767  1.0000
  C   C162      1.0  0.43488  0.82300  0.33589  1.0000
  H   H254      1.0  0.43599  0.83834  0.35432  1.0000
  H   H255      1.0  0.42496  0.71568  0.21322  1.0000
  H   H256      1.0  0.45555  0.82785  0.33111  1.0000
  C   C163      1.0  0.30912  0.67119  0.18594  1.0000
  H   H257      1.0  0.43912  0.80564  0.27489  1.0000
  C   C164      1.0  0.49584  0.83795  0.27872  1.0000
  H   H258      1.0  0.38156  0.81548  0.28914  1.0000
  C   C165      1.0  0.41906  0.80153  0.28153  1.0000
  H   H259      1.0  0.47753  0.79533  0.27077  1.0000
  C   C166      1.0  0.35474  0.69270  0.17219  1.0000
  H   H260      1.0  0.43882  0.88462  0.47558  1.0000
  H   H261      1.0  0.39313  0.83180  0.32965  1.0000
  C   C167      1.0  0.49215  0.80742  0.32158  1.0000
  H   H262      1.0  0.45468  0.85372  0.28396  1.0000
  N   N16       1.0  0.42028  0.82241  0.30489  1.0000
  H   H263      1.0  0.38225  0.79669  0.32364  1.0000
  C   C168      1.0  0.39311  0.81640  0.31223  1.0000
  C   C169      1.0  0.50530  0.82877  0.34505  1.0000
  H   H264      1.0  0.33410  0.59157  0.35309  1.0000
  H   H265      1.0  0.36755  0.58963  0.27658  1.0000
  H   H266      1.0  0.32189  0.70188  0.13318  1.0000
  C   C170      1.0  0.47039  0.67672  0.12306  1.0000
  H   H267      1.0  0.33806  0.55243  0.33175  1.0000
  H   H268      1.0  0.46746  0.65699  0.20233  1.0000
  S   S67       1.0  0.50860  0.82159  0.38671  1.0000
  H   H269      1.0  0.32453  0.56795  0.09076  1.0000
  H   H270      1.0  0.28225  0.55664  0.21032  1.0000
  H   H271      1.0  0.29937  0.53666  0.04233  1.0000
  H   H272      1.0  0.40259  0.53294  0.02299  1.0000
  N   N17       1.0  0.28221  0.54483  0.08468  1.0000
  H   H273      1.0  0.27782  0.77755  0.47692  1.0000
  H   H274      1.0  0.29752  0.57906  0.05434  1.0000
  H   H275      1.0  0.30980  0.54004  0.11649  1.0000
  H   H276      1.0  0.38972  0.52067  0.38367  1.0000
  C   C171      1.0  0.28257  0.52628  0.05877  1.0000
  H   H277      1.0  0.27786  0.58013  0.08764  1.0000
  Fe  Fe34      1.0  0.38241  0.51907  0.49180  1.0000
  C   C172      1.0  0.28001  0.56673  0.06894  1.0000
  C   C173      1.0  0.44484  0.59911  0.01689  1.0000
  H   H278      1.0  0.46591  0.68339  0.82253  1.0000
  S   S68       1.0  0.50497  0.59542  0.60159  1.0000
  Fe  Fe35      1.0  0.47066  0.60685  0.86026  1.0000
  S   S69       1.0  0.47995  0.62360  0.91312  1.0000
  C   C174      1.0  0.42914  0.57226  0.00692  1.0000
  Fe  Fe36      1.0  0.41356  0.59566  0.86100  1.0000
  S   S70       1.0  0.41744  0.61112  0.91346  1.0000
  S   S71       1.0  0.37610  0.58005  0.82949  1.0000
  H   H279      1.0  0.31637  0.59888  0.81135  1.0000
  Fe  Fe37      1.0  0.44016  0.58932  0.92380  1.0000
  H   H280      1.0  0.47949  0.93827  0.58603  1.0000
  S   S72       1.0  0.45060  0.63002  0.84489  1.0000
  S   S73       1.0  0.43282  0.57077  0.87207  1.0000
  C   C175      1.0  0.34944  0.56040  0.85349  1.0000
  C   C176      1.0  0.34706  0.57012  0.88463  1.0000
  C   C177      1.0  0.32621  0.55400  0.90434  1.0000
  S   S74       1.0  0.27513  0.82928  0.57341  1.0000
  H   H281      1.0  0.36108  0.59020  0.89332  1.0000
  H   H282      1.0  0.32428  0.56167  0.92830  1.0000
  H   H283      1.0  0.45612  0.71641  0.77284  1.0000
  H   H284      1.0  0.48026  0.65649  0.76668  1.0000
  C   C178      1.0  0.33095  0.53457  0.84204  1.0000
  H   H285      1.0  0.33950  0.68732  0.96959  1.0000
  H   H286      1.0  0.39031  0.84369  0.89488  1.0000
  H   H287      1.0  0.44412  0.71326  0.95091  1.0000
  C   C179      1.0  0.47716  0.58687  0.57524  1.0000
  C   C180      1.0  0.46906  0.60561  0.56760  1.0000
  H   H288      1.0  0.35230  0.56659  0.60448  1.0000
  H   H289      1.0  0.48021  0.62592  0.57763  1.0000
  C   C181      1.0  0.34281  0.52776  0.55900  1.0000
  H   H290      1.0  0.33274  0.52709  0.81788  1.0000
  H   H291      1.0  0.38947  0.53293  0.91538  1.0000
  H   H292      1.0  0.48069  0.77962  0.55603  1.0000
  C   C182      1.0  0.41026  0.67833  0.84090  1.0000
  H   H293      1.0  0.32055  0.63976  0.78440  1.0000
  C   C183      1.0  0.32367  0.68108  0.95088  1.0000
  H   H294      1.0  0.35088  0.54750  0.54750  1.0000
  H   H295      1.0  0.46806  0.99287  0.55521  1.0000
  C   C184      1.0  0.46275  0.56066  0.56201  1.0000
  H   H296      1.0  0.45623  0.61342  0.99892  1.0000
  H   H297      1.0  0.44724  0.64809  0.77685  1.0000
  H   H298      1.0  0.45533  0.84591  0.90713  1.0000
  H   H299      1.0  0.30953  0.76552  0.66103  1.0000
  H   H300      1.0  0.37147  0.67965  0.93522  1.0000
  H   H301      1.0  0.41973  0.65210  0.86807  1.0000
  H   H302      1.0  0.38391  0.64768  0.95899  1.0000
  S   S75       1.0  0.31177  0.63003  0.96364  1.0000
  H   H303      1.0  0.46158  0.92506  0.54694  1.0000
  Fe  Fe38      1.0  0.45627  0.64379  0.89837  1.0000
  Fe  Fe39      1.0  0.27774  0.58959  0.94993  1.0000
  H   H304      1.0  0.50490  0.77202  0.60223  1.0000
  H   H305      1.0  0.40299  0.69794  0.91705  1.0000
  H   H306      1.0  0.46904  0.54615  0.56780  1.0000
  H   H307      1.0  0.52246  0.65992  0.83161  1.0000
  H   H308      1.0  0.39099  0.56384  0.58357  1.0000
  H   H309      1.0  0.32858  0.63882  0.88988  1.0000
  C   C185      1.0  0.32632  0.61162  0.83412  1.0000
  C   C186      1.0  0.30611  0.65399  0.94443  1.0000
  S   S76       1.0  0.42817  0.56080  0.96565  1.0000
  N   N18       1.0  0.40505  0.69020  0.96860  1.0000
  H   H310      1.0  0.34783  0.61820  0.83312  1.0000
  H   H311      1.0  0.44739  0.77355  0.01253  1.0000
  H   H312      1.0  0.39435  0.66225  0.82625  1.0000
  H   H313      1.0  0.31895  0.59866  0.85567  1.0000
  H   H314      1.0  0.27553  0.74760  0.70405  1.0000
  H   H315      1.0  0.48315  0.80030  0.61178  1.0000
  H   H316      1.0  0.41467  0.65977  0.98281  1.0000
  H   H317      1.0  0.39823  0.00411  0.55951  1.0000
  H   H318      1.0  0.49861  0.69148  0.81156  1.0000
  H   H319      1.0  0.35254  0.65816  0.80512  1.0000
  C   C187      1.0  0.51232  0.62115  0.76169  1.0000
  H   H320      1.0  0.48889  0.70295  0.72306  1.0000
  C   C188      1.0  0.48203  0.69575  0.80615  1.0000
  H   H321      1.0  0.43373  0.73153  0.97763  1.0000
  H   H322      1.0  0.39159  0.71482  0.94470  1.0000
  H   H323      1.0  0.35824  0.52458  0.89586  1.0000
  C   C189      1.0  0.42489  0.67259  0.86438  1.0000
  C   C190      1.0  0.39071  0.68893  0.99882  1.0000
  C   C191      1.0  0.51131  0.62779  0.79513  1.0000
  C   C192      1.0  0.43271  0.71175  0.97324  1.0000
  H   H324      1.0  0.35281  0.54866  0.64021  1.0000
  C   C193      1.0  0.49489  0.70701  0.74994  1.0000
  H   H325      1.0  0.44374  0.69217  0.73856  1.0000
  H   H326      1.0  0.44314  0.70836  0.99463  1.0000
  H   H327      1.0  0.37166  0.53579  0.96914  1.0000
  H   H328      1.0  0.41102  0.92610  0.56666  1.0000
  S   S77       1.0  0.46606  0.68614  0.90953  1.0000
  C   C194      1.0  0.32112  0.70021  0.93252  1.0000
  N   N19       1.0  0.32122  0.63458  0.83696  1.0000
  C   C195      1.0  0.45063  0.69547  0.76514  1.0000
  H   H329      1.0  0.33960  0.52571  0.95026  1.0000
  Fe  Fe40      1.0  0.31889  0.84961  0.58972  1.0000
  S   S78       1.0  0.34334  0.82954  0.58131  1.0000
  H   H330      1.0  0.42934  0.53294  0.53092  1.0000
  Fe  Fe41      1.0  0.36643  0.90054  0.62155  1.0000
  S   S79       1.0  0.39376  0.88314  0.61614  1.0000
  S   S80       1.0  0.38576  0.94161  0.64816  1.0000
  Fe  Fe42      1.0  0.37427  0.86931  0.56540  1.0000
  C   C196      1.0  0.30330  0.80064  0.69893  1.0000
  Fe  Fe43      1.0  0.36039  0.84526  0.63306  1.0000
  S   S81       1.0  0.36454  0.81547  0.66497  1.0000
  S   S82       1.0  0.34870  0.88879  0.56958  1.0000
  S   S83       1.0  0.33408  0.86323  0.64269  1.0000
  C   C197      1.0  0.33495  0.65089  0.86743  1.0000
  H   H331      1.0  0.44515  0.91385  0.58484  1.0000
  C   C198      1.0  0.47196  0.86805  0.53335  1.0000
  Fe  Fe44      1.0  0.38818  0.74107  0.83442  1.0000
  S   S84       1.0  0.37223  0.72758  0.88395  1.0000
  S   S85       1.0  0.39728  0.71177  0.80798  1.0000
  Fe  Fe45      1.0  0.38517  0.79209  0.84271  1.0000
  S   S86       1.0  0.36909  0.78297  0.89383  1.0000
  S   S87       1.0  0.39260  0.83075  0.82024  1.0000
  Fe  Fe46      1.0  0.39923  0.76938  0.90279  1.0000
  S   S88       1.0  0.42492  0.77367  0.94844  1.0000
  Fe  Fe47      1.0  0.34356  0.74200  0.87102  1.0000
  S   S89       1.0  0.30108  0.71546  0.88058  1.0000
  S   S90       1.0  0.41777  0.78211  0.85364  1.0000
  S   S91       1.0  0.35692  0.75177  0.81937  1.0000
  H   H332      1.0  0.42551  0.83275  0.88144  1.0000
  H   H333      1.0  0.41479  0.66459  0.93916  1.0000
  H   H334      1.0  0.45767  0.65661  0.73534  1.0000
  H   H335      1.0  0.42488  0.82138  0.92277  1.0000
  H   H336      1.0  0.39058  0.70810  0.00414  1.0000
  N   N20       1.0  0.35347  0.53027  0.59338  1.0000
  H   H337      1.0  0.38959  0.53211  0.57786  1.0000
  C   C199      1.0  0.41607  0.70472  0.83669  1.0000
  C   C200      1.0  0.29720  0.77346  0.64929  1.0000
  H   H338      1.0  0.32310  0.53671  0.61433  1.0000
  C   C201      1.0  0.42689  0.94330  0.55442  1.0000
  C   C202      1.0  0.45173  0.71966  0.87881  1.0000
  C   C203      1.0  0.43649  0.72534  0.85607  1.0000
  H   H339      1.0  0.43696  0.90001  0.90755  1.0000
  H   H340      1.0  0.46188  0.87647  0.95534  1.0000
  H   H341      1.0  0.46797  0.73572  0.89313  1.0000
  H   H342      1.0  0.44097  0.74578  0.85304  1.0000
  N   N21       1.0  0.51622  0.81004  0.58126  1.0000
  C   C204      1.0  0.43072  0.86285  0.55417  1.0000
  C   C205      1.0  0.45413  0.86137  0.55877  1.0000
  H   H343      1.0  0.39277  0.79718  0.97133  1.0000
  H   H344      1.0  0.43160  0.85168  0.97122  1.0000
  N   N22       1.0  0.47293  0.68995  0.77080  1.0000
  H   H345      1.0  0.41701  0.85748  0.57384  1.0000
  H   H346      1.0  0.45840  0.85501  0.58211  1.0000
  C   C206      1.0  0.46413  0.66157  0.76201  1.0000
  C   C207      1.0  0.33111  0.65110  0.80777  1.0000
  C   C208      1.0  0.37329  0.82113  0.70784  1.0000
  C   C209      1.0  0.37627  0.80156  0.72468  1.0000
  C   C210      1.0  0.38247  0.80466  0.75893  1.0000
  C   C211      1.0  0.38549  0.82725  0.77687  1.0000
  C   C212      1.0  0.38272  0.84704  0.76003  1.0000
  C   C213      1.0  0.37657  0.84398  0.72555  1.0000
  H   H347      1.0  0.37393  0.78393  0.71113  1.0000
  H   H348      1.0  0.38527  0.78966  0.77132  1.0000
  H   H349      1.0  0.38516  0.86466  0.77367  1.0000
  H   H350      1.0  0.37436  0.85923  0.71275  1.0000
  C   C214      1.0  0.39914  0.97328  0.63034  1.0000
  H   H351      1.0  0.33511  0.72115  0.93696  1.0000
  C   C215      1.0  0.39294  0.97629  0.59751  1.0000
  H   H352      1.0  0.42151  0.99400  0.67529  1.0000
  H   H353      1.0  0.37935  0.95892  0.58231  1.0000
  N   N23       1.0  0.42855  0.86051  0.92027  1.0000
  C   C216      1.0  0.44013  0.86877  0.95449  1.0000
  C   C217      1.0  0.39971  0.85047  0.92035  1.0000
  C   C218      1.0  0.43379  0.83920  0.90735  1.0000
  C   C219      1.0  0.44049  0.88347  0.89866  1.0000
  C   C220      1.0  0.44613  0.69327  0.88269  1.0000
  H   H354      1.0  0.36974  0.67281  0.99612  1.0000
  H   H355      1.0  0.43639  0.88469  0.96524  1.0000
  H   H356      1.0  0.39154  0.54575  0.61910  1.0000
  H   H357      1.0  0.39001  0.83325  0.93661  1.0000
  C   C221      1.0  0.44616  0.59790  0.54730  1.0000
  C   C222      1.0  0.28515  0.64612  0.92090  1.0000
  C   C223      1.0  0.43165  0.57162  0.53424  1.0000
  H   H358      1.0  0.50339  0.60038  0.75337  1.0000
  C   C224      1.0  0.40393  0.79569  0.99235  1.0000
  H   H359      1.0  0.46221  0.89143  0.89766  1.0000
  H   H360      1.0  0.35675  0.65953  0.86648  1.0000
  C   C225      1.0  0.45098  0.96123  0.60695  1.0000
  C   C226      1.0  0.46011  0.93170  0.57261  1.0000
  H   H361      1.0  0.43194  0.87763  0.87268  1.0000
  H   H362      1.0  0.43508  0.94452  0.61995  1.0000
  C   C227      1.0  0.50180  0.81785  0.60489  1.0000
  H   H363      1.0  0.43340  0.68229  0.77967  1.0000
  H   H364      1.0  0.28794  0.64165  0.83983  1.0000
  S   S92       1.0  0.50144  0.86677  0.54062  1.0000
  C   C228      1.0  0.28235  0.66530  0.90289  1.0000
  H   H365      1.0  0.43968  0.61231  0.54176  1.0000
  C   C229      1.0  0.42038  0.78431  0.98803  1.0000
  H   H366      1.0  0.50967  0.79169  0.53225  1.0000
  C   C230      1.0  0.42529  0.87149  0.52432  1.0000
  H   H367      1.0  0.46982  0.96788  0.62171  1.0000
  H   H368      1.0  0.31781  0.81888  0.68692  1.0000
  H   H369      1.0  0.31493  0.79234  0.71172  1.0000
  C   C231      1.0  0.47302  0.97630  0.55575  1.0000
  H   H370      1.0  0.50194  0.72855  0.75577  1.0000
  C   C232      1.0  0.41660  0.99611  0.64985  1.0000
  C   C233      1.0  0.40454  0.66440  0.96216  1.0000
  C   C234      1.0  0.34506  0.54628  0.61407  1.0000
  H   H371      1.0  0.48883  0.71697  0.81377  1.0000
  N   N24       1.0  0.45275  0.95313  0.57245  1.0000
  C   C235      1.0  0.40366  0.00195  0.58467  1.0000
  H   H372      1.0  0.31077  0.79096  0.63524  1.0000
  C   C236      1.0  0.30085  0.69226  0.90799  1.0000
  H   H373      1.0  0.39500  0.86614  0.92949  1.0000
  H   H374      1.0  0.28442  0.61299  0.86079  1.0000
  C   C237      1.0  0.44018  0.55311  0.54128  1.0000
  H   H375      1.0  0.29387  0.80698  0.71826  1.0000
  H   H376      1.0  0.33070  0.66781  0.87099  1.0000
  S   S93       1.0  0.49716  0.60234  0.82356  1.0000
  H   H377      1.0  0.28132  0.61175  0.81642  1.0000
  H   H378      1.0  0.32860  0.66922  0.80985  1.0000
  C   C238      1.0  0.39216  0.69583  0.94010  1.0000
  H   H379      1.0  0.47484  0.97083  0.52963  1.0000
  H   H380      1.0  0.44637  0.97802  0.60771  1.0000
  H   H381      1.0  0.49395  0.81185  0.53869  1.0000
  C   C239      1.0  0.38265  0.54356  0.59364  1.0000
  H   H382      1.0  0.49280  0.98424  0.56872  1.0000
  S   S94       1.0  0.39746  0.87610  0.51945  1.0000
  H   H383      1.0  0.49632  0.83234  0.59398  1.0000
  H   H384      1.0  0.28235  0.78219  0.57966  1.0000
  H   H385      1.0  0.42723  0.93627  0.52853  1.0000
  C   C240      1.0  0.49939  0.79774  0.55074  1.0000
  H   H386      1.0  0.42087  0.95905  0.55333  1.0000
  C   C241      1.0  0.29249  0.62481  0.83852  1.0000
  H   H387      1.0  0.51209  0.70344  0.75374  1.0000
  S   S95       1.0  0.27407  0.56768  0.90173  1.0000
  H   H388      1.0  0.28209  0.81061  0.64360  1.0000
  C   C242      1.0  0.30822  0.52786  0.89337  1.0000
  H   H389      1.0  0.51399  0.82753  0.62806  1.0000
  H   H390      1.0  0.28292  0.75800  0.63101  1.0000
  N   N25       1.0  0.28357  0.78108  0.67435  1.0000
  C   C243      1.0  0.43440  0.78206  0.01567  1.0000
  Fe  Fe48      1.0  0.70553  0.14839  0.43950  1.0000
  S   S96       1.0  0.72846  0.13768  0.47677  1.0000
  S   S97       1.0  0.72204  0.16700  0.39074  1.0000
  H   H391      1.0  0.57933  0.09929  0.39958  1.0000
  C   C244      1.0  0.70238  0.15737  0.22512  1.0000
  H   H392      1.0  0.61396  0.37100  0.05320  1.0000
  Fe  Fe49      1.0  0.68807  0.10463  0.48936  1.0000
  H   H393      1.0  0.74240  0.34601  0.19806  1.0000
  S   S98       1.0  0.70121  0.17647  0.47516  1.0000
  S   S99       1.0  0.66596  0.11362  0.44917  1.0000
  Fe  Fe50      1.0  0.65159  0.18973  0.23750  1.0000
  S   S100      1.0  0.66588  0.19396  0.18550  1.0000
  S   S101      1.0  0.64572  0.15418  0.26709  1.0000
  Fe  Fe51      1.0  0.65214  0.24315  0.23759  1.0000
  S   S102      1.0  0.66719  0.25226  0.18648  1.0000
  S   S103      1.0  0.64912  0.27463  0.26812  1.0000
  Fe  Fe52      1.0  0.63762  0.20953  0.17359  1.0000
  S   S104      1.0  0.60914  0.19813  0.12872  1.0000
  Fe  Fe53      1.0  0.69393  0.23617  0.20291  1.0000
  S   S105      1.0  0.73722  0.25697  0.19309  1.0000
  S   S106      1.0  0.62049  0.20138  0.22429  1.0000
  S   S107      1.0  0.68142  0.23088  0.25525  1.0000
  S   S108      1.0  0.57152  0.30673  0.19466  1.0000
  H   H394      1.0  0.60438  0.15637  0.42919  1.0000
  H   H395      1.0  0.57105  0.37443  0.47459  1.0000
  C   C245      1.0  0.74436  0.29170  0.24538  1.0000
  H   H396      1.0  0.76130  0.45144  0.22936  1.0000
  H   H397      1.0  0.56252  0.32765  0.30248  1.0000
  C   C246      1.0  0.63522  0.21918  0.02206  1.0000
  C   C247      1.0  0.73241  0.19079  0.18933  1.0000
  H   H398      1.0  0.72957  0.27482  0.25739  1.0000
  H   H399      1.0  0.74468  0.23292  0.46820  1.0000
  C   C248      1.0  0.62728  0.28315  0.24789  1.0000
  C   C249      1.0  0.60938  0.26621  0.22286  1.0000
  C   C250      1.0  0.59216  0.27346  0.20656  1.0000
  C   C251      1.0  0.59355  0.29806  0.21444  1.0000
  C   C252      1.0  0.61212  0.31532  0.23871  1.0000
  C   C253      1.0  0.62850  0.30761  0.25601  1.0000
  H   H400      1.0  0.60852  0.24736  0.21629  1.0000
  H   H401      1.0  0.57799  0.26010  0.18760  1.0000
  H   H402      1.0  0.61377  0.33452  0.24450  1.0000
  H   H403      1.0  0.64252  0.32083  0.27516  1.0000
  C   C254      1.0  0.65404  0.22370  0.04779  1.0000
  C   C255      1.0  0.64642  0.21787  0.08070  1.0000
  C   C256      1.0  0.61982  0.20713  0.08806  1.0000
  C   C257      1.0  0.60103  0.20281  0.06237  1.0000
  C   C258      1.0  0.75336  0.23488  0.44345  1.0000
  H   H404      1.0  0.61697  0.11957  0.34312  1.0000
  H   H405      1.0  0.66103  0.22119  0.10024  1.0000
  H   H406      1.0  0.58043  0.19446  0.06790  1.0000
  H   H407      1.0  0.58232  0.40176  0.50468  1.0000
  C   C259      1.0  0.65458  0.03186  0.48603  1.0000
  C   C260      1.0  0.60101  0.11058  0.40528  1.0000
  C   C261      1.0  0.72139  0.33465  0.18898  1.0000
  C   C262      1.0  0.69983  0.16323  0.35758  1.0000
  C   C263      1.0  0.70070  0.18591  0.34396  1.0000
  C   C264      1.0  0.68395  0.18339  0.31655  1.0000
  C   C265      1.0  0.66672  0.15822  0.30197  1.0000
  C   C266      1.0  0.66607  0.13555  0.31543  1.0000
  C   C267      1.0  0.68251  0.13802  0.34318  1.0000
  H   H408      1.0  0.71420  0.20550  0.35479  1.0000
  H   H409      1.0  0.68437  0.20096  0.30689  1.0000
  H   H410      1.0  0.65288  0.11599  0.30424  1.0000
  H   H411      1.0  0.68207  0.12042  0.35316  1.0000
  H   H412      1.0  0.55017  0.31091  0.02835  1.0000
  H   H413      1.0  0.68935  0.46068  0.12851  1.0000
  H   H414      1.0  0.65118  0.13835  0.39115  1.0000
  C   C268      1.0  0.55391  0.30770  0.28943  1.0000
  H   H415      1.0  0.74854  0.31932  0.28533  1.0000
  C   C269      1.0  0.59252  0.35625  0.05171  1.0000
  H   H416      1.0  0.71075  0.47854  0.16388  1.0000
  H   H417      1.0  0.75000  0.16049  0.21933  1.0000
  C   C270      1.0  0.69942  0.48041  0.14224  1.0000
  H   H418      1.0  0.61597  0.44709  0.49050  1.0000
  Fe  Fe54      1.0  0.58454  0.35019  0.20291  1.0000
  C   C271      1.0  0.75265  0.28839  0.21423  1.0000
  H   H419      1.0  0.65184  0.04675  0.43854  1.0000
  H   H420      1.0  0.71504  0.31305  0.19131  1.0000
  N   N26       1.0  0.61323  0.13660  0.38946  1.0000
  H   H421      1.0  0.57969  0.14277  0.39583  1.0000
  H   H422      1.0  0.65175  0.49853  0.13046  1.0000
  H   H423      1.0  0.62419  0.39715  0.43917  1.0000
  H   H424      1.0  0.52771  0.27246  0.23915  1.0000
  S   S109      1.0  0.62768  0.14706  0.48951  1.0000
  N   N27       1.0  0.72814  0.18190  0.22378  1.0000
  H   H425      1.0  0.64581  0.47427  0.18202  1.0000
  H   H426      1.0  0.71415  0.37702  0.17894  1.0000
  H   H427      1.0  0.60364  0.38840  0.49397  1.0000
  H   H428      1.0  0.63020  0.45248  0.45074  1.0000
  C   C272      1.0  0.64492  0.02929  0.45320  1.0000
  H   H429      1.0  0.60410  0.11313  0.43278  1.0000
  H   H430      1.0  0.67457  0.23150  0.04220  1.0000
  H   H431      1.0  0.70140  0.14089  0.20888  1.0000
  H   H432      1.0  0.58216  0.36539  0.06546  1.0000
  C   C273      1.0  0.67711  0.32785  0.19451  1.0000
  H   H433      1.0  0.71219  0.20739  0.23765  1.0000
  C   C274      1.0  0.60870  0.20897  0.02952  1.0000
  H   H434      1.0  0.64615  0.15587  0.42493  1.0000
  H   H435      1.0  0.61033  0.17269  0.39048  1.0000
  C   C275      1.0  0.72827  0.20311  0.24555  1.0000
  H   H436      1.0  0.66420  0.33431  0.20732  1.0000
  H   H437      1.0  0.69261  0.34152  0.25810  1.0000
  H   H438      1.0  0.63789  0.43430  0.48089  1.0000
  H   H439      1.0  0.71400  0.49485  0.12555  1.0000
  H   H440      1.0  0.60967  0.09789  0.39683  1.0000
  H   H441      1.0  0.65216  0.16976  0.38474  1.0000
  H   H442      1.0  0.69649  0.32656  0.01858  1.0000
  N   N28       1.0  0.70472  0.34277  0.20796  1.0000
  C   C276      1.0  0.64194  0.15081  0.39787  1.0000
  Fe  Fe55      1.0  0.66358  0.14109  0.48819  1.0000
  H   H443      1.0  0.58727  0.12203  0.34565  1.0000
  C   C277      1.0  0.60870  0.13220  0.35303  1.0000
  H   H444      1.0  0.68573  0.16080  0.21693  1.0000
  C   C278      1.0  0.71455  0.37172  0.20522  1.0000
  H   H445      1.0  0.61827  0.15135  0.34008  1.0000
  C   C279      1.0  0.60136  0.15283  0.40171  1.0000
  H   H446      1.0  0.67557  0.33084  0.16759  1.0000
  H   H447      1.0  0.66865  0.30602  0.19776  1.0000
  C   C280      1.0  0.53744  0.35780  0.37693  1.0000
  H   H448      1.0  0.71672  0.19528  0.18000  1.0000
  H   H449      1.0  0.72533  0.19732  0.27182  1.0000
  H   H450      1.0  0.57087  0.42645  0.46291  1.0000
  C   C281      1.0  0.75543  0.31695  0.26147  1.0000
  H   H451      1.0  0.72065  0.33829  0.16214  1.0000
  H   H452      1.0  0.76034  0.19111  0.44135  1.0000
  C   C282      1.0  0.55896  0.36292  0.35750  1.0000
  C   C283      1.0  0.63017  0.43814  0.03390  1.0000
  C   C284      1.0  0.54163  0.37965  0.31404  1.0000
  H   H453      1.0  0.74710  0.22220  0.24457  1.0000
  H   H454      1.0  0.66985  0.46471  0.19566  1.0000
  C   C285      1.0  0.74951  0.17641  0.23524  1.0000
  S   S110      1.0  0.59703  0.37156  0.25274  1.0000
  H   H455      1.0  0.73534  0.38359  0.21528  1.0000
  H   H456      1.0  0.70240  0.37856  0.21923  1.0000
  H   H457      1.0  0.54235  0.33779  0.02872  1.0000
  H   H458      1.0  0.76919  0.19457  0.23467  1.0000
  Fe  Fe56      1.0  0.62876  0.40443  0.22553  1.0000
  S   S111      1.0  0.61872  0.38108  0.17692  1.0000
  S   S112      1.0  0.66970  0.42702  0.24910  1.0000
  Fe  Fe57      1.0  0.57188  0.38983  0.23818  1.0000
  H   H459      1.0  0.56652  0.30949  0.26833  1.0000
  C   C286      1.0  0.66045  0.46837  0.17330  1.0000
  H   H460      1.0  0.69963  0.31530  0.24606  1.0000
  Fe  Fe58      1.0  0.59251  0.39920  0.16750  1.0000
  S   S113      1.0  0.58927  0.41431  0.11728  1.0000
  S   S114      1.0  0.55703  0.36610  0.18964  1.0000
  S   S115      1.0  0.60474  0.42487  0.21471  1.0000
  H   H461      1.0  0.57398  0.35814  0.36637  1.0000
  C   C287      1.0  0.69532  0.43082  0.22378  1.0000
  C   C288      1.0  0.69096  0.42576  0.18945  1.0000
  C   C289      1.0  0.71199  0.43004  0.16949  1.0000
  C   C290      1.0  0.73737  0.43919  0.18385  1.0000
  C   C291      1.0  0.74168  0.44388  0.21821  1.0000
  C   C292      1.0  0.72070  0.43985  0.23812  1.0000
  H   H462      1.0  0.67163  0.41924  0.17809  1.0000
  H   H463      1.0  0.70863  0.42641  0.14288  1.0000
  H   H464      1.0  0.73841  0.21837  0.42675  1.0000
  H   H465      1.0  0.72419  0.44397  0.26464  1.0000
  C   C293      1.0  0.56122  0.37412  0.32646  1.0000
  C   C294      1.0  0.65631  0.42745  0.07225  1.0000
  C   C295      1.0  0.63647  0.41967  0.09539  1.0000
  C   C296      1.0  0.61377  0.42189  0.08821  1.0000
  C   C297      1.0  0.61061  0.43092  0.05730  1.0000
  H   H466      1.0  0.57824  0.37860  0.31227  1.0000
  S   S116      1.0  0.54310  0.39176  0.27386  1.0000
  H   H467      1.0  0.63898  0.41238  0.11888  1.0000
  H   H468      1.0  0.59311  0.43270  0.05160  1.0000
  C   C298      1.0  0.65323  0.43676  0.04151  1.0000
  H   H469      1.0  0.73243  0.17535  0.17202  1.0000
  H   H470      1.0  0.58536  0.43217  0.42313  1.0000
  Fe  Fe59      1.0  0.72175  0.16407  0.51321  1.0000
  H   H471      1.0  0.70443  0.51203  0.19546  1.0000
  C   C299      1.0  0.57816  0.41789  0.44341  1.0000
  H   H472      1.0  0.75149  0.20952  0.18756  1.0000
  C   C300      1.0  0.60785  0.40078  0.43020  1.0000
  H   H473      1.0  0.65637  0.47406  0.10752  1.0000
  H   H474      1.0  0.56082  0.39933  0.43297  1.0000
  N   N29       1.0  0.59910  0.41246  0.45693  1.0000
  C   C301      1.0  0.62178  0.43765  0.47027  1.0000
  H   H475      1.0  0.69843  0.15024  0.25082  1.0000
  C   C302      1.0  0.58858  0.39343  0.48372  1.0000
  H   H476      1.0  0.67408  0.42620  0.07813  1.0000
  S   S117      1.0  0.53565  0.34347  0.41556  1.0000
  H   H477      1.0  0.59141  0.38128  0.42052  1.0000
  S   S118      1.0  0.67948  0.06294  0.50401  1.0000
  H   H478      1.0  0.61487  0.41404  0.40886  1.0000
  H   H479      1.0  0.53649  0.31839  0.23192  1.0000
  C   C303      1.0  0.70589  0.33682  0.24321  1.0000
  N   N30       1.0  0.68026  0.48895  0.15289  1.0000
  H   H480      1.0  0.55555  0.29376  0.30685  1.0000
  H   H481      1.0  0.58989  0.33850  0.06529  1.0000
  H   H482      1.0  0.72630  0.34845  0.25450  1.0000
  H   H483      1.0  0.64910  0.44899  0.15904  1.0000
  H   H484      1.0  0.74681  0.16968  0.26120  1.0000
  C   C304      1.0  0.66683  0.49271  0.12336  1.0000
  C   C305      1.0  0.69435  0.51434  0.17278  1.0000
  S   S119      1.0  0.76351  0.44530  0.15838  1.0000
  C   C306      1.0  0.52518  0.31717  0.25424  1.0000
  N   N31       1.0  0.52623  0.29827  0.27774  1.0000
  H   H485      1.0  0.53374  0.33764  0.26578  1.0000
  H   H486      1.0  0.68110  0.50835  0.10755  1.0000
  H   H487      1.0  0.75624  0.25400  0.43352  1.0000
  H   H488      1.0  0.58290  0.15255  0.50777  1.0000
  H   H489      1.0  0.76370  0.20435  0.48273  1.0000
  H   H490      1.0  0.58012  0.46052  0.50735  1.0000
  H   H491      1.0  0.54064  0.41713  0.51642  1.0000
  N   N32       1.0  0.58229  0.34900  0.01686  1.0000
  S   S120      1.0  0.56393  0.12102  0.62091  1.0000
  S   S121      1.0  0.63960  0.51132  0.64016  1.0000
  C   C307      1.0  0.55381  0.32947  0.01596  1.0000
  Fe  Fe60      1.0  0.63215  0.25597  0.87400  1.0000
  S   S122      1.0  0.62616  0.26672  0.92567  1.0000
  S   S123      1.0  0.66528  0.28356  0.84319  1.0000
  Fe  Fe61      1.0  0.58507  0.20062  0.87297  1.0000
  S   S124      1.0  0.57602  0.20566  0.92591  1.0000
  S   S125      1.0  0.56144  0.16297  0.84016  1.0000
  Fe  Fe62      1.0  0.58315  0.24600  0.91046  1.0000
  S   S126      1.0  0.55310  0.25833  0.92504  1.0000
  Fe  Fe63      1.0  0.61990  0.22602  0.93742  1.0000
  S   S127      1.0  0.64570  0.22600  0.98096  1.0000
  S   S128      1.0  0.58965  0.23978  0.85724  1.0000
  S   S129      1.0  0.62823  0.21642  0.88609  1.0000
  C   C308      1.0  0.56031  0.29109  0.91680  1.0000
  C   C309      1.0  0.58523  0.30995  0.90690  1.0000
  C   C310      1.0  0.57107  0.34378  0.90689  1.0000
  H   H492      1.0  0.54089  0.31440  0.57391  1.0000
  C   C311      1.0  0.54605  0.32475  0.91610  1.0000
  C   C312      1.0  0.54077  0.29855  0.92134  1.0000
  H   H493      1.0  0.60039  0.30429  0.90318  1.0000
  H   H494      1.0  0.73091  0.48399  0.71555  1.0000
  H   H495      1.0  0.72828  0.33091  0.00804  1.0000
  H   H496      1.0  0.60897  0.11584  0.60296  1.0000
  H   H497      1.0  0.66240  0.31873  0.97248  1.0000
  H   H498      1.0  0.62776  0.44552  0.01033  1.0000
  C   C313      1.0  0.74695  0.30490  0.88730  1.0000
  C   C314      1.0  0.72467  0.28256  0.89806  1.0000
  C   C315      1.0  0.69955  0.27514  0.88362  1.0000
  C   C316      1.0  0.69670  0.28994  0.85827  1.0000
  C   C317      1.0  0.71922  0.31114  0.84607  1.0000
  C   C318      1.0  0.74429  0.31869  0.86069  1.0000
  H   H499      1.0  0.72663  0.27160  0.91843  1.0000
  H   H500      1.0  0.68235  0.25842  0.89276  1.0000
  H   H501      1.0  0.71715  0.32250  0.82625  1.0000
  H   H502      1.0  0.68183  0.28411  0.94203  1.0000
  H   H503      1.0  0.55029  0.20338  0.81192  1.0000
  C   C319      1.0  0.58155  0.12840  0.58434  1.0000
  C   C320      1.0  0.57428  0.13882  0.55745  1.0000
  H   H504      1.0  0.59373  0.47945  0.81256  1.0000
  H   H505      1.0  0.70673  0.28874  0.97279  1.0000
  H   H506      1.0  0.61001  0.35090  0.89471  1.0000
  H   H507      1.0  0.58949  0.33161  0.97321  1.0000
  H   H508      1.0  0.55770  0.14258  0.55895  1.0000
  H   H509      1.0  0.71781  0.48783  0.65846  1.0000
  H   H510      1.0  0.73928  0.43047  0.92772  1.0000
  N   N33       1.0  0.75558  0.51400  0.68264  1.0000
  C   C321      1.0  0.54148  0.18575  0.79570  1.0000
  C   C322      1.0  0.54469  0.16368  0.80305  1.0000
  H   H511      1.0  0.52662  0.32854  0.64084  1.0000
  C   C323      1.0  0.61762  0.12963  0.55329  1.0000
  C   C324      1.0  0.60330  0.12395  0.58226  1.0000
  C   C325      1.0  0.75197  0.49491  0.70858  1.0000
  H   H512      1.0  0.53086  0.33035  0.91975  1.0000
  N   N34       1.0  0.59069  0.17023  0.70456  1.0000
  C   C326      1.0  0.56971  0.14206  0.70354  1.0000
  C   C327      1.0  0.57985  0.18756  0.71617  1.0000
  C   C328      1.0  0.60060  0.17753  0.67096  1.0000
  C   C329      1.0  0.61258  0.17371  0.72763  1.0000
  H   H513      1.0  0.55248  0.13883  0.68717  1.0000
  H   H514      1.0  0.56239  0.13553  0.72862  1.0000
  H   H515      1.0  0.57690  0.12847  0.69361  1.0000
  H   H516      1.0  0.56239  0.18449  0.70033  1.0000
  H   H517      1.0  0.57331  0.18334  0.74200  1.0000
  H   H518      1.0  0.59481  0.20904  0.71605  1.0000
  H   H519      1.0  0.61657  0.19859  0.67068  1.0000
  H   H520      1.0  0.58452  0.17507  0.65295  1.0000
  H   H521      1.0  0.60856  0.16456  0.66118  1.0000
  H   H522      1.0  0.60570  0.16834  0.75325  1.0000
  H   H523      1.0  0.62875  0.19477  0.72914  1.0000
  H   H524      1.0  0.62116  0.16085  0.71960  1.0000
  H   H525      1.0  0.52532  0.15188  0.89880  1.0000
  C   C330      1.0  0.67803  0.50587  0.79058  1.0000
  S   S130      1.0  0.74963  0.19707  0.55106  1.0000
  C   C331      1.0  0.59667  0.33714  0.99961  1.0000
  H   H526      1.0  0.58803  0.46449  0.87117  1.0000
  C   C332      1.0  0.75216  0.42636  0.94492  1.0000
  C   C333      1.0  0.59068  0.33637  0.90220  1.0000
  C   C334      1.0  0.55659  0.42578  0.53508  1.0000
  N   N35       1.0  0.70117  0.32306  0.96641  1.0000
  H   H527      1.0  0.68623  0.35049  0.95786  1.0000
  S   S131      1.0  0.52906  0.16467  0.63075  1.0000
  C   C335      1.0  0.67956  0.32871  0.95650  1.0000
  C   C336      1.0  0.69088  0.29391  0.96661  1.0000
  H   H528      1.0  0.60088  0.46106  0.78133  1.0000
  C   C337      1.0  0.60345  0.46700  0.80824  1.0000
  C   C338      1.0  0.75596  0.38887  0.85308  1.0000
  H   H529      1.0  0.63416  0.12585  0.55183  1.0000
  H   H530      1.0  0.54553  0.32360  0.98996  1.0000
  H   H531      1.0  0.76662  0.37784  0.85057  1.0000
  H   H532      1.0  0.75430  0.40971  0.93318  1.0000
  H   H533      1.0  0.55245  0.32023  0.63433  1.0000
  H   H534      1.0  0.55544  0.40927  0.83751  1.0000
  C   C339      1.0  0.71198  0.33496  0.99997  1.0000
  H   H535      1.0  0.67531  0.28446  0.98494  1.0000
  H   H536      1.0  0.76412  0.50522  0.73157  1.0000
  C   C340      1.0  0.58861  0.14451  0.52849  1.0000
  H   H537      1.0  0.67233  0.32168  0.93028  1.0000
  H   H538      1.0  0.55942  0.41994  0.79553  1.0000
  H   H539      1.0  0.74497  0.48507  0.64198  1.0000
  H   H540      1.0  0.76206  0.49469  0.53940  1.0000
  S   S132      1.0  0.68330  0.13035  0.52908  1.0000
  H   H541      1.0  0.59799  0.40926  0.83691  1.0000
  H   H542      1.0  0.52752  0.30211  0.66317  1.0000
  H   H543      1.0  0.57826  0.36841  0.97385  1.0000
  H   H544      1.0  0.55343  0.43869  0.82740  1.0000
  C   C341      1.0  0.60573  0.42729  0.82176  1.0000
  H   H545      1.0  0.72002  0.35697  0.00077  1.0000
  C   C342      1.0  0.59785  0.45251  0.86448  1.0000
  H   H546      1.0  0.73025  0.35657  0.94128  1.0000
  S   S133      1.0  0.62886  0.49064  0.54494  1.0000
  H   H547      1.0  0.73891  0.33070  0.94872  1.0000
  S   S134      1.0  0.67243  0.47605  0.69603  1.0000
  H   H548      1.0  0.74135  0.41921  0.96805  1.0000
  Fe  Fe64      1.0  0.65554  0.51169  0.59016  1.0000
  S   S135      1.0  0.68706  0.50279  0.60957  1.0000
  Fe  Fe65      1.0  0.62153  0.40378  0.90964  1.0000
  S   S136      1.0  0.64606  0.39481  0.94537  1.0000
  H   H549      1.0  0.60284  0.42053  0.79514  1.0000
  Fe  Fe66      1.0  0.66757  0.45365  0.88675  1.0000
  S   S137      1.0  0.69699  0.44954  0.92084  1.0000
  S   S138      1.0  0.67607  0.48812  0.85361  1.0000
  Fe  Fe67      1.0  0.67432  0.40628  0.90475  1.0000
  S   S139      1.0  0.69150  0.37918  0.89793  1.0000
  Fe  Fe68      1.0  0.66653  0.43832  0.95945  1.0000
  S   S140      1.0  0.64783  0.41106  0.86726  1.0000
  S   S141      1.0  0.63913  0.44658  0.92734  1.0000
  C   C343      1.0  0.53302  0.14101  0.78131  1.0000
  H   H550      1.0  0.53508  0.12368  0.78698  1.0000
  H   H551      1.0  0.72350  0.35743  0.87654  1.0000
  H   H552      1.0  0.59060  0.43527  0.88095  1.0000
  C   C344      1.0  0.55508  0.41264  0.56433  1.0000
  C   C345      1.0  0.71831  0.39192  0.87238  1.0000
  C   C346      1.0  0.53101  0.31161  0.63877  1.0000
  C   C347      1.0  0.72840  0.41750  0.86006  1.0000
  H   H553      1.0  0.54241  0.27778  0.60429  1.0000
  H   H554      1.0  0.71793  0.42873  0.86328  1.0000
  C   C348      1.0  0.73163  0.37735  0.86776  1.0000
  C   C349      1.0  0.67427  0.48028  0.73976  1.0000
  C   C350      1.0  0.67316  0.45970  0.75903  1.0000
  C   C351      1.0  0.67430  0.46208  0.79391  1.0000
  C   C352      1.0  0.67651  0.48510  0.80986  1.0000
  H   H555      1.0  0.74064  0.51333  0.63317  1.0000
  C   C353      1.0  0.67686  0.50348  0.75565  1.0000
  H   H556      1.0  0.67132  0.44175  0.74693  1.0000
  H   H557      1.0  0.67345  0.44607  0.80839  1.0000
  H   H558      1.0  0.53504  0.19061  0.86621  1.0000
  C   C354      1.0  0.56395  0.42714  0.82203  1.0000
  S   S142      1.0  0.57794  0.37705  0.90344  1.0000
  C   C355      1.0  0.57566  0.42436  0.58869  1.0000
  C   C356      1.0  0.59820  0.44868  0.58329  1.0000
  C   C357      1.0  0.60000  0.46150  0.55369  1.0000
  H   H559      1.0  0.62736  0.43900  0.82734  1.0000
  H   H560      1.0  0.57452  0.41435  0.61146  1.0000
  H   H561      1.0  0.61441  0.45722  0.60173  1.0000
  H   H562      1.0  0.62502  0.48003  0.81380  1.0000
  H   H563      1.0  0.52359  0.20196  0.76228  1.0000
  H   H564      1.0  0.61942  0.46531  0.87042  1.0000
  H   H565      1.0  0.76145  0.33550  0.85177  1.0000
  H   H566      1.0  0.71450  0.32598  0.91701  1.0000
  Fe  Fe69      1.0  0.52722  0.12537  0.61899  1.0000
  N   N36       1.0  0.59271  0.44350  0.82909  1.0000
  S   S143      1.0  0.67898  0.44792  0.01379  1.0000
  H   H567      1.0  0.61823  0.35133  0.99973  1.0000
  H   H568      1.0  0.76148  0.44931  0.83704  1.0000
  C   C358      1.0  0.57895  0.45026  0.52990  1.0000
  C   C359      1.0  0.76705  0.41497  0.84285  1.0000
  C   C360      1.0  0.72224  0.33465  0.94246  1.0000
  C   C361      1.0  0.75290  0.42907  0.84510  1.0000
  C   C362      1.0  0.61029  0.13990  0.52632  1.0000
  C   C363      1.0  0.52633  0.18494  0.76740  1.0000
  S   S144      1.0  0.52785  0.38138  0.57061  1.0000
  H   H569      1.0  0.60747  0.38810  0.99959  1.0000
  H   H570      1.0  0.57602  0.38299  0.01273  1.0000
  C   C364      1.0  0.58615  0.37318  0.00004  1.0000
  C   C365      1.0  0.73903  0.49938  0.65275  1.0000
  Fe  Fe70      1.0  0.67381  0.50680  0.66034  1.0000
  H   H571      1.0  0.75756  0.47974  0.69999  1.0000
  H   H572      1.0  0.52458  0.20538  0.89783  1.0000
  H   H573      1.0  0.73816  0.51438  0.56939  1.0000
  H   H574      1.0  0.59400  0.31866  0.01135  1.0000
  H   H575      1.0  0.59403  0.20535  0.00993  1.0000
  H   H576      1.0  0.76221  0.47738  0.94733  1.0000
  H   H577      1.0  0.76333  0.46686  0.98856  1.0000
  H   H578      1.0  0.66782  0.89895  0.47182  1.0000
  H   H579      1.0  0.65990  0.92312  0.40754  1.0000
  Fe  Fe71      1.0  0.57276  0.90750  0.45611  1.0000
  H   H580      1.0  0.54647  0.79366  0.49443  1.0000
  H   H581      1.0  0.62662  0.89855  0.48665  1.0000
  Fe  Fe72      1.0  0.57107  0.85751  0.48608  1.0000
  C   C366      1.0  0.62713  0.98346  0.49046  1.0000
  H   H582      1.0  0.62040  0.96600  0.50508  1.0000
  N   N37       1.0  0.65752  0.92929  0.45990  1.0000
  C   C367      1.0  0.64513  0.91677  0.42705  1.0000
  S   S145      1.0  0.57671  0.87279  0.43440  1.0000
  H   H583      1.0  0.62189  0.92664  0.47806  1.0000
  H   H584      1.0  0.68685  0.96603  0.44058  1.0000
  S   S146      1.0  0.59812  0.94912  0.43656  1.0000
  C   C368      1.0  0.61812  0.98081  0.45727  1.0000
  C   C369      1.0  0.62710  0.00389  0.43883  1.0000
  Fe  Fe73      1.0  0.53237  0.85182  0.42855  1.0000
  H   H585      1.0  0.62981  0.92234  0.41915  1.0000
  C   C370      1.0  0.64555  0.00878  0.50454  1.0000
  H   H586      1.0  0.65631  0.96528  0.44913  1.0000
  H   H587      1.0  0.69286  0.92681  0.45137  1.0000
  C   C371      1.0  0.67054  0.95864  0.45808  1.0000
  H   H588      1.0  0.70970  0.53028  0.15831  1.0000
  S   S147      1.0  0.52840  0.88716  0.44690  1.0000
  H   H589      1.0  0.68710  0.93032  0.49434  1.0000
  H   H590      1.0  0.67883  0.96888  0.48279  1.0000
  C   C372      1.0  0.67725  0.92101  0.46977  1.0000
  C   C373      1.0  0.63703  0.92065  0.48473  1.0000
  H   H591      1.0  0.63523  0.89460  0.42740  1.0000
  H   H592      1.0  0.62043  0.00208  0.41310  1.0000
  H   H593      1.0  0.52435  0.87144  0.35296  1.0000
  S   S148      1.0  0.57090  0.89398  0.50824  1.0000
  H   H594      1.0  0.56983  0.56957  0.51390  1.0000
  H   H595      1.0  0.64553  0.92970  0.50986  1.0000
  Fe  Fe74      1.0  0.52704  0.87121  0.49756  1.0000
  S   S149      1.0  0.59592  0.84198  0.51304  1.0000
  H   H596      1.0  0.76660  0.54354  0.44432  1.0000
  S   S150      1.0  0.52722  0.83415  0.47878  1.0000
  H   H597      1.0  0.68050  0.52147  0.18106  1.0000
  C   C374      1.0  0.55700  0.78884  0.51327  1.0000
  H   H598      1.0  0.54405  0.59396  0.50879  1.0000
  H   H599      1.0  0.52674  0.74768  0.51447  1.0000
  H   H600      1.0  0.59315  0.61920  0.51654  1.0000
  C   C375      1.0  0.61913  0.69258  0.76334  1.0000
  S   S151      1.0  0.68209  0.55614  0.59084  1.0000
  S   S152      1.0  0.70092  0.55085  0.66636  1.0000
  Fe  Fe75      1.0  0.66768  0.55555  0.64222  1.0000
  S   S153      1.0  0.65011  0.57989  0.66588  1.0000
  Fe  Fe76      1.0  0.71278  0.54706  0.61442  1.0000
  H   H601      1.0  0.54555  0.57708  0.59637  1.0000
  Fe  Fe77      1.0  0.59022  0.67383  0.61891  1.0000
  S   S154      1.0  0.56126  0.64704  0.65429  1.0000
  H   H602      1.0  0.57611  0.65376  0.72983  1.0000
  C   C376      1.0  0.58178  0.80850  0.52592  1.0000
  C   C377      1.0  0.54307  0.59387  0.53626  1.0000
  H   H603      1.0  0.60872  0.61955  0.55597  1.0000
  H   H604      1.0  0.63772  0.71200  0.76479  1.0000
  H   H605      1.0  0.53662  0.84924  0.56197  1.0000
  C   C378      1.0  0.64260  0.60342  0.64742  1.0000
  C   C379      1.0  0.65650  0.61857  0.62103  1.0000
  C   C380      1.0  0.65145  0.63883  0.60935  1.0000
  C   C381      1.0  0.63201  0.64363  0.62329  1.0000
  C   C382      1.0  0.61753  0.62784  0.64885  1.0000
  C   C383      1.0  0.62307  0.60817  0.66117  1.0000
  H   H606      1.0  0.67178  0.61534  0.61044  1.0000
  H   H607      1.0  0.66286  0.65097  0.58961  1.0000
  H   H608      1.0  0.60216  0.63084  0.65925  1.0000
  H   H609      1.0  0.61218  0.59649  0.68152  1.0000
  H   H610      1.0  0.66006  0.68833  0.73934  1.0000
  C   C384      1.0  0.59322  0.65016  0.73389  1.0000
  C   C385      1.0  0.53708  0.66807  0.74981  1.0000
  H   H611      1.0  0.75946  0.54473  0.71784  1.0000
  C   C386      1.0  0.59066  0.61847  0.54378  1.0000
  Fe  Fe78      1.0  0.55592  0.68208  0.66882  1.0000
  H   H612      1.0  0.61459  0.81655  0.55978  1.0000
  H   H613      1.0  0.52445  0.57598  0.54260  1.0000
  S   S155      1.0  0.55464  0.69372  0.72255  1.0000
  H   H614      1.0  0.67982  0.52379  0.80271  1.0000
  S   S156      1.0  0.56014  0.66429  0.57706  1.0000
  C   C387      1.0  0.64071  0.66968  0.73832  1.0000
  H   H615      1.0  0.52506  0.63583  0.71315  1.0000
  N   N38       1.0  0.61842  0.67544  0.73484  1.0000
  H   H616      1.0  0.64075  0.65698  0.71690  1.0000
  S   S157      1.0  0.62673  0.66979  0.60864  1.0000
  C   C388      1.0  0.62049  0.68938  0.70382  1.0000
  S   S158      1.0  0.75693  0.56628  0.60461  1.0000
  C   C389      1.0  0.53611  0.67473  0.78326  1.0000
  C   C390      1.0  0.54079  0.83395  0.57292  1.0000
  H   H617      1.0  0.56432  0.61270  0.59844  1.0000
  H   H618      1.0  0.60403  0.69415  0.70052  1.0000
  H   H619      1.0  0.61990  0.67711  0.68164  1.0000
  H   H620      1.0  0.58095  0.59316  0.60185  1.0000
  H   H621      1.0  0.63930  0.70852  0.70364  1.0000
  H   H622      1.0  0.60233  0.69703  0.76131  1.0000
  H   H623      1.0  0.59219  0.63619  0.71355  1.0000
  H   H624      1.0  0.55432  0.84344  0.59513  1.0000
  H   H625      1.0  0.55173  0.82894  0.55439  1.0000
  H   H626      1.0  0.54109  0.61152  0.54446  1.0000
  H   H627      1.0  0.63965  0.65891  0.76129  1.0000
  H   H628      1.0  0.59013  0.63693  0.55200  1.0000
  H   H629      1.0  0.53434  0.78489  0.57942  1.0000
  Fe  Fe79      1.0  0.53099  0.63920  0.61355  1.0000
  H   H630      1.0  0.59038  0.63972  0.75754  1.0000
  H   H631      1.0  0.58577  0.57007  0.55305  1.0000
  S   S159      1.0  0.58778  0.71046  0.63653  1.0000
  S   S160      1.0  0.54332  0.72270  0.56304  1.0000
  Fe  Fe80      1.0  0.55471  0.69830  0.59761  1.0000
  H   H632      1.0  0.59479  0.77035  0.57988  1.0000
  C   C391      1.0  0.56427  0.59426  0.58889  1.0000
  C   C392      1.0  0.59538  0.80156  0.54986  1.0000
  C   C393      1.0  0.58421  0.77535  0.56130  1.0000
  C   C394      1.0  0.55932  0.75575  0.54873  1.0000
  H   H633      1.0  0.54582  0.69546  0.79191  1.0000
  H   H634      1.0  0.61759  0.68277  0.78725  1.0000
  H   H635      1.0  0.72643  0.52333  0.70148  1.0000
  N   N39       1.0  0.56653  0.59424  0.55252  1.0000
  C   C395      1.0  0.52469  0.64122  0.73894  1.0000
  C   C396      1.0  0.75931  0.52587  0.56733  1.0000
  H   H636      1.0  0.75024  0.54829  0.67617  1.0000
  S   S161      1.0  0.52268  0.67181  0.63126  1.0000
  C   C397      1.0  0.74759  0.53345  0.69509  1.0000
  C   C398      1.0  0.56818  0.57032  0.54127  1.0000
  C   C399      1.0  0.54590  0.76269  0.52457  1.0000
  C   C400      1.0  0.52293  0.79067  0.59641  1.0000
  H   H637      1.0  0.65289  0.01055  0.52995  1.0000
  H   H638      1.0  0.55036  0.55171  0.54778  1.0000
  H   H639      1.0  0.53531  0.79912  0.61974  1.0000
  H   H640      1.0  0.67778  0.51950  0.74107  1.0000
  C   C401      1.0  0.52288  0.65467  0.80576  1.0000
  N   N40       1.0  0.77846  0.23388  0.44589  1.0000
  H   H641      1.0  0.80193  0.27565  0.45981  1.0000
  Fe  Fe81      1.0  0.80412  0.40219  0.22769  1.0000
  H   H642      1.0  0.92740  0.48756  0.20300  1.0000
  C   C402      1.0  0.85196  0.40623  0.02235  1.0000
  H   H643      1.0  0.82814  0.51597  0.32042  1.0000
  H   H644      1.0  0.83882  0.42139  0.40223  1.0000
  C   C403      1.0  0.79748  0.25576  0.46878  1.0000
  H   H645      1.0  0.81652  0.25538  0.47181  1.0000
  H   H646      1.0  0.95963  0.48626  0.16416  1.0000
  N   N41       1.0  0.91829  0.47155  0.15246  1.0000
  S   S162      1.0  0.84910  0.49851  0.45802  1.0000
  H   H647      1.0  0.88008  0.46072  0.13030  1.0000
  Fe  Fe82      1.0  0.84716  0.45893  0.22245  1.0000
  S   S163      1.0  0.83738  0.46017  0.16826  1.0000
  S   S164      1.0  0.88237  0.48987  0.25324  1.0000
  H   H648      1.0  0.87515  0.45965  0.33061  1.0000
  Fe  Fe83      1.0  0.83287  0.41901  0.16334  1.0000
  S   S165      1.0  0.84820  0.40309  0.12248  1.0000
  S   S166      1.0  0.80533  0.44137  0.23772  1.0000
  S   S167      1.0  0.84658  0.41960  0.21621  1.0000
  S   S168      1.0  0.88946  0.45998  0.47069  1.0000
  H   H649      1.0  0.93113  0.50717  0.50340  1.0000
  C   C404      1.0  0.85123  0.39831  0.05520  1.0000
  C   C405      1.0  0.84655  0.41199  0.08127  1.0000
  C   C406      1.0  0.84230  0.43349  0.07430  1.0000
  C   C407      1.0  0.84389  0.44194  0.04165  1.0000
  H   H650      1.0  0.85452  0.38166  0.06044  1.0000
  H   H651      1.0  0.83842  0.44402  0.09411  1.0000
  H   H652      1.0  0.82468  0.46239  0.34330  1.0000
  C   C408      1.0  0.91077  0.44413  0.16207  1.0000
  C   C409      1.0  0.85557  0.44207  0.32396  1.0000
  C   C410      1.0  0.91501  0.48648  0.18074  1.0000
  C   C411      1.0  0.83389  0.45637  0.36362  1.0000
  H   H653      1.0  0.87055  0.44473  0.38847  1.0000
  H   H654      1.0  0.78982  0.51785  0.45819  1.0000
  H   H655      1.0  0.94917  0.47417  0.12185  1.0000
  H   H656      1.0  0.80821  0.23584  0.41363  1.0000
  H   H657      1.0  0.79338  0.25604  0.40213  1.0000
  H   H658      1.0  0.90635  0.49072  0.11556  1.0000
  H   H659      1.0  0.79869  0.35302  0.20375  1.0000
  H   H660      1.0  0.89419  0.47677  0.18832  1.0000
  H   H661      1.0  0.79913  0.40389  0.36318  1.0000
  C   C412      1.0  0.78363  0.33592  0.21552  1.0000
  S   S169      1.0  0.78576  0.37095  0.26497  1.0000
  N   N42       1.0  0.83835  0.43409  0.35254  1.0000
  H   H662      1.0  0.84149  0.45915  0.03660  1.0000
  H   H663      1.0  0.85279  0.47427  0.37192  1.0000
  H   H664      1.0  0.82073  0.45099  0.38492  1.0000
  H   H665      1.0  0.85909  0.42563  0.31462  1.0000
  H   H666      1.0  0.85494  0.41063  0.37277  1.0000
  C   C413      1.0  0.81275  0.41062  0.34237  1.0000
  Fe  Fe84      1.0  0.88568  0.49746  0.47458  1.0000
  Fe  Fe85      1.0  0.79515  0.43883  0.18310  1.0000
  C   C414      1.0  0.85120  0.42735  0.38014  1.0000
  C   C415      1.0  0.88814  0.44538  0.50893  1.0000
  H   H667      1.0  0.79215  0.20698  0.46250  1.0000
  H   H668      1.0  0.80262  0.41509  0.32149  1.0000
  S   S170      1.0  0.79001  0.39774  0.17454  1.0000
  H   H669      1.0  0.90241  0.45864  0.10230  1.0000
  H   H670      1.0  0.90183  0.41887  0.48982  1.0000
  C   C416      1.0  0.77351  0.20801  0.45870  1.0000
  H   H671      1.0  0.81535  0.39345  0.33351  1.0000
  H   H672      1.0  0.84657  0.44755  0.30281  1.0000
  C   C417      1.0  0.90115  0.47047  0.12388  1.0000
  H   H673      1.0  0.78959  0.25419  0.49397  1.0000
  C   C418      1.0  0.85163  0.50431  0.29066  1.0000
  C   C419      1.0  0.89396  0.51380  0.31574  1.0000
  C   C420      1.0  0.78937  0.23674  0.41267  1.0000
  H   H674      1.0  0.89012  0.43370  0.17021  1.0000
  H   H675      1.0  0.92032  0.50725  0.17454  1.0000
  C   C421      1.0  0.94614  0.48504  0.14312  1.0000
  H   H676      1.0  0.83742  0.49694  0.26981  1.0000
  H   H677      1.0  0.92372  0.44404  0.18295  1.0000
  C   C422      1.0  0.87548  0.50371  0.28873  1.0000
  H   H678      1.0  0.77530  0.22042  0.39496  1.0000
  H   H679      1.0  0.95534  0.50770  0.47636  1.0000
  H   H680      1.0  0.91171  0.43179  0.14087  1.0000
  C   C423      1.0  0.84646  0.51521  0.31929  1.0000
  H   H681      1.0  0.91252  0.51355  0.31434  1.0000
  H   H682      1.0  0.77932  0.30808  0.17555  1.0000
  H   H683      1.0  0.95240  0.50577  0.13566  1.0000
  C   C424      1.0  0.89567  0.42551  0.51153  1.0000
  C   C425      1.0  0.77468  0.33916  0.24630  1.0000
  H   H684      1.0  0.96425  0.48013  0.51514  1.0000
  C   C426      1.0  0.77273  0.31048  0.19960  1.0000
  C   C427      1.0  0.95246  0.51805  0.49828  1.0000
  H   H685      1.0  0.83184  0.31688  0.76423  1.0000
  S   S171      1.0  0.91124  0.31952  0.64023  1.0000
  H   H686      1.0  0.82628  0.22725  0.60840  1.0000
  Fe  Fe86      1.0  0.88954  0.32123  0.59358  1.0000
  S   S172      1.0  0.87145  0.28544  0.55641  1.0000
  H   H687      1.0  0.81507  0.31983  0.86117  1.0000
  S   S173      1.0  0.77756  0.31670  0.90898  1.0000
  H   H688      1.0  0.84905  0.25761  0.70871  1.0000
  C   C428      1.0  0.79163  0.24651  0.56702  1.0000
  H   H689      1.0  0.79329  0.49074  0.97060  1.0000
  C   C429      1.0  0.83731  0.26161  0.55342  1.0000
  C   C430      1.0  0.81838  0.26637  0.56846  1.0000
  N   N43       1.0  0.83486  0.29886  0.87954  1.0000
  S   S174      1.0  0.86353  0.33383  0.62004  1.0000
  H   H690      1.0  0.82430  0.28533  0.58129  1.0000
  H   H691      1.0  0.79484  0.20703  0.65227  1.0000
  C   C431      1.0  0.85180  0.33292  0.76911  1.0000
  H   H692      1.0  0.83918  0.27119  0.84669  1.0000
  H   H693      1.0  0.83840  0.27945  0.64452  1.0000
  C   C432      1.0  0.81181  0.21626  0.67091  1.0000
  C   C433      1.0  0.84260  0.23632  0.62785  1.0000
  C   C434      1.0  0.87123  0.33717  0.74647  1.0000
  H   H694      1.0  0.87688  0.32104  0.89048  1.0000
  C   C435      1.0  0.89691  0.35812  0.75275  1.0000
  H   H695      1.0  0.82897  0.31989  0.92048  1.0000
  S   S175      1.0  0.86271  0.31625  0.71038  1.0000
  H   H696      1.0  0.81676  0.26580  0.67786  1.0000
  H   H697      1.0  0.80412  0.21953  0.69457  1.0000
  H   H698      1.0  0.85081  0.22242  0.63082  1.0000
  N   N44       1.0  0.83320  0.24154  0.65943  1.0000
  H   H699      1.0  0.79491  0.44206  0.90878  1.0000
  C   C436      1.0  0.82301  0.26050  0.65426  1.0000
  H   H700      1.0  0.81476  0.25602  0.87716  1.0000
  C   C437      1.0  0.81493  0.30044  0.85728  1.0000
  C   C438      1.0  0.83453  0.27318  0.87286  1.0000
  H   H701      1.0  0.80569  0.25210  0.63625  1.0000
  H   H702      1.0  0.87168  0.27236  0.67668  1.0000
  C   C439      1.0  0.77409  0.47233  0.96512  1.0000
  C   C440      1.0  0.85535  0.25315  0.68462  1.0000
  H   H703      1.0  0.85845  0.25507  0.61811  1.0000
  H   H704      1.0  0.86214  0.34083  0.87754  1.0000
  C   C441      1.0  0.86136  0.32112  0.87356  1.0000
  H   H705      1.0  0.81410  0.46184  0.98054  1.0000
  Fe  Fe87      1.0  0.88674  0.33460  0.66586  1.0000
  H   H706      1.0  0.86370  0.23952  0.68915  1.0000
  C   C442      1.0  0.82856  0.30062  0.91446  1.0000
  H   H707      1.0  0.80834  0.28464  0.91962  1.0000
  S   S176      1.0  0.92062  0.36356  0.58337  1.0000
  H   H708      1.0  0.84934  0.27130  0.88924  1.0000
  H   H709      1.0  0.84287  0.29906  0.93207  1.0000
  H   H710      1.0  0.79453  0.28459  0.86198  1.0000
  C   C443      1.0  0.79204  0.45835  0.92021  1.0000
  H   H711      1.0  0.79637  0.19771  0.52299  1.0000
  Fe  Fe88      1.0  0.80654  0.35884  0.89721  1.0000
  C   C444      1.0  0.78337  0.22174  0.55027  1.0000
  S   S177      1.0  0.81798  0.37219  0.84562  1.0000
  C   C445      1.0  0.89412  0.41771  0.70728  1.0000
  S   S178      1.0  0.88646  0.40943  0.60931  1.0000
  H   H712      1.0  0.79696  0.42758  0.96653  1.0000
  H   H713      1.0  0.81200  0.47602  0.92427  1.0000
  S   S179      1.0  0.91661  0.37724  0.66195  1.0000
  Fe  Fe89      1.0  0.85919  0.39249  0.86823  1.0000
  C   C446      1.0  0.88368  0.37036  0.80439  1.0000
  H   H714      1.0  0.86644  0.44410  0.70133  1.0000
  Fe  Fe90      1.0  0.81718  0.40935  0.86257  1.0000
  S   S180      1.0  0.80124  0.39380  0.91205  1.0000
  H   H715      1.0  0.97396  0.49130  0.55792  1.0000
  Fe  Fe91      1.0  0.84364  0.41334  0.93007  1.0000
  S   S181      1.0  0.85252  0.44083  0.97548  1.0000
  H   H716      1.0  0.85795  0.38029  0.66431  1.0000
  S   S182      1.0  0.85933  0.43103  0.88121  1.0000
  H   H717      1.0  0.78077  0.46335  0.90148  1.0000
  C   C447      1.0  0.87982  0.44263  0.56766  1.0000
  S   S183      1.0  0.84800  0.37692  0.91929  1.0000
  S   S184      1.0  0.89207  0.39106  0.84075  1.0000
  C   C448      1.0  0.96172  0.49149  0.53626  1.0000
  H   H718      1.0  0.00053  0.36308  0.59981  1.0000
  S   S185      1.0  0.80022  0.43076  0.83310  1.0000
  H   H719      1.0  0.83043  0.36996  0.69052  1.0000
  Fe  Fe92      1.0  0.89575  0.37556  0.61376  1.0000
  H   H720      1.0  0.83531  0.41556  0.68893  1.0000
  H   H721      1.0  0.84281  0.34636  0.81480  1.0000
  H   H722      1.0  0.86612  0.42401  0.75547  1.0000
  S   S186      1.0  0.98327  0.38852  0.65079  1.0000
  C   C449      1.0  0.80227  0.21698  0.53503  1.0000
  C   C450      1.0  0.85234  0.37943  0.69059  1.0000
  C   C451      1.0  0.85793  0.34967  0.79773  1.0000
  C   C452      1.0  0.90318  0.37446  0.78186  1.0000
  C   C453      1.0  0.89523  0.41419  0.54221  1.0000
  C   C454      1.0  0.88728  0.42278  0.57033  1.0000
  H   H723      1.0  0.87344  0.44919  0.58925  1.0000
  H   H724      1.0  0.84357  0.23290  0.52493  1.0000
  H   H725      1.0  0.86266  0.39122  0.75607  1.0000
  H   H726      1.0  0.90095  0.39882  0.54409  1.0000
  H   H727      1.0  0.92319  0.39036  0.78688  1.0000
  N   N45       1.0  0.86509  0.40624  0.70735  1.0000
  H   H728      1.0  0.77720  0.25038  0.57898  1.0000
  H   H729      1.0  0.87355  0.46846  0.53518  1.0000
  H   H730      1.0  0.90443  0.43782  0.72004  1.0000
  C   C455      1.0  0.85711  0.42366  0.68947  1.0000
  H   H731      1.0  0.91211  0.36142  0.73555  1.0000
  H   H732      1.0  0.83502  0.39550  0.74310  1.0000
  C   C456      1.0  0.85683  0.40417  0.74197  1.0000
  H   H733      1.0  0.90081  0.40487  0.72017  1.0000
  H   H734      1.0  0.86308  0.42558  0.66322  1.0000
  H   H735      1.0  0.85830  0.36590  0.70297  1.0000
  C   C457      1.0  0.82905  0.23690  0.53639  1.0000
  Fe  Fe93      1.0  0.94015  0.36282  0.63239  1.0000
  H   H736      1.0  0.90104  0.41980  0.68149  1.0000
  C   C458      1.0  0.88012  0.45378  0.53705  1.0000
  H   H737      1.0  0.85588  0.39578  0.00246  1.0000
  H   H738      1.0  0.86704  0.32019  0.84763  1.0000
  H   H739      1.0  0.81857  0.29847  0.83071  1.0000
  H   H740      1.0  0.81878  0.20146  0.67510  1.0000
  C   C459      1.0  0.79404  0.44443  0.97573  1.0000
  H   H741      1.0  0.78453  0.43894  0.99996  1.0000
  N   N46       1.0  0.77810  0.45037  0.95150  1.0000
  H   H742      1.0  0.94063  0.48023  0.54281  1.0000
  C   C460      1.0  0.01765  0.37746  0.61461  1.0000
  C   C461      1.0  0.01445  0.39195  0.64087  1.0000
  S   S187      1.0  0.81608  0.51418  0.52433  1.0000
  C   C462      1.0  0.77294  0.51477  0.55024  1.0000
  H   H743      1.0  0.79032  0.51433  0.66425  1.0000
  C   C463      1.0  0.84878  0.42840  0.01561  1.0000
  C   C464      1.0  0.01613  0.59851  0.45366  1.0000
  Fe  Fe94      1.0  0.87567  0.53493  0.43154  1.0000
  S   S188      1.0  0.88166  0.56328  0.47478  1.0000
  S   S189      1.0  0.85701  0.53722  0.38262  1.0000
  Fe  Fe95      1.0  0.91623  0.55674  0.48972  1.0000
  H   H744      1.0  0.83232  0.57050  0.48752  1.0000
  H   H745      1.0  0.80177  0.52171  0.41667  1.0000
  H   H746      1.0  0.82433  0.53197  0.45199  1.0000
  C   C465      1.0  0.80582  0.53120  0.44212  1.0000
  C   C466      1.0  0.86469  0.52478  0.34657  1.0000
  C   C467      1.0  0.98778  0.59631  0.49831  1.0000
  C   C468      1.0  0.99071  0.59022  0.46544  1.0000
  H   H747      1.0  0.82648  0.56662  0.39475  1.0000
  C   C469      1.0  0.83011  0.57512  0.42072  1.0000
  H   H748      1.0  0.97347  0.57977  0.44879  1.0000
  H   H749      1.0  0.01817  0.59430  0.42794  1.0000
  H   H750      1.0  0.81728  0.59070  0.47713  1.0000
  H   H751      1.0  0.79775  0.55810  0.49259  1.0000
  H   H752      1.0  0.90270  0.53148  0.36560  1.0000
  Fe  Fe96      1.0  0.85622  0.52642  0.50215  1.0000
  N   N47       1.0  0.80840  0.55817  0.44198  1.0000
  H   H753      1.0  0.83274  0.59566  0.41997  1.0000
  C   C470      1.0  0.78339  0.55631  0.42887  1.0000
  H   H754      1.0  0.84926  0.57681  0.42977  1.0000
  S   S190      1.0  0.91209  0.53157  0.44392  1.0000
  C   C471      1.0  0.88841  0.52390  0.34481  1.0000
  C   C472      1.0  0.81422  0.56996  0.47624  1.0000
  H   H755      1.0  0.78459  0.57632  0.42860  1.0000
  H   H756      1.0  0.95712  0.53843  0.49109  1.0000
  H   H757      1.0  0.00136  0.52371  0.49828  1.0000
  H   H758      1.0  0.77845  0.54751  0.40302  1.0000
  H   H759      1.0  0.00290  0.55437  0.51243  1.0000
  S   S191      1.0  0.95614  0.58689  0.51408  1.0000
  H   H760      1.0  0.83534  0.56688  0.55869  1.0000
  H   H761      1.0  0.00859  0.61511  0.54486  1.0000
  C   C473      1.0  0.78359  0.52833  0.67395  1.0000
  H   H762      1.0  0.81143  0.58643  0.58935  1.0000
  C   C474      1.0  0.99710  0.53361  0.51954  1.0000
  C   C475      1.0  0.80057  0.56640  0.57834  1.0000
  C   C476      1.0  0.81420  0.55537  0.56095  1.0000
  H   H763      1.0  0.79673  0.53979  0.69582  1.0000
  C   C477      1.0  0.80042  0.52940  0.54687  1.0000
  H   H764      1.0  0.94294  0.52321  0.56140  1.0000
  H   H765      1.0  0.97566  0.53330  0.57860  1.0000
  C   C478      1.0  0.96424  0.53293  0.55575  1.0000
  H   H766      1.0  0.97027  0.55403  0.55038  1.0000
  S   S192      1.0  0.89113  0.52218  0.52116  1.0000
  H   H767      1.0  0.78665  0.54280  0.65430  1.0000
  H   H768      1.0  0.01025  0.53516  0.54111  1.0000
  C   C479      1.0  0.77307  0.55174  0.58167  1.0000
  C   C480      1.0  0.01058  0.61017  0.51941  1.0000
  N   N48       1.0  0.96893  0.51902  0.52749  1.0000
