data_image0
_chemical_formula_structural       FeS2FeS2FeHFeHS2H2NHNFeS2C3HS2CSHCH3NHC2H2CH4C2H3C6H6CSHC3H3CH4CH4CNH3C2NHCHCH3FeCH3C3HFeHCH5CS2H2CHFeS2FeS2FeSFeS3C2HSNH2SC2HC2H2C3H5C3HCH5FeHCHCHC6H4NC2H4FeC3H7NH2CH9CH3SH2CHCHCSH2FeSNFeS2FeSFeS3FeSHFeSHFeS2FeS2FeSFeS3H6CH2C3H4CH2C6H3C2H2CHSC7H4CH2C2H3CH3CH4SH3CH2NC3NSH5C2HC3SH2NH3CHCH9FeS2FeS2FeSFeS3HS2HCH5CH4C2HCHC6H4C2H4CH2C3NH5C2NH2CH4NCH7CHCH2FeCH2CSH2CHFeS2FeS2FeSFeS3FeSFeSHFe2S2FeS2H3C2HFeSC3NSHSHFeCHCH4CH2C6H4C6H4C3H2CH2NHFeC3HC2H4S2H3CH2CHCSC2HSHCHCHCHC3NC4H13FeNSH2FeCHC2SH4CNC2H4SH3SCSCHCH2SC2HFeSFeS2FeHFeS2FeS2FeS2FeSFeS3C3H2C4HCH2CHCH3C6H6C4H2SHC2HNH2CH2CNC4H13CHCH2NC3HCH2CH5C2H4NH2CHSH3CHCH2CHC2HCHCH2NH5CSCH2SHFeSH2SFeSFeS2FeS2FeS2FeSFeS3NCH3C2H6C6H4C8H3C2H3NCHCH6CHCH4CH6CFeCHC2H2CHC3H2SH3C2H4SH2CNH2CHCH3CNH3CH2CHFeS2HCSFeS2Fe2CFeHS2FeS2FeS2FeSFeS3C6H4CNHC3H2FeHC2H2SCHC5H2C6H4SC2NH3CH2CH3SH2CHNH5C4H3CH2CH6CH6CSHCH3CHCH3C2HCH5CHNCHSC3H5C2HFeS2FeS2FeSFeS3FeS2HFeHFeH2SH3CHNCH2C6HCH3C6H4C2HC3H2CH5SCHNCNH9C2H6CSC2H4CHCHCHCH2SH3CFeS2FeS2FeSFeS3HSFeH3C2H2C3H3CH2CHC6H7C5HNC4H11SH2SC2H3C2FeNH6CSH3CH2CH2C2HSH3FeS2FeS2FeSFeS3FeS2HFeSFeHS2HSFeH2CHCHCH3CH2C3NHCH2C3HC6H3CH2FeC6H4NHCHCSH2FeHCHCHC3H3SH5C2H2SH2CNC4H15CH3SCHNC3HC3HCHFeS2FeS2FeSFeS3CSC3HCH2CHC7H4C2H3CH3NC4H12C2H2CSH4CHFeH3CNH5CH2CH3CH5C3FeS2FeS2FeHFeS3HSFeSCFeSHFeS2H2CHC2H3CFeH3C2NHSCSC6H4C3HNH3C2HNC4H18CHCH3CSHC3H2CSCH2CH3CHCH8FeHFeS2FeSHFeSFeS3H3SNH6C4H3C3H2CHC7H4C3HCH5CH2N2CHNHCH6CSH4CH2CH8C2H3C2H3SCHC5HSH4C2HNCH2SFeHSCHCH4C2FeSHFeS2FeSFeS3HFeS2CHFeHS2HSHFeSHFeS2H2CHCHCH3CH2SC2H3C2HC3HC9H4C3H2NCNC4H12NHCFeH3CHCSCH5CHSNCHCH3CHC3HFeCFeH3C2HSH3CH2CH3CH5CFeS2FeS2FeSFeS3HSHCHC2H2CH6C2H3C7H4CHC3H9CH4CH3CHNH2CH2CH3CHC2HNC2HCHCHNCHCNH5CH2CHSH3S2HFeSHFeSFeSFeS2FeS2FeSFeS3FeS2FeSFeS3FeSC2H3SC3H2CNH2C2HCH5C6H5C6H6CHC2H2S2CH2CH5C4HCH2NH2C3H4CH11SHCSCHCFeH4SH2CH2FeHCNCH3C2HCHCHFeH2NCHC4HNH2CHNHCSCH3FeH2FeS2FeCFeS3FeS2FeS2FeSFeS3C3HCH2CH2C2HC2H2C3H2CH2CHC6H10CHCSHCH2CHCNCH3C2NC4H10C2H3SH2CH4CH2SHCHNHCHC4HSHFeS2FeS2FeSFeS3FeSHFeS2FeSFeHSHCHC6H9CH2C3H6NH2S2C2H3CH4SHCHNCNC4H5SCHCH3C3H4C2HCH3C2HN2CH2CHCH3CSHCFeS2FeS2FeSFeS3FeSHFeSCFe2S2HCH3C6H4CSHC4NC4H3CHC2H2C6H2CH4CSCH4CHNH2C2H2CH2CHNCFeH2C2HNC4H13C2HC2H3CHSHCH5SCSHC2H2SH2FeS2FeS2FeSFeS3FeS2FeCFeCS2HC2H2CH3C2HC3HCNHC2HCHC7H6CHCH12NC2H3NH3C3H2CNH2CHSH3C2HC3H2CHCH5C2H2FeH2CH3CHCFeS2FeS2FeSFeS3H5SCSH7CH3C2HCHCHC2SHC6H4C3HCHCHCH4SHFe2HCHCH5CH2CHC2NH2CHCH3NHNCHCSCH8CH2CHC2H2CH2N2CH3C2Fe2S2FeS2FeSFeS3CSC2HFeCFeHFeS2FeH3SHCHSHCSHNCH4C2H2NCHC3HSH3C6H5CHSH2NHC3H5CH9C2HCH2NH4C2H2C2HCSH3C2H2CHC3H6C2HFeH2C2H2FeS2FeS2FeSFeS3H2SH3C2HNCHCHC6H5C3H3C3H3N2C4H18C2H4CHCHCHNHC2H5CSCH5C4HCHCH2NH4CH2SH
_chemical_formula_sum              "Fe192 S384 H1536 N96 C960"
_cell_length_a       57.7186
_cell_length_b       57.5847
_cell_length_c       71.2998
_cell_angle_alpha    86.3135
_cell_angle_beta     86.4824
_cell_angle_gamma    85.8591

_space_group_name_H-M_alt    "P 1"
_space_group_IT_number       1

loop_
  _space_group_symop_operation_xyz
  'x, y, z'

loop_
  _atom_site_type_symbol
  _atom_site_label
  _atom_site_symmetry_multiplicity
  _atom_site_fract_x
  _atom_site_fract_y
  _atom_site_fract_z
  _atom_site_occupancy
  Fe  Fe1       1.0  0.40875  0.09194  0.18296  1.0000
  S   S1        1.0  0.42492  0.05548  0.18088  1.0000
  S   S2        1.0  0.38933  0.10629  0.15736  1.0000
  Fe  Fe2       1.0  0.41931  0.09220  0.22487  1.0000
  S   S3        1.0  0.43550  0.05563  0.22565  1.0000
  S   S4        1.0  0.42127  0.11297  0.25066  1.0000
  Fe  Fe3       1.0  0.45285  0.06680  0.19794  1.0000
  H   H1        1.0  0.30029  0.28500  0.09919  1.0000
  Fe  Fe4       1.0  0.40600  0.04773  0.20864  1.0000
  H   H2        1.0  0.48764  0.06030  0.23860  1.0000
  S   S5        1.0  0.43855  0.10414  0.19779  1.0000
  S   S6        1.0  0.38798  0.08350  0.21012  1.0000
  H   H3        1.0  0.37109  0.06900  0.13575  1.0000
  H   H4        1.0  0.39411  0.02125  0.16835  1.0000
  N   N1        1.0  0.48752  0.07755  0.26450  1.0000
  H   H5        1.0  0.49115  0.15803  0.05520  1.0000
  N   N2        1.0  0.49879  0.17834  0.07806  1.0000
  Fe  Fe5       1.0  0.41998  0.18922  0.06344  1.0000
  S   S7        1.0  0.42192  0.22756  0.05452  1.0000
  S   S8        1.0  0.43005  0.17724  0.09330  1.0000
  C   C1        1.0  0.50553  0.24291  0.04492  1.0000
  C   C2        1.0  0.12465  0.27353  0.17286  1.0000
  C   C3        1.0  0.30955  0.29953  0.03318  1.0000
  H   H6        1.0  0.48959  0.25241  0.04961  1.0000
  S   S9        1.0  0.44486  0.17704  0.03999  1.0000
  S   S10       1.0  0.38858  0.18523  0.04703  1.0000
  C   C4        1.0  0.48049  0.10064  0.25555  1.0000
  S   S11       1.0  0.35666  0.24306  0.03086  1.0000
  H   H7        1.0  0.38455  0.04150  0.12862  1.0000
  C   C5        1.0  0.35512  0.28792  0.04413  1.0000
  H   H8        1.0  0.11510  0.27193  0.15995  1.0000
  H   H9        1.0  0.26942  0.31944  0.06123  1.0000
  H   H10       1.0  0.37522  0.05916  0.17780  1.0000
  N   N3        1.0  0.27080  0.30709  0.09022  1.0000
  H   H11       1.0  0.29164  0.33656  0.08483  1.0000
  C   C6        1.0  0.25795  0.31231  0.07298  1.0000
  C   C7        1.0  0.15121  0.29548  0.18836  1.0000
  H   H12       1.0  0.50474  0.04504  0.25632  1.0000
  H   H13       1.0  0.16316  0.27975  0.19109  1.0000
  C   C8        1.0  0.34398  0.31013  0.04726  1.0000
  H   H14       1.0  0.39640  0.05653  0.14674  1.0000
  H   H15       1.0  0.25084  0.29645  0.06809  1.0000
  H   H16       1.0  0.13564  0.25707  0.17537  1.0000
  H   H17       1.0  0.14718  0.29145  0.14131  1.0000
  C   C9        1.0  0.49706  0.17658  0.09886  1.0000
  C   C10       1.0  0.41437  0.10027  0.27335  1.0000
  H   H18       1.0  0.48453  0.20043  0.05562  1.0000
  H   H19       1.0  0.16769  0.27587  0.15641  1.0000
  H   H20       1.0  0.34836  0.04583  0.18268  1.0000
  C   C11       1.0  0.40124  0.12537  0.13932  1.0000
  C   C12       1.0  0.42218  0.13554  0.14117  1.0000
  C   C13       1.0  0.43071  0.15125  0.12687  1.0000
  C   C14       1.0  0.41859  0.15676  0.11045  1.0000
  C   C15       1.0  0.39784  0.14629  0.10843  1.0000
  C   C16       1.0  0.38914  0.13077  0.12287  1.0000
  H   H21       1.0  0.43160  0.13164  0.15378  1.0000
  H   H22       1.0  0.44668  0.15935  0.12865  1.0000
  H   H23       1.0  0.38831  0.15043  0.09591  1.0000
  H   H24       1.0  0.37288  0.12307  0.12132  1.0000
  H   H25       1.0  0.49584  0.11016  0.25010  1.0000
  H   H26       1.0  0.50331  0.19230  0.10472  1.0000
  C   C17       1.0  0.12338  0.31537  0.16795  1.0000
  S   S12       1.0  0.49004  0.05353  0.19239  1.0000
  H   H27       1.0  0.34995  0.07152  0.16679  1.0000
  C   C18       1.0  0.34357  0.27136  0.03543  1.0000
  C   C19       1.0  0.32069  0.27733  0.03005  1.0000
  C   C20       1.0  0.15591  0.29193  0.15477  1.0000
  H   H28       1.0  0.16704  0.30706  0.15324  1.0000
  H   H29       1.0  0.29205  0.30382  0.02883  1.0000
  H   H30       1.0  0.39640  0.07221  0.26372  1.0000
  C   C21       1.0  0.50550  0.22877  0.02967  1.0000
  H   H31       1.0  0.23971  0.31025  0.10832  1.0000
  H   H32       1.0  0.13882  0.29717  0.20089  1.0000
  H   H33       1.0  0.13361  0.33105  0.16644  1.0000
  H   H34       1.0  0.29002  0.32535  0.10888  1.0000
  C   C22       1.0  0.35926  0.05467  0.17134  1.0000
  H   H35       1.0  0.45343  0.06549  0.26235  1.0000
  H   H36       1.0  0.30306  0.29677  0.07538  1.0000
  H   H37       1.0  0.11027  0.31771  0.17994  1.0000
  H   H38       1.0  0.47867  0.17506  0.10433  1.0000
  C   C23       1.0  0.37988  0.05214  0.14095  1.0000
  N   N4        1.0  0.36502  0.03974  0.15537  1.0000
  H   H39       1.0  0.33346  0.05061  0.14185  1.0000
  H   H40       1.0  0.24302  0.32538  0.07530  1.0000
  H   H41       1.0  0.37269  0.28369  0.04836  1.0000
  C   C24       1.0  0.50279  0.09367  0.20676  1.0000
  C   C25       1.0  0.34333  0.03438  0.14708  1.0000
  N   N5        1.0  0.13879  0.29403  0.17098  1.0000
  H   H42       1.0  0.26385  0.29375  0.11871  1.0000
  C   C26       1.0  0.32119  0.31615  0.04175  1.0000
  H   H43       1.0  0.48476  0.09988  0.20667  1.0000
  C   C27       1.0  0.48467  0.19923  0.07122  1.0000
  H   H44       1.0  0.16191  0.31094  0.18744  1.0000
  H   H45       1.0  0.11364  0.31504  0.15498  1.0000
  H   H46       1.0  0.46952  0.09900  0.24344  1.0000
  Fe  Fe6       1.0  0.39181  0.22286  0.03647  1.0000
  C   C28       1.0  0.29045  0.28978  0.08640  1.0000
  H   H47       1.0  0.49123  0.21550  0.07581  1.0000
  H   H48       1.0  0.47145  0.15544  0.07556  1.0000
  H   H49       1.0  0.11139  0.27489  0.18487  1.0000
  C   C29       1.0  0.27988  0.32870  0.09610  1.0000
  C   C30       1.0  0.25488  0.29762  0.10538  1.0000
  C   C31       1.0  0.49928  0.06266  0.25015  1.0000
  H   H50       1.0  0.46627  0.19895  0.07658  1.0000
  Fe  Fe7       1.0  0.44533  0.21477  0.03024  1.0000
  H   H51       1.0  0.47007  0.11182  0.26560  1.0000
  C   C32       1.0  0.37758  0.01780  0.16214  1.0000
  H   H52       1.0  0.34702  0.02312  0.13498  1.0000
  H   H53       1.0  0.28444  0.27351  0.08127  1.0000
  H   H54       1.0  0.35317  0.32278  0.05394  1.0000
  H   H55       1.0  0.24786  0.28121  0.10144  1.0000
  H   H56       1.0  0.33173  0.02506  0.15762  1.0000
  C   C33       1.0  0.49004  0.15729  0.07088  1.0000
  S   S13       1.0  0.38540  0.01587  0.21393  1.0000
  S   S14       1.0  0.06615  0.33681  0.19771  1.0000
  H   H57       1.0  0.01792  0.32619  0.20399  1.0000
  H   H58       1.0  0.50011  0.14115  0.07593  1.0000
  C   C34       1.0  0.46669  0.06647  0.27292  1.0000
  H   H59       1.0  0.36708  0.00821  0.17333  1.0000
  Fe  Fe8       1.0  0.41023  0.09081  0.39829  1.0000
  S   S15       1.0  0.44503  0.07381  0.40625  1.0000
  S   S16       1.0  0.38013  0.10949  0.41468  1.0000
  Fe  Fe9       1.0  0.41493  0.07267  0.35853  1.0000
  S   S17       1.0  0.44954  0.05385  0.36323  1.0000
  S   S18       1.0  0.39474  0.06933  0.33265  1.0000
  Fe  Fe10      1.0  0.43446  0.04296  0.39179  1.0000
  S   S19       1.0  0.30312  0.09224  0.51534  1.0000
  Fe  Fe11      1.0  0.45777  0.08602  0.37698  1.0000
  S   S20       1.0  0.49281  0.09861  0.36689  1.0000
  S   S21       1.0  0.39894  0.05883  0.38617  1.0000
  S   S22       1.0  0.42397  0.10592  0.37008  1.0000
  C   C35       1.0  0.35707  0.05240  0.45915  1.0000
  C   C36       1.0  0.15169  0.31025  0.45870  1.0000
  H   H60       1.0  0.37284  0.05978  0.49300  1.0000
  S   S23       1.0  0.37062  0.11023  0.50422  1.0000
  N   N6        1.0  0.35784  0.03591  0.47589  1.0000
  H   H61       1.0  0.16303  0.21030  0.49976  1.0000
  H   H62       1.0  0.32381  0.12158  0.34120  1.0000
  S   S24       1.0  0.15653  0.28904  0.49404  1.0000
  C   C37       1.0  0.42160  0.11044  0.28923  1.0000
  C   C38       1.0  0.20941  0.20244  0.49475  1.0000
  H   H63       1.0  0.22749  0.20384  0.49900  1.0000
  C   C39       1.0  0.32995  0.13248  0.35201  1.0000
  C   C40       1.0  0.11486  0.32286  0.44516  1.0000
  H   H64       1.0  0.37247  0.06306  0.45790  1.0000
  H   H65       1.0  0.21346  0.23658  0.51770  1.0000
  C   C41       1.0  0.11576  0.30497  0.47725  1.0000
  C   C42       1.0  0.14004  0.30238  0.47559  1.0000
  C   C43       1.0  0.36167  0.13998  0.37087  1.0000
  H   H66       1.0  0.36470  0.11608  0.32824  1.0000
  H   H67       1.0  0.45817  0.07655  0.28456  1.0000
  H   H68       1.0  0.10658  0.29894  0.49013  1.0000
  H   H69       1.0  0.08445  0.31682  0.46343  1.0000
  H   H70       1.0  0.37348  0.09457  0.36701  1.0000
  C   C44       1.0  0.40378  0.08075  0.30998  1.0000
  C   C45       1.0  0.41670  0.10047  0.30748  1.0000
  C   C46       1.0  0.10326  0.31509  0.46207  1.0000
  H   H71       1.0  0.35060  0.13837  0.38420  1.0000
  C   C47       1.0  0.39649  0.07069  0.29411  1.0000
  H   H72       1.0  0.42239  0.10840  0.31960  1.0000
  H   H73       1.0  0.36912  0.14571  0.33310  1.0000
  H   H74       1.0  0.38636  0.05552  0.29594  1.0000
  H   H75       1.0  0.39514  0.03068  0.47377  1.0000
  H   H76       1.0  0.49535  0.09195  0.29028  1.0000
  Fe  Fe12      1.0  0.14160  0.27711  0.52320  1.0000
  H   H77       1.0  0.17151  0.21537  0.47523  1.0000
  C   C48       1.0  0.35537  0.10058  0.36390  1.0000
  H   H78       1.0  0.38799  0.12200  0.34215  1.0000
  C   C49       1.0  0.36960  0.12745  0.33924  1.0000
  H   H79       1.0  0.38024  0.01027  0.46173  1.0000
  C   C50       1.0  0.37768  0.10857  0.43963  1.0000
  C   C51       1.0  0.35570  0.11296  0.44885  1.0000
  C   C52       1.0  0.35314  0.11275  0.46866  1.0000
  C   C53       1.0  0.37270  0.10890  0.47939  1.0000
  C   C54       1.0  0.39467  0.10453  0.47017  1.0000
  C   C55       1.0  0.39714  0.10404  0.45040  1.0000
  H   H80       1.0  0.34056  0.11659  0.44064  1.0000
  H   H81       1.0  0.33615  0.11633  0.47557  1.0000
  H   H82       1.0  0.40992  0.10165  0.47833  1.0000
  H   H83       1.0  0.41418  0.10080  0.44348  1.0000
  N   N7        1.0  0.19603  0.22535  0.49431  1.0000
  C   C56       1.0  0.20707  0.24160  0.48017  1.0000
  C   C57       1.0  0.17194  0.22243  0.48936  1.0000
  H   H84       1.0  0.35756  0.03718  0.50600  1.0000
  H   H85       1.0  0.33654  0.01213  0.46391  1.0000
  H   H86       1.0  0.34165  0.06117  0.49440  1.0000
  H   H87       1.0  0.13104  0.32598  0.29408  1.0000
  Fe  Fe13      1.0  0.33819  0.10199  0.52251  1.0000
  C   C58       1.0  0.19562  0.23499  0.51303  1.0000
  C   C59       1.0  0.13917  0.32049  0.44354  1.0000
  C   C60       1.0  0.02437  0.25945  0.51980  1.0000
  H   H88       1.0  0.49450  0.10327  0.40710  1.0000
  H   H89       1.0  0.21049  0.19478  0.48076  1.0000
  H   H90       1.0  0.16129  0.23938  0.48907  1.0000
  H   H91       1.0  0.20122  0.18972  0.50507  1.0000
  H   H92       1.0  0.18635  0.25261  0.51306  1.0000
  H   H93       1.0  0.20768  0.23495  0.46582  1.0000
  H   H94       1.0  0.31785  0.13081  0.36473  1.0000
  N   N8        1.0  0.35414  0.12516  0.35650  1.0000
  H   H95       1.0  0.34449  0.09812  0.37722  1.0000
  H   H96       1.0  0.32837  0.15099  0.34640  1.0000
  C   C61       1.0  0.37940  0.02046  0.47454  1.0000
  H   H97       1.0  0.17048  0.30820  0.45726  1.0000
  H   H98       1.0  0.36103  0.15869  0.36586  1.0000
  H   H99       1.0  0.34982  0.08874  0.35351  1.0000
  H   H100      1.0  0.02419  0.26826  0.50596  1.0000
  H   H101      1.0  0.43109  0.12603  0.28740  1.0000
  H   H102      1.0  0.37981  0.13479  0.37469  1.0000
  H   H103      1.0  0.34127  0.06468  0.45989  1.0000
  H   H104      1.0  0.14827  0.32609  0.43051  1.0000
  H   H105      1.0  0.22518  0.24439  0.48358  1.0000
  C   C62       1.0  0.35753  0.04907  0.49305  1.0000
  H   H106      1.0  0.47106  0.04848  0.27887  1.0000
  H   H107      1.0  0.06124  0.26269  0.52227  1.0000
  H   H108      1.0  0.19720  0.25901  0.47954  1.0000
  S   S25       1.0  0.30992  0.02461  0.52128  1.0000
  H   H109      1.0  0.32085  0.03282  0.47875  1.0000
  H   H110      1.0  0.35703  0.04318  0.44591  1.0000
  C   C63       1.0  0.40210  0.08015  0.27584  1.0000
  H   H111      1.0  0.40413  0.01321  0.37712  1.0000
  C   C64       1.0  0.33739  0.02175  0.47686  1.0000
  H   H112      1.0  0.18659  0.22366  0.52391  1.0000
  C   C65       1.0  0.50363  0.08050  0.27938  1.0000
  S   S26       1.0  0.09810  0.33556  0.42666  1.0000
  H   H113      1.0  0.01283  0.34018  0.36971  1.0000
  H   H114      1.0  0.33778  0.00868  0.48907  1.0000
  Fe  Fe14      1.0  0.44343  0.06009  0.69767  1.0000
  S   S27       1.0  0.40497  0.06648  0.70422  1.0000
  N   N9        1.0  0.36136  0.02982  0.67021  1.0000
  Fe  Fe15      1.0  0.45318  0.10950  0.70330  1.0000
  S   S28       1.0  0.41556  0.12018  0.70982  1.0000
  S   S29       1.0  0.48094  0.13339  0.70828  1.0000
  Fe  Fe16      1.0  0.41545  0.08685  0.72785  1.0000
  S   S30       1.0  0.39693  0.08610  0.75690  1.0000
  Fe  Fe17      1.0  0.40842  0.09903  0.68550  1.0000
  S   S31       1.0  0.37917  0.11247  0.66668  1.0000
  S   S32       1.0  0.45348  0.07747  0.72282  1.0000
  S   S33       1.0  0.44642  0.09137  0.67738  1.0000
  Fe  Fe18      1.0  0.28949  0.10950  0.54193  1.0000
  S   S34       1.0  0.32474  0.12173  0.54772  1.0000
  H   H115      1.0  0.17791  0.24964  0.59499  1.0000
  Fe  Fe19      1.0  0.30920  0.05981  0.53419  1.0000
  S   S35       1.0  0.34490  0.06875  0.53966  1.0000
  H   H116      1.0  0.44626  0.08715  0.76338  1.0000
  Fe  Fe20      1.0  0.32984  0.08742  0.56471  1.0000
  S   S36       1.0  0.35637  0.07764  0.58706  1.0000
  S   S37       1.0  0.29382  0.07591  0.56053  1.0000
  Fe  Fe21      1.0  0.13581  0.29051  0.56469  1.0000
  S   S38       1.0  0.13076  0.25363  0.57519  1.0000
  S   S39       1.0  0.13844  0.32195  0.58217  1.0000
  Fe  Fe22      1.0  0.16035  0.24266  0.55467  1.0000
  S   S40       1.0  0.19473  0.22314  0.56333  1.0000
  Fe  Fe23      1.0  0.10737  0.25346  0.55086  1.0000
  S   S41       1.0  0.07216  0.23875  0.55866  1.0000
  S   S42       1.0  0.16662  0.27988  0.54571  1.0000
  S   S43       1.0  0.11105  0.29114  0.54134  1.0000
  H   H117      1.0  0.18392  0.18421  0.54105  1.0000
  H   H118      1.0  0.18321  0.31090  0.60803  1.0000
  H   H119      1.0  0.16369  0.27834  0.59471  1.0000
  H   H120      1.0  0.22522  0.29034  0.58556  1.0000
  H   H121      1.0  0.23164  0.26572  0.61499  1.0000
  H   H122      1.0  0.19627  0.29593  0.57761  1.0000
  C   C66       1.0  0.13619  0.32348  0.60706  1.0000
  H   H123      1.0  0.18624  0.29314  0.62939  1.0000
  H   H124      1.0  0.20732  0.25337  0.62799  1.0000
  C   C67       1.0  0.23384  0.19246  0.56187  1.0000
  C   C68       1.0  0.13410  0.30527  0.63887  1.0000
  C   C69       1.0  0.13258  0.30390  0.61930  1.0000
  H   H125      1.0  0.36499  0.12900  0.57279  1.0000
  H   H126      1.0  0.20770  0.14866  0.53160  1.0000
  H   H127      1.0  0.12895  0.28762  0.61371  1.0000
  H   H128      1.0  0.02605  0.22536  0.56830  1.0000
  C   C70       1.0  0.04619  0.24382  0.54649  1.0000
  H   H129      1.0  0.35939  0.06690  0.67308  1.0000
  H   H130      1.0  0.13203  0.28989  0.64819  1.0000
  C   C71       1.0  0.35315  0.00873  0.68075  1.0000
  C   C72       1.0  0.21092  0.19719  0.55618  1.0000
  C   C73       1.0  0.35303  0.05069  0.68037  1.0000
  C   C74       1.0  0.02557  0.23528  0.55489  1.0000
  C   C75       1.0  0.23809  0.15621  0.54562  1.0000
  C   C76       1.0  0.24734  0.17216  0.55663  1.0000
  H   H131      1.0  0.26486  0.16879  0.56118  1.0000
  H   H132      1.0  0.38511  0.14978  0.57804  1.0000
  H   H133      1.0  0.43322  0.12604  0.54575  1.0000
  C   C77       1.0  0.02671  0.28323  0.58047  1.0000
  C   C78       1.0  0.17579  0.26600  0.60261  1.0000
  H   H134      1.0  0.21139  0.30493  0.61718  1.0000
  H   H135      1.0  0.33287  0.03288  0.65191  1.0000
  C   C79       1.0  0.13819  0.32644  0.64650  1.0000
  H   H136      1.0  0.39446  0.02658  0.68261  1.0000
  S   S44       1.0  0.13653  0.23914  0.53118  1.0000
  C   C80       1.0  0.20166  0.18124  0.54518  1.0000
  C   C81       1.0  0.36233  0.08802  0.60904  1.0000
  C   C82       1.0  0.34767  0.10476  0.61805  1.0000
  C   C83       1.0  0.35319  0.11216  0.63563  1.0000
  C   C84       1.0  0.37343  0.10305  0.64431  1.0000
  C   C85       1.0  0.38825  0.08655  0.63515  1.0000
  C   C86       1.0  0.38267  0.07905  0.61764  1.0000
  H   H137      1.0  0.33197  0.11183  0.61161  1.0000
  H   H138      1.0  0.34162  0.12496  0.64260  1.0000
  H   H139      1.0  0.40405  0.07968  0.64151  1.0000
  H   H140      1.0  0.39421  0.06620  0.61070  1.0000
  C   C87       1.0  0.21440  0.25873  0.61360  1.0000
  H   H141      1.0  0.24121  0.20453  0.57046  1.0000
  H   H142      1.0  0.21730  0.24268  0.60555  1.0000
  C   C88       1.0  0.38376  0.13161  0.57402  1.0000
  C   C89       1.0  0.04546  0.25617  0.52896  1.0000
  H   H143      1.0  0.21064  0.26734  0.57625  1.0000
  H   H144      1.0  0.16719  0.26178  0.61670  1.0000
  H   H145      1.0  0.38968  0.11961  0.58593  1.0000
  C   C90       1.0  0.19470  0.29715  0.61518  1.0000
  H   H146      1.0  0.33370  0.05286  0.68152  1.0000
  H   H147      1.0  0.02160  0.29579  0.61620  1.0000
  H   H148      1.0  0.42433  0.02281  0.71983  1.0000
  C   C91       1.0  0.38707  0.02811  0.66854  1.0000
  H   H149      1.0  0.39404  0.01246  0.66107  1.0000
  H   H150      1.0  0.42526  0.14753  0.56265  1.0000
  H   H151      1.0  0.28164  0.01501  0.55609  1.0000
  H   H152      1.0  0.35847  0.01650  0.64301  1.0000
  S   S45       1.0  0.25411  0.13022  0.53839  1.0000
  H   H153      1.0  0.39134  0.16175  0.54407  1.0000
  H   H154      1.0  0.40020  0.08970  0.56275  1.0000
  H   H155      1.0  0.39919  0.13995  0.52734  1.0000
  C   C92       1.0  0.21518  0.16098  0.53992  1.0000
  H   H156      1.0  0.37072  0.14161  0.53860  1.0000
  H   H157      1.0  0.35784  0.04773  0.64302  1.0000
  N   N10       1.0  0.39753  0.12684  0.55633  1.0000
  C   C93       1.0  0.20812  0.28274  0.58506  1.0000
  C   C94       1.0  0.00942  0.28305  0.61218  1.0000
  C   C95       1.0  0.42239  0.12955  0.55887  1.0000
  N   N11       1.0  0.42379  0.16087  0.75721  1.0000
  S   S46       1.0  0.14269  0.32684  0.67090  1.0000
  H   H158      1.0  0.49493  0.11366  0.67277  1.0000
  H   H159      1.0  0.41458  0.19739  0.76010  1.0000
  H   H160      1.0  0.03921  0.29624  0.58333  1.0000
  H   H161      1.0  0.39706  0.13738  0.75423  1.0000
  H   H162      1.0  0.37601  0.10027  0.54947  1.0000
  C   C96       1.0  0.39456  0.10274  0.55143  1.0000
  C   C97       1.0  0.40060  0.15608  0.75123  1.0000
  H   H163      1.0  0.44533  0.18981  0.75703  1.0000
  C   C98       1.0  0.35224  0.03177  0.65120  1.0000
  C   C99       1.0  0.38939  0.14333  0.54097  1.0000
  C   C100      1.0  0.44185  0.14617  0.74707  1.0000
  S   S47       1.0  0.46037  0.02519  0.69035  1.0000
  H   H164      1.0  0.43872  0.12734  0.74927  1.0000
  H   H165      1.0  0.42732  0.19028  0.73735  1.0000
  N   N12       1.0  0.19829  0.27617  0.60414  1.0000
  H   H166      1.0  0.42904  0.11721  0.57030  1.0000
  H   H167      1.0  0.44219  0.15056  0.73163  1.0000
  H   H168      1.0  0.39397  0.04377  0.66080  1.0000
  C   C101      1.0  0.42791  0.18571  0.75275  1.0000
  H   H169      1.0  0.03558  0.26564  0.58340  1.0000
  C   C102      1.0  0.42307  0.00855  0.71088  1.0000
  H   H170      1.0  0.49826  0.04629  0.70836  1.0000
  H   H171      1.0  0.35920  0.04962  0.69491  1.0000
  H   H172      1.0  0.40441  0.09848  0.53803  1.0000
  H   H173      1.0  0.45959  0.14849  0.75164  1.0000
  H   H174      1.0  0.01746  0.26523  0.61562  1.0000
  H   H175      1.0  0.39917  0.15996  0.73583  1.0000
  H   H176      1.0  0.02373  0.28500  0.56514  1.0000
  H   H177      1.0  0.38646  0.16668  0.75868  1.0000
  H   H178      1.0  0.33383  0.00910  0.68206  1.0000
  Fe  Fe24      1.0  0.45496  0.07023  0.89470  1.0000
  S   S48       1.0  0.45423  0.10739  0.88318  1.0000
  S   S49       1.0  0.48726  0.05044  0.90487  1.0000
  Fe  Fe25      1.0  0.40529  0.06537  0.88583  1.0000
  S   S50       1.0  0.40018  0.10250  0.87394  1.0000
  S   S51       1.0  0.37915  0.03837  0.88448  1.0000
  Fe  Fe26      1.0  0.43543  0.09551  0.85932  1.0000
  S   S52       1.0  0.45005  0.10383  0.82952  1.0000
  Fe  Fe27      1.0  0.41943  0.11109  0.89917  1.0000
  S   S53       1.0  0.41210  0.14385  0.91561  1.0000
  S   S54       1.0  0.43916  0.05802  0.86957  1.0000
  S   S55       1.0  0.42144  0.07437  0.91210  1.0000
  H   H179      1.0  0.37835  0.18248  0.99645  1.0000
  S   S56       1.0  0.41555  0.21328  0.01133  1.0000
  S   S57       1.0  0.40933  0.14514  0.00532  1.0000
  H   H180      1.0  0.42040  0.04828  0.80556  1.0000
  C   C103      1.0  0.42481  0.15551  0.77772  1.0000
  H   H181      1.0  0.37238  0.03694  0.84227  1.0000
  H   H182      1.0  0.33952  0.17849  0.96918  1.0000
  H   H183      1.0  0.38207  0.05759  0.82395  1.0000
  H   H184      1.0  0.41894  0.01528  0.85260  1.0000
  H   H185      1.0  0.39700  0.05308  0.84538  1.0000
  C   C104      1.0  0.39940  0.09297  0.79442  1.0000
  H   H186      1.0  0.16474  0.30600  0.90992  1.0000
  H   H187      1.0  0.38061  0.09289  0.79509  1.0000
  H   H188      1.0  0.37150  0.23481  0.99128  1.0000
  H   H189      1.0  0.13598  0.29033  0.86729  1.0000
  C   C105      1.0  0.39250  0.01027  0.88870  1.0000
  C   C106      1.0  0.14672  0.30567  0.86532  1.0000
  H   H190      1.0  0.34883  0.17628  0.00251  1.0000
  C   C107      1.0  0.36059  0.19066  0.99928  1.0000
  H   H191      1.0  0.33039  0.22831  0.00030  1.0000
  C   C108      1.0  0.41295  0.14361  0.94053  1.0000
  C   C109      1.0  0.41556  0.16457  0.94907  1.0000
  C   C110      1.0  0.41528  0.16521  0.96885  1.0000
  C   C111      1.0  0.41175  0.14497  0.98033  1.0000
  C   C112      1.0  0.40925  0.12403  0.97178  1.0000
  C   C113      1.0  0.41004  0.12328  0.95201  1.0000
  H   H192      1.0  0.41798  0.18035  0.94031  1.0000
  H   H193      1.0  0.41767  0.18134  0.97519  1.0000
  H   H194      1.0  0.40657  0.10826  0.98050  1.0000
  H   H195      1.0  0.40789  0.10706  0.94569  1.0000
  C   C114      1.0  0.42470  0.03560  0.81747  1.0000
  C   C115      1.0  0.17978  0.28392  0.87865  1.0000
  H   H196      1.0  0.16996  0.26797  0.88119  1.0000
  H   H197      1.0  0.48456  0.09953  0.91166  1.0000
  H   H198      1.0  0.15518  0.30586  0.85083  1.0000
  H   H199      1.0  0.41184  0.16674  0.78584  1.0000
  C   C116      1.0  0.37009  0.22416  0.97893  1.0000
  H   H200      1.0  0.17267  0.33569  0.96420  1.0000
  H   H201      1.0  0.42364  0.02268  0.89856  1.0000
  C   C117      1.0  0.44772  0.09411  0.79265  1.0000
  C   C118      1.0  0.43508  0.09754  0.80982  1.0000
  C   C119      1.0  0.41087  0.09679  0.81071  1.0000
  N   N13       1.0  0.16411  0.30529  0.87976  1.0000
  H   H202      1.0  0.46646  0.09468  0.79186  1.0000
  H   H203      1.0  0.40096  0.09971  0.82384  1.0000
  H   H204      1.0  0.36497  0.23634  0.96691  1.0000
  H   H205      1.0  0.19318  0.28325  0.88930  1.0000
  H   H206      1.0  0.13465  0.32164  0.86572  1.0000
  C   C120      1.0  0.38808  0.04410  0.83478  1.0000
  C   C121      1.0  0.32998  0.21760  0.98785  1.0000
  N   N14       1.0  0.40357  0.02551  0.82633  1.0000
  H   H207      1.0  0.31685  0.20453  0.99136  1.0000
  H   H208      1.0  0.14025  0.32174  0.90008  1.0000
  C   C122      1.0  0.15214  0.30577  0.89871  1.0000
  H   H209      1.0  0.36098  0.20037  0.01223  1.0000
  H   H210      1.0  0.43725  0.02189  0.81174  1.0000
  H   H211      1.0  0.32377  0.22944  0.97598  1.0000
  H   H212      1.0  0.44233  0.15801  0.78267  1.0000
  N   N15       1.0  0.35317  0.20617  0.98312  1.0000
  C   C123      1.0  0.35210  0.19225  0.96651  1.0000
  H   H213      1.0  0.18907  0.28310  0.86452  1.0000
  H   H214      1.0  0.36932  0.18320  0.96277  1.0000
  H   H215      1.0  0.34684  0.20337  0.95394  1.0000
  H   H216      1.0  0.14156  0.29047  0.90188  1.0000
  H   H217      1.0  0.38780  0.21616  0.97525  1.0000
  H   H218      1.0  0.43379  0.04501  0.82772  1.0000
  H   H219      1.0  0.19069  0.32688  0.88730  1.0000
  C   C124      1.0  0.17788  0.32593  0.87635  1.0000
  H   H220      1.0  0.18738  0.32621  0.86227  1.0000
  C   C125      1.0  0.43629  0.08994  0.77646  1.0000
  H   H221      1.0  0.49817  0.11305  0.82111  1.0000
  H   H222      1.0  0.02926  0.34043  0.89687  1.0000
  Fe  Fe28      1.0  0.41380  0.17628  0.02268  1.0000
  C   C126      1.0  0.39121  0.01469  0.81193  1.0000
  H   H223      1.0  0.49599  0.13229  0.85132  1.0000
  H   H224      1.0  0.38600  0.02773  0.80045  1.0000
  C   C127      1.0  0.50235  0.09392  0.90774  1.0000
  S   S58       1.0  0.47998  0.22686  0.01740  1.0000
  H   H225      1.0  0.42098  0.13715  0.78160  1.0000
  H   H226      1.0  0.31154  0.26472  0.02330  1.0000
  C   C128      1.0  0.41204  0.08969  0.77721  1.0000
  H   H227      1.0  0.49077  0.09024  0.85140  1.0000
  Fe  Fe29      1.0  0.11664  0.60102  0.22665  1.0000
  S   S59       1.0  0.09658  0.57033  0.22163  1.0000
  S   S60       1.0  0.11043  0.62012  0.25358  1.0000
  Fe  Fe30      1.0  0.14330  0.59995  0.18809  1.0000
  S   S61       1.0  0.12552  0.56906  0.18011  1.0000
  S   S62       1.0  0.17299  0.61584  0.17037  1.0000
  Fe  Fe31      1.0  0.09282  0.58698  0.19262  1.0000
  S   S63       1.0  0.06028  0.58298  0.17756  1.0000
  Fe  Fe32      1.0  0.13058  0.55494  0.20966  1.0000
  S   S64       1.0  0.14160  0.51803  0.21859  1.0000
  S   S65       1.0  0.11004  0.61940  0.19827  1.0000
  S   S66       1.0  0.15114  0.58424  0.21697  1.0000
  Fe  Fe33      1.0  0.14520  0.36695  0.18225  1.0000
  S   S67       1.0  0.11096  0.37612  0.16949  1.0000
  Fe  Fe34      1.0  0.12721  0.38375  0.22133  1.0000
  S   S68       1.0  0.09160  0.39423  0.21123  1.0000
  H   H228      1.0  0.16507  0.61428  0.24524  1.0000
  Fe  Fe35      1.0  0.09550  0.36064  0.19676  1.0000
  Fe  Fe36      1.0  0.11032  0.40862  0.18513  1.0000
  S   S69       1.0  0.10155  0.44357  0.17072  1.0000
  S   S70       1.0  0.14576  0.40080  0.19596  1.0000
  Fe  Fe37      1.0  0.21010  0.60150  0.05909  1.0000
  S   S71       1.0  0.24902  0.59739  0.05959  1.0000
  S   S72       1.0  0.18191  0.59822  0.08278  1.0000
  H   H229      1.0  0.00914  0.63541  0.21639  1.0000
  H   H230      1.0  0.32469  0.62733  0.05363  1.0000
  H   H231      1.0  0.30035  0.56930  0.05615  1.0000
  C   C129      1.0  0.26152  0.51720  0.03711  1.0000
  C   C130      1.0  0.02430  0.50592  0.18704  1.0000
  H   H232      1.0  0.02696  0.49177  0.17702  1.0000
  Fe  Fe38      1.0  0.22112  0.36387  0.05760  1.0000
  S   S73       1.0  0.25293  0.37755  0.06798  1.0000
  C   C131      1.0  0.27291  0.49659  0.03053  1.0000
  C   C132      1.0  0.24799  0.47288  0.05151  1.0000
  C   C133      1.0  0.24322  0.51551  0.05080  1.0000
  N   N16       1.0  0.32337  0.59369  0.04236  1.0000
  S   S74       1.0  0.21128  0.39685  0.04067  1.0000
  H   H233      1.0  0.03287  0.52617  0.21896  1.0000
  S   S75       1.0  0.21034  0.63440  0.04047  1.0000
  H   H234      1.0  0.02055  0.40201  0.16713  1.0000
  Fe  Fe39      1.0  0.24756  0.57741  0.03361  1.0000
  C   C134      1.0  0.16670  0.35083  0.11006  1.0000
  H   H235      1.0  0.32993  0.56046  0.03026  1.0000
  C   C135      1.0  0.33648  0.61338  0.04727  1.0000
  H   H236      1.0  0.01375  0.52063  0.18008  1.0000
  H   H237      1.0  0.01393  0.57495  0.16961  1.0000
  H   H238      1.0  0.27507  0.45878  0.03254  1.0000
  H   H239      1.0  0.21092  0.48072  0.02783  1.0000
  C   C136      1.0  0.23670  0.49348  0.05810  1.0000
  H   H240      1.0  0.07689  0.52898  0.17928  1.0000
  H   H241      1.0  0.22887  0.65906  0.07410  1.0000
  C   C137      1.0  0.13034  0.49760  0.20511  1.0000
  C   C138      1.0  0.12338  0.50376  0.18689  1.0000
  C   C139      1.0  0.11430  0.48719  0.17633  1.0000
  C   C140      1.0  0.11203  0.46450  0.18408  1.0000
  C   C141      1.0  0.11880  0.45838  0.20233  1.0000
  C   C142      1.0  0.12815  0.47485  0.21276  1.0000
  H   H242      1.0  0.12545  0.52110  0.18076  1.0000
  H   H243      1.0  0.10929  0.49192  0.16215  1.0000
  H   H244      1.0  0.11677  0.44098  0.20855  1.0000
  H   H245      1.0  0.13348  0.47001  0.22686  1.0000
  C   C143      1.0  0.17619  0.60910  0.14636  1.0000
  C   C144      1.0  0.19770  0.61119  0.13619  1.0000
  C   C145      1.0  0.20023  0.60679  0.11688  1.0000
  C   C146      1.0  0.18103  0.60095  0.10748  1.0000
  C   C147      1.0  0.15967  0.59869  0.11774  1.0000
  C   C148      1.0  0.15728  0.60254  0.13706  1.0000
  H   H246      1.0  0.21248  0.61601  0.14332  1.0000
  H   H247      1.0  0.21692  0.60806  0.10929  1.0000
  H   H248      1.0  0.14471  0.59418  0.11063  1.0000
  H   H249      1.0  0.14060  0.60098  0.14466  1.0000
  C   C149      1.0  0.03205  0.61231  0.19984  1.0000
  C   C150      1.0  0.03344  0.59541  0.18648  1.0000
  C   C151      1.0  0.18170  0.66973  0.23877  1.0000
  H   H250      1.0  0.04782  0.61820  0.20485  1.0000
  H   H251      1.0  0.06395  0.47903  0.19215  1.0000
  C   C152      1.0  0.04059  0.37368  0.18101  1.0000
  H   H252      1.0  0.01361  0.49923  0.19948  1.0000
  H   H253      1.0  0.05705  0.38108  0.17725  1.0000
  N   N17       1.0  0.04676  0.51345  0.19254  1.0000
  H   H254      1.0  0.13115  0.34619  0.26208  1.0000
  Fe  Fe40      1.0  0.24448  0.40978  0.04941  1.0000
  C   C153      1.0  0.26606  0.47451  0.03759  1.0000
  C   C154      1.0  0.06012  0.49349  0.20177  1.0000
  C   C155      1.0  0.18814  0.63854  0.21752  1.0000
  H   H255      1.0  0.21833  0.35904  0.14058  1.0000
  C   C156      1.0  0.14905  0.65335  0.22623  1.0000
  C   C157      1.0  0.33950  0.57549  0.03409  1.0000
  H   H256      1.0  0.18905  0.65100  0.20493  1.0000
  H   H257      1.0  0.20084  0.45244  0.03421  1.0000
  H   H258      1.0  0.17314  0.64817  0.10199  1.0000
  H   H259      1.0  0.14895  0.66608  0.21381  1.0000
  S   S76       1.0  0.12994  0.34875  0.20873  1.0000
  S   S77       1.0  0.20863  0.57875  0.03473  1.0000
  H   H260      1.0  0.22275  0.49243  0.06891  1.0000
  H   H261      1.0  0.14491  0.58209  0.26295  1.0000
  H   H262      1.0  0.20614  0.63422  0.22202  1.0000
  C   C158      1.0  0.18142  0.35529  0.14079  1.0000
  H   H263      1.0  0.03188  0.54733  0.19939  1.0000
  H   H264      1.0  0.14173  0.63731  0.22198  1.0000
  C   C159      1.0  0.21655  0.65389  0.08602  1.0000
  H   H265      1.0  0.29922  0.59715  0.06634  1.0000
  C   C160      1.0  0.04000  0.35217  0.19123  1.0000
  S   S78       1.0  0.13568  0.39549  0.24982  1.0000
  C   C161      1.0  0.01296  0.58793  0.17999  1.0000
  C   C162      1.0  0.06025  0.52221  0.17558  1.0000
  H   H266      1.0  0.21011  0.63691  0.08289  1.0000
  S   S79       1.0  0.23868  0.44574  0.06118  1.0000
  H   H267      1.0  0.19100  0.66068  0.11782  1.0000
  C   C163      1.0  0.18911  0.35235  0.10135  1.0000
  H   H268      1.0  0.23437  0.53120  0.05607  1.0000
  C   C164      1.0  0.18146  0.66439  0.10473  1.0000
  H   H269      1.0  0.07709  0.49870  0.20621  1.0000
  C   C165      1.0  0.01987  0.38554  0.17530  1.0000
  H   H270      1.0  0.19952  0.66640  0.24393  1.0000
  C   C166      1.0  0.20755  0.35610  0.11240  1.0000
  C   C167      1.0  0.01015  0.62201  0.20637  1.0000
  C   C168      1.0  0.20378  0.35710  0.13206  1.0000
  N   N18       1.0  0.17026  0.43917  0.14522  1.0000
  C   C169      1.0  0.19320  0.43684  0.13483  1.0000
  C   C170      1.0  0.15908  0.41684  0.14555  1.0000
  C   C171      1.0  0.15536  0.45780  0.13580  1.0000
  C   C172      1.0  0.17338  0.44516  0.16473  1.0000
  H   H271      1.0  0.20223  0.45333  0.13436  1.0000
  H   H272      1.0  0.19150  0.43241  0.12001  1.0000
  H   H273      1.0  0.20476  0.42276  0.14152  1.0000
  H   H274      1.0  0.14146  0.41814  0.15284  1.0000
  H   H275      1.0  0.15704  0.41136  0.13109  1.0000
  H   H276      1.0  0.16951  0.40259  0.15311  1.0000
  H   H277      1.0  0.13789  0.45987  0.14330  1.0000
  H   H278      1.0  0.15262  0.45387  0.12105  1.0000
  H   H279      1.0  0.16316  0.47496  0.13543  1.0000
  H   H280      1.0  0.15641  0.44683  0.17299  1.0000
  H   H281      1.0  0.18148  0.46208  0.16510  1.0000
  H   H282      1.0  0.18454  0.43152  0.17232  1.0000
  H   H283      1.0  0.18176  0.62227  0.21268  1.0000
  Fe  Fe41      1.0  0.24955  0.62925  0.03940  1.0000
  N   N19       1.0  0.17269  0.64811  0.23292  1.0000
  S   S80       1.0  0.19383  0.34672  0.07719  1.0000
  H   H284      1.0  0.14543  0.35145  0.13607  1.0000
  H   H285      1.0  0.05900  0.53901  0.20958  1.0000
  Fe  Fe42      1.0  0.27159  0.36232  0.04226  1.0000
  C   C173      1.0  0.04242  0.53225  0.20575  1.0000
  H   H286      1.0  0.05047  0.48629  0.21456  1.0000
  C   C174      1.0  0.29691  0.67246  0.04247  1.0000
  C   C175      1.0  0.17176  0.63082  0.24916  1.0000
  S   S81       1.0  0.27011  0.65912  0.04864  1.0000
  H   H287      1.0  0.13679  0.66047  0.23747  1.0000
  H   H288      1.0  0.17652  0.65796  0.06836  1.0000
  H   H289      1.0  0.35273  0.56860  0.04411  1.0000
  H   H290      1.0  0.15235  0.34790  0.10162  1.0000
  C   C176      1.0  0.31111  0.58369  0.05949  1.0000
  N   N20       1.0  0.19712  0.67178  0.08859  1.0000
  C   C177      1.0  0.31165  0.66623  0.02700  1.0000
  C   C178      1.0  0.16275  0.35279  0.12962  1.0000
  H   H291      1.0  0.34976  0.60768  0.05758  1.0000
  H   H292      1.0  0.05042  0.53689  0.16796  1.0000
  H   H293      1.0  0.22668  0.65085  0.09884  1.0000
  H   H294      1.0  0.32353  0.57646  0.07005  1.0000
  S   S82       1.0  0.17800  0.35378  0.16572  1.0000
  H   H295      1.0  0.22484  0.35737  0.10588  1.0000
  H   H296      1.0  0.15983  0.63727  0.26089  1.0000
  H   H297      1.0  0.18920  0.62646  0.25478  1.0000
  S   S83       1.0  0.27097  0.54471  0.02842  1.0000
  C   C179      1.0  0.01847  0.34280  0.19603  1.0000
  S   S84       1.0  0.30781  0.34417  0.04680  1.0000
  C   C180      1.0  0.13566  0.37996  0.27207  1.0000
  H   H298      1.0  0.29360  0.61578  0.03438  1.0000
  C   C181      1.0  0.30619  0.60216  0.02855  1.0000
  H   H299      1.0  0.34562  0.62165  0.03461  1.0000
  H   H300      1.0  0.06463  0.50828  0.16558  1.0000
  S   S85       1.0  0.23986  0.34674  0.03266  1.0000
  C   C182      1.0  0.13296  0.35596  0.27431  1.0000
  C   C183      1.0  0.18390  0.67463  0.07138  1.0000
  H   H301      1.0  0.26557  0.34211  0.09926  1.0000
  Fe  Fe43      1.0  0.08421  0.39234  0.37307  1.0000
  S   S86       1.0  0.05158  0.41349  0.36523  1.0000
  Fe  Fe44      1.0  0.13264  0.39949  0.38416  1.0000
  S   S87       1.0  0.14418  0.36120  0.38445  1.0000
  S   S88       1.0  0.15347  0.42820  0.39279  1.0000
  Fe  Fe45      1.0  0.12508  0.36209  0.35751  1.0000
  H   H302      1.0  0.02427  0.55258  0.39127  1.0000
  Fe  Fe46      1.0  0.10934  0.35617  0.39970  1.0000
  S   S89       1.0  0.11679  0.40076  0.35619  1.0000
  S   S90       1.0  0.09921  0.39440  0.40092  1.0000
  Fe  Fe47      1.0  0.08831  0.60762  0.38016  1.0000
  S   S91       1.0  0.12426  0.62014  0.37509  1.0000
  S   S92       1.0  0.05460  0.62860  0.37581  1.0000
  Fe  Fe48      1.0  0.10526  0.55728  0.38913  1.0000
  S   S93       1.0  0.14270  0.56541  0.38515  1.0000
  S   S94       1.0  0.08962  0.52228  0.39360  1.0000
  Fe  Fe49      1.0  0.13175  0.59738  0.40131  1.0000
  S   S95       1.0  0.15276  0.60807  0.42496  1.0000
  Fe  Fe50      1.0  0.13191  0.58744  0.35938  1.0000
  S   S96       1.0  0.15186  0.58190  0.33128  1.0000
  S   S97       1.0  0.09514  0.58720  0.40735  1.0000
  S   S98       1.0  0.09533  0.57700  0.36242  1.0000
  C   C184      1.0  0.13900  0.59156  0.30997  1.0000
  C   C185      1.0  0.12088  0.60903  0.30946  1.0000
  C   C186      1.0  0.14766  0.58200  0.29306  1.0000
  H   H303      1.0  0.11410  0.61658  0.32237  1.0000
  H   H304      1.0  0.16179  0.56863  0.29325  1.0000
  C   C187      1.0  0.11946  0.65697  0.46929  1.0000
  C   C188      1.0  0.10620  0.64975  0.45512  1.0000
  C   C189      1.0  0.11625  0.63497  0.44141  1.0000
  C   C190      1.0  0.13971  0.62710  0.44180  1.0000
  H   H305      1.0  0.09453  0.59372  0.50248  1.0000
  C   C191      1.0  0.01404  0.63130  0.42452  1.0000
  H   H306      1.0  0.02226  0.46801  0.41547  1.0000
  H   H307      1.0  0.10584  0.62970  0.43052  1.0000
  C   C192      1.0  0.15401  0.38395  0.43254  1.0000
  H   H308      1.0  0.09294  0.38161  0.32386  1.0000
  C   C193      1.0  0.13775  0.38109  0.30616  1.0000
  H   H309      1.0  0.16061  0.36609  0.43743  1.0000
  H   H310      1.0  0.13989  0.39089  0.31829  1.0000
  H   H311      1.0  0.13094  0.64256  0.51068  1.0000
  C   C194      1.0  0.13614  0.45463  0.39286  1.0000
  C   C195      1.0  0.11308  0.45533  0.38777  1.0000
  C   C196      1.0  0.09907  0.47620  0.38812  1.0000
  C   C197      1.0  0.10805  0.49665  0.39330  1.0000
  C   C198      1.0  0.13121  0.49615  0.39815  1.0000
  C   C199      1.0  0.14525  0.47510  0.39800  1.0000
  H   H312      1.0  0.10598  0.43986  0.38339  1.0000
  H   H313      1.0  0.08130  0.47655  0.38409  1.0000
  H   H314      1.0  0.13818  0.51188  0.40232  1.0000
  H   H315      1.0  0.16310  0.47469  0.40191  1.0000
  H   H316      1.0  0.12519  0.59511  0.49634  1.0000
  H   H317      1.0  0.16196  0.37985  0.46933  1.0000
  C   C200      1.0  0.14298  0.64919  0.46969  1.0000
  C   C201      1.0  0.03409  0.60788  0.37473  1.0000
  C   C202      1.0  0.03804  0.58572  0.38362  1.0000
  C   C203      1.0  0.04121  0.36346  0.31248  1.0000
  H   H318      1.0  0.09000  0.38225  0.28892  1.0000
  H   H319      1.0  0.05383  0.58118  0.39068  1.0000
  S   S99       1.0  0.09127  0.35360  0.37286  1.0000
  H   H320      1.0  0.02413  0.62170  0.41325  1.0000
  C   C204      1.0  0.02878  0.39596  0.36194  1.0000
  C   C205      1.0  0.02990  0.37241  0.36821  1.0000
  H   H321      1.0  0.14625  0.40662  0.47548  1.0000
  N   N21       1.0  0.06194  0.37720  0.30965  1.0000
  H   H322      1.0  0.04333  0.48545  0.40275  1.0000
  H   H323      1.0  0.04539  0.40723  0.32261  1.0000
  C   C206      1.0  0.13515  0.35711  0.30845  1.0000
  H   H324      1.0  0.08869  0.64266  0.51809  1.0000
  H   H325      1.0  0.14039  0.41093  0.28644  1.0000
  C   C207      1.0  0.02125  0.56941  0.38389  1.0000
  N   N22       1.0  0.14500  0.51153  0.33873  1.0000
  C   C208      1.0  0.15409  0.51633  0.31913  1.0000
  C   C209      1.0  0.12220  0.52457  0.34173  1.0000
  C   C210      1.0  0.16148  0.51902  0.35184  1.0000
  C   C211      1.0  0.14221  0.48627  0.34221  1.0000
  H   H326      1.0  0.15658  0.53525  0.31621  1.0000
  H   H327      1.0  0.14192  0.51131  0.30881  1.0000
  H   H328      1.0  0.17121  0.50668  0.31627  1.0000
  H   H329      1.0  0.11512  0.52205  0.35654  1.0000
  H   H330      1.0  0.12359  0.54363  0.33872  1.0000
  H   H331      1.0  0.10912  0.51905  0.33241  1.0000
  H   H332      1.0  0.15502  0.51601  0.36675  1.0000
  H   H333      1.0  0.16409  0.53798  0.34955  1.0000
  H   H334      1.0  0.17884  0.50945  0.35009  1.0000
  H   H335      1.0  0.13515  0.48222  0.35682  1.0000
  H   H336      1.0  0.15913  0.47587  0.34038  1.0000
  H   H337      1.0  0.13003  0.47995  0.33248  1.0000
  H   H338      1.0  0.12281  0.42975  0.45181  1.0000
  C   C212      1.0  0.01351  0.61349  0.36555  1.0000
  H   H339      1.0  0.04412  0.36515  0.37631  1.0000
  C   C213      1.0  0.07467  0.37163  0.29169  1.0000
  H   H340      1.0  0.17135  0.40728  0.45924  1.0000
  H   H341      1.0  0.00870  0.42371  0.34738  1.0000
  N   N23       1.0  0.14070  0.39613  0.44780  1.0000
  C   C214      1.0  0.13285  0.41992  0.44071  1.0000
  C   C215      1.0  0.12028  0.38302  0.45426  1.0000
  C   C216      1.0  0.15574  0.39755  0.46368  1.0000
  H   H342      1.0  0.14783  0.43018  0.43545  1.0000
  C   C217      1.0  0.10941  0.60498  0.50227  1.0000
  H   H343      1.0  0.16914  0.39371  0.42684  1.0000
  H   H344      1.0  0.10893  0.38084  0.44249  1.0000
  C   C218      1.0  0.11203  0.61737  0.29212  1.0000
  H   H345      1.0  0.04292  0.40742  0.29756  1.0000
  H   H346      1.0  0.02918  0.36736  0.30090  1.0000
  H   H347      1.0  0.14946  0.61677  0.51502  1.0000
  H   H348      1.0  0.08345  0.35258  0.32612  1.0000
  H   H349      1.0  0.09847  0.63136  0.29182  1.0000
  C   C219      1.0  0.13813  0.39240  0.28807  1.0000
  C   C220      1.0  0.15302  0.63426  0.45601  1.0000
  H   H350      1.0  0.12152  0.41949  0.42868  1.0000
  H   H351      1.0  0.10942  0.39196  0.46543  1.0000
  H   H352      1.0  0.03125  0.36732  0.32591  1.0000
  H   H353      1.0  0.04617  0.34439  0.31312  1.0000
  N   N24       1.0  0.01529  0.47678  0.38651  1.0000
  H   H354      1.0  0.04295  0.45496  0.39867  1.0000
  H   H355      1.0  0.15346  0.65474  0.48041  1.0000
  C   C221      1.0  0.13343  0.62676  0.52031  1.0000
  H   H356      1.0  0.07002  0.41315  0.30698  1.0000
  S   S100      1.0  0.13424  0.34242  0.33109  1.0000
  H   H357      1.0  0.03963  0.46441  0.36473  1.0000
  H   H358      1.0  0.08800  0.65564  0.45470  1.0000
  H   H359      1.0  0.17122  0.62835  0.45633  1.0000
  C   C222      1.0  0.07726  0.37138  0.32536  1.0000
  H   H360      1.0  0.12564  0.36518  0.46013  1.0000
  C   C223      1.0  0.00964  0.40552  0.35229  1.0000
  H   H361      1.0  0.04034  0.49490  0.36865  1.0000
  H   H362      1.0  0.02519  0.64494  0.42859  1.0000
  C   C224      1.0  0.03168  0.47104  0.40154  1.0000
  H   H363      1.0  0.14301  0.38213  0.42056  1.0000
  C   C225      1.0  0.13292  0.34457  0.29244  1.0000
  C   C226      1.0  0.02861  0.48039  0.36830  1.0000
  H   H364      1.0  0.01154  0.61876  0.43688  1.0000
  C   C227      1.0  0.05469  0.40237  0.30914  1.0000
  H   H365      1.0  0.06816  0.37522  0.33911  1.0000
  C   C228      1.0  0.01209  0.35830  0.36457  1.0000
  H   H366      1.0  0.01183  0.51337  0.39151  1.0000
  H   H367      1.0  0.01030  0.44073  0.38260  1.0000
  N   N25       1.0  0.11292  0.61272  0.52121  1.0000
  H   H368      1.0  0.08128  0.35297  0.29185  1.0000
  H   H369      1.0  0.01682  0.48486  0.35663  1.0000
  H   H370      1.0  0.10557  0.62014  0.49218  1.0000
  H   H371      1.0  0.06350  0.37519  0.27952  1.0000
  H   H372      1.0  0.01065  0.63042  0.35826  1.0000
  C   C229      1.0  0.13823  0.58976  0.27581  1.0000
  S   S101      1.0  0.10518  0.67425  0.48682  1.0000
  C   C230      1.0  0.12066  0.60782  0.27522  1.0000
  H   H373      1.0  0.00603  0.64921  0.38993  1.0000
  H   H374      1.0  0.00608  0.67261  0.40516  1.0000
  S   S102      1.0  0.12609  0.64711  0.57387  1.0000
  H   H375      1.0  0.19781  0.54064  0.62553  1.0000
  Fe  Fe51      1.0  0.11548  0.37134  0.72861  1.0000
  S   S103      1.0  0.10672  0.40844  0.71874  1.0000
  H   H376      1.0  0.03123  0.46830  0.72227  1.0000
  H   H377      1.0  0.10160  0.58127  0.53566  1.0000
  S   S104      1.0  0.12416  0.39493  0.67574  1.0000
  Fe  Fe52      1.0  0.14020  0.40590  0.70144  1.0000
  S   S105      1.0  0.16165  0.43673  0.70370  1.0000
  Fe  Fe53      1.0  0.09137  0.39428  0.69435  1.0000
  S   S106      1.0  0.05724  0.41160  0.68552  1.0000
  S   S107      1.0  0.15049  0.36938  0.71275  1.0000
  Fe  Fe54      1.0  0.13476  0.61115  0.68236  1.0000
  S   S108      1.0  0.10054  0.59768  0.67712  1.0000
  S   S109      1.0  0.15366  0.63298  0.65927  1.0000
  Fe  Fe55      1.0  0.13555  0.58730  0.72236  1.0000
  S   S110      1.0  0.10159  0.57167  0.71955  1.0000
  S   S111      1.0  0.15226  0.57596  0.74972  1.0000
  Fe  Fe56      1.0  0.11511  0.56385  0.69045  1.0000
  S   S112      1.0  0.10741  0.53132  0.67674  1.0000
  Fe  Fe57      1.0  0.09039  0.60676  0.70669  1.0000
  S   S113      1.0  0.05499  0.62121  0.71628  1.0000
  S   S114      1.0  0.15034  0.57646  0.69395  1.0000
  S   S115      1.0  0.12338  0.62330  0.71130  1.0000
  N   N26       1.0  0.15327  0.42562  0.76210  1.0000
  C   C231      1.0  0.17938  0.54274  0.63107  1.0000
  H   H378      1.0  0.08944  0.63032  0.76926  1.0000
  H   H379      1.0  0.16507  0.58333  0.61180  1.0000
  H   H380      1.0  0.20781  0.56835  0.64869  1.0000
  C   C232      1.0  0.03546  0.60045  0.71239  1.0000
  C   C233      1.0  0.04246  0.58179  0.70123  1.0000
  H   H381      1.0  0.07619  0.48686  0.70426  1.0000
  H   H382      1.0  0.14474  0.58485  0.65196  1.0000
  H   H383      1.0  0.06000  0.57992  0.69514  1.0000
  H   H384      1.0  0.01254  0.50236  0.70405  1.0000
  H   H385      1.0  0.12827  0.45519  0.76181  1.0000
  H   H386      1.0  0.03181  0.55184  0.68826  1.0000
  C   C234      1.0  0.14662  0.46309  0.69632  1.0000
  C   C235      1.0  0.12833  0.46306  0.68433  1.0000
  C   C236      1.0  0.11674  0.48416  0.67817  1.0000
  C   C237      1.0  0.12277  0.50533  0.68447  1.0000
  C   C238      1.0  0.14080  0.50541  0.69672  1.0000
  C   C239      1.0  0.15291  0.48431  0.70245  1.0000
  H   H387      1.0  0.12346  0.44680  0.67946  1.0000
  H   H388      1.0  0.10310  0.48407  0.66845  1.0000
  H   H389      1.0  0.14552  0.52169  0.70170  1.0000
  H   H390      1.0  0.16702  0.48443  0.71175  1.0000
  C   C240      1.0  0.03397  0.39552  0.69463  1.0000
  C   C241      1.0  0.14930  0.56778  0.64578  1.0000
  C   C242      1.0  0.18916  0.56937  0.65374  1.0000
  C   C243      1.0  0.13188  0.64566  0.59811  1.0000
  C   C244      1.0  0.12100  0.62917  0.61041  1.0000
  C   C245      1.0  0.12645  0.62612  0.62944  1.0000
  C   C246      1.0  0.14353  0.63893  0.63626  1.0000
  C   C247      1.0  0.01284  0.60236  0.72056  1.0000
  H   H391      1.0  0.05614  0.48542  0.66569  1.0000
  H   H392      1.0  0.10825  0.61872  0.60518  1.0000
  H   H393      1.0  0.11773  0.61353  0.63867  1.0000
  C   C248      1.0  0.05053  0.59108  0.76125  1.0000
  C   C249      1.0  0.02654  0.56572  0.69746  1.0000
  H   H394      1.0  0.05943  0.58382  0.74838  1.0000
  H   H395      1.0  0.16809  0.53974  0.61946  1.0000
  H   H396      1.0  0.05234  0.50450  0.71455  1.0000
  N   N27       1.0  0.17381  0.56604  0.63841  1.0000
  C   C250      1.0  0.15434  0.65549  0.62396  1.0000
  H   H397      1.0  0.07625  0.61706  0.52879  1.0000
  C   C251      1.0  0.14513  0.59123  0.77027  1.0000
  H   H398      1.0  0.14589  0.55390  0.65702  1.0000
  H   H399      1.0  0.06307  0.51111  0.69080  1.0000
  H   H400      1.0  0.17044  0.45664  0.76634  1.0000
  H   H401      1.0  0.02694  0.62010  0.64960  1.0000
  H   H402      1.0  0.17265  0.39272  0.75821  1.0000
  H   H403      1.0  0.02245  0.34898  0.72476  1.0000
  C   C252      1.0  0.05248  0.47142  0.67673  1.0000
  H   H404      1.0  0.17440  0.60205  0.62854  1.0000
  C   C253      1.0  0.15814  0.40393  0.75213  1.0000
  H   H405      1.0  0.05396  0.37453  0.71473  1.0000
  H   H406      1.0  0.18698  0.55592  0.66554  1.0000
  H   H407      1.0  0.19537  0.58291  0.61668  1.0000
  H   H408      1.0  0.13705  0.56606  0.63458  1.0000
  C   C254      1.0  0.09211  0.62704  0.52785  1.0000
  H   H409      1.0  0.14254  0.36000  0.60544  1.0000
  H   H410      1.0  0.15104  0.35017  0.76753  1.0000
  H   H411      1.0  0.06910  0.46076  0.67895  1.0000
  H   H412      1.0  0.17693  0.44485  0.74373  1.0000
  H   H413      1.0  0.06439  0.63406  0.75542  1.0000
  H   H414      1.0  0.00902  0.41441  0.67710  1.0000
  C   C255      1.0  0.07780  0.62096  0.76096  1.0000
  Fe  Fe58      1.0  0.13161  0.35836  0.68805  1.0000
  C   C256      1.0  0.13244  0.43866  0.75468  1.0000
  H   H415      1.0  0.08835  0.61430  0.74858  1.0000
  C   C257      1.0  0.03739  0.37758  0.70855  1.0000
  C   C258      1.0  0.05926  0.49656  0.70135  1.0000
  H   H416      1.0  0.13650  0.62421  0.75556  1.0000
  H   H417      1.0  0.02636  0.44963  0.70380  1.0000
  C   C259      1.0  0.01931  0.36341  0.71456  1.0000
  H   H418      1.0  0.03662  0.60412  0.75643  1.0000
  C   C260      1.0  0.14833  0.65908  0.60505  1.0000
  C   C261      1.0  0.03862  0.46178  0.70867  1.0000
  C   C262      1.0  0.17345  0.44010  0.75902  1.0000
  H   H419      1.0  0.04044  0.45963  0.67110  1.0000
  H   H420      1.0  0.11956  0.59773  0.54887  1.0000
  S   S116      1.0  0.10284  0.36508  0.75933  1.0000
  H   H421      1.0  0.18522  0.58679  0.65967  1.0000
  H   H422      1.0  0.16299  0.40770  0.73697  1.0000
  H   H423      1.0  0.14389  0.36264  0.63999  1.0000
  C   C263      1.0  0.13753  0.61485  0.76916  1.0000
  C   C264      1.0  0.17733  0.58429  0.62314  1.0000
  H   H424      1.0  0.18950  0.43067  0.76429  1.0000
  H   H425      1.0  0.14263  0.39348  0.75280  1.0000
  H   H426      1.0  0.05507  0.45107  0.71144  1.0000
  H   H427      1.0  0.17666  0.52863  0.64229  1.0000
  S   S117      1.0  0.09757  0.35705  0.70507  1.0000
  H   H428      1.0  0.11691  0.42812  0.75672  1.0000
  H   H429      1.0  0.13503  0.44322  0.73930  1.0000
  C   C265      1.0  0.14060  0.34627  0.63434  1.0000
  N   N28       1.0  0.04268  0.48111  0.69445  1.0000
  H   H430      1.0  0.09429  0.63341  0.54204  1.0000
  H   H431      1.0  0.16763  0.66543  0.62903  1.0000
  C   C266      1.0  0.02039  0.49460  0.69101  1.0000
  H   H432      1.0  0.00742  0.48342  0.68590  1.0000
  C   C267      1.0  0.01187  0.40039  0.68771  1.0000
  H   H433      1.0  0.02275  0.50927  0.68028  1.0000
  H   H434      1.0  0.09618  0.57749  0.76595  1.0000
  H   H435      1.0  0.00751  0.61644  0.72956  1.0000
  C   C268      1.0  0.13985  0.34472  0.61473  1.0000
  N   N29       1.0  0.06711  0.60184  0.77247  1.0000
  H   H436      1.0  0.04197  0.57666  0.76945  1.0000
  H   H437      1.0  0.15701  0.67168  0.59570  1.0000
  H   H438      1.0  0.01472  0.61843  0.62715  1.0000
  C   C269      1.0  0.11679  0.59223  0.53449  1.0000
  H   H439      1.0  0.13669  0.63273  0.53442  1.0000
  H   H440      1.0  0.01637  0.57982  0.65903  1.0000
  C   C270      1.0  0.01054  0.62278  0.64201  1.0000
  H   H441      1.0  0.13241  0.58109  0.52990  1.0000
  Fe  Fe59      1.0  0.21096  0.61149  0.01595  1.0000
  S   S118      1.0  0.25029  0.60902  0.01314  1.0000
  S   S119      1.0  0.18172  0.61941  0.99563  1.0000
  H   H442      1.0  0.31471  0.60994  0.01544  1.0000
  C   C271      1.0  0.14008  0.66528  0.92366  1.0000
  S   S120      1.0  0.22244  0.39348  0.98690  1.0000
  Fe  Fe60      1.0  0.14889  0.42339  0.87961  1.0000
  S   S121      1.0  0.16947  0.38907  0.87924  1.0000
  S   S122      1.0  0.16604  0.45715  0.87446  1.0000
  Fe  Fe61      1.0  0.10246  0.40193  0.88417  1.0000
  Fe  Fe62      1.0  0.14490  0.37795  0.90321  1.0000
  C   C272      1.0  0.10672  0.37092  0.79681  1.0000
  Fe  Fe63      1.0  0.14247  0.37890  0.86036  1.0000
  H   H443      1.0  0.19061  0.56171  0.92392  1.0000
  S   S123      1.0  0.12627  0.41334  0.90517  1.0000
  S   S124      1.0  0.12406  0.41445  0.85870  1.0000
  Fe  Fe64      1.0  0.13853  0.60544  0.89286  1.0000
  S   S125      1.0  0.10474  0.59402  0.90616  1.0000
  S   S126      1.0  0.17191  0.60655  0.90831  1.0000
  Fe  Fe65      1.0  0.11873  0.61372  0.85343  1.0000
  S   S127      1.0  0.08326  0.60314  0.86389  1.0000
  S   S128      1.0  0.12350  0.62989  0.82366  1.0000
  Fe  Fe66      1.0  0.08786  0.62363  0.88881  1.0000
  S   S129      1.0  0.06035  0.64846  0.90174  1.0000
  Fe  Fe67      1.0  0.10293  0.57443  0.88017  1.0000
  S   S130      1.0  0.08904  0.53907  0.88431  1.0000
  S   S131      1.0  0.12189  0.63686  0.87730  1.0000
  S   S132      1.0  0.13830  0.58317  0.86794  1.0000
  C   C273      1.0  0.14442  0.47981  0.87644  1.0000
  C   C274      1.0  0.12499  0.47686  0.88881  1.0000
  C   C275      1.0  0.10822  0.49527  0.89130  1.0000
  C   C276      1.0  0.11059  0.51660  0.88116  1.0000
  C   C277      1.0  0.12988  0.51961  0.86861  1.0000
  C   C278      1.0  0.14695  0.50123  0.86636  1.0000
  H   H444      1.0  0.12311  0.46059  0.89684  1.0000
  H   H445      1.0  0.09336  0.49293  0.90109  1.0000
  H   H446      1.0  0.13141  0.53586  0.86035  1.0000
  H   H447      1.0  0.16191  0.50347  0.85668  1.0000
  C   C279      1.0  0.04541  0.37312  0.89147  1.0000
  N   N30       1.0  0.11556  0.67197  0.92941  1.0000
  H   H448      1.0  0.34418  0.67178  0.01115  1.0000
  C   C280      1.0  0.02641  0.35890  0.89324  1.0000
  C   C281      1.0  0.02405  0.62283  0.89229  1.0000
  C   C282      1.0  0.03102  0.64405  0.89797  1.0000
  H   H449      1.0  0.08852  0.37696  0.79678  1.0000
  H   H450      1.0  0.03687  0.60849  0.89003  1.0000
  Fe  Fe68      1.0  0.23275  0.38147  0.01662  1.0000
  H   H451      1.0  0.01595  0.42510  0.88090  1.0000
  C   C283      1.0  0.13274  0.61462  0.80350  1.0000
  C   C284      1.0  0.14046  0.59099  0.80465  1.0000
  H   H452      1.0  0.19052  0.42735  0.00875  1.0000
  H   H453      1.0  0.14153  0.58168  0.81827  1.0000
  S   S133      1.0  0.06470  0.41589  0.88489  1.0000
  C   C285      1.0  0.11826  0.37000  0.81371  1.0000
  H   H454      1.0  0.21673  0.49417  0.99466  1.0000
  C   C286      1.0  0.10331  0.65081  0.93531  1.0000
  C   C287      1.0  0.20368  0.38234  0.97127  1.0000
  C   C288      1.0  0.19865  0.39567  0.95459  1.0000
  C   C289      1.0  0.18424  0.38758  0.94150  1.0000
  C   C290      1.0  0.17487  0.36586  0.94479  1.0000
  H   H455      1.0  0.20612  0.41230  0.95167  1.0000
  H   H456      1.0  0.18069  0.39801  0.92869  1.0000
  C   C291      1.0  0.17973  0.61333  0.97168  1.0000
  C   C292      1.0  0.19931  0.61140  0.95915  1.0000
  C   C293      1.0  0.19662  0.60907  0.93984  1.0000
  C   C294      1.0  0.17443  0.60823  0.93288  1.0000
  C   C295      1.0  0.15494  0.60904  0.94552  1.0000
  C   C296      1.0  0.15756  0.61203  0.96474  1.0000
  H   H457      1.0  0.21644  0.61256  0.96424  1.0000
  H   H458      1.0  0.21184  0.60836  0.93019  1.0000
  H   H459      1.0  0.13785  0.60779  0.94044  1.0000
  H   H460      1.0  0.14233  0.61337  0.97435  1.0000
  S   S134      1.0  0.15749  0.35467  0.92813  1.0000
  C   C297      1.0  0.14690  0.57943  0.78807  1.0000
  C   C298      1.0  0.14902  0.41976  0.78246  1.0000
  N   N31       1.0  0.03744  0.48712  0.86938  1.0000
  H   H461      1.0  0.03031  0.51827  0.85176  1.0000
  H   H462      1.0  0.19121  0.50064  0.90905  1.0000
  H   H463      1.0  0.18193  0.56205  0.89068  1.0000
  C   C299      1.0  0.08542  0.58403  0.77829  1.0000
  H   H464      1.0  0.08453  0.65511  0.93907  1.0000
  H   H465      1.0  0.19958  0.53525  0.88847  1.0000
  C   C300      1.0  0.04173  0.39708  0.88693  1.0000
  H   H466      1.0  0.10423  0.67344  0.90116  1.0000
  H   H467      1.0  0.18383  0.53756  0.93991  1.0000
  H   H468      1.0  0.14584  0.43569  0.79054  1.0000
  S   S135      1.0  0.15603  0.35826  0.83537  1.0000
  H   H469      1.0  0.23507  0.44282  0.98961  1.0000
  H   H470      1.0  0.28717  0.49772  0.02001  1.0000
  C   C301      1.0  0.17381  0.50905  0.91311  1.0000
  H   H471      1.0  0.04133  0.46099  0.89214  1.0000
  N   N32       1.0  0.20587  0.46035  0.00439  1.0000
  H   H472      1.0  0.17129  0.34772  0.79749  1.0000
  H   H473      1.0  0.18683  0.48974  0.99116  1.0000
  H   H474      1.0  0.12603  0.64489  0.78475  1.0000
  H   H475      1.0  0.09740  0.59128  0.78766  1.0000
  H   H476      1.0  0.01076  0.51498  0.87223  1.0000
  C   C302      1.0  0.02300  0.47273  0.85899  1.0000
  C   C303      1.0  0.19404  0.36075  0.97474  1.0000
  C   C304      1.0  0.19936  0.46753  0.02365  1.0000
  C   C305      1.0  0.13167  0.62653  0.78572  1.0000
  H   H477      1.0  0.19777  0.35027  0.98748  1.0000
  H   H478      1.0  0.10396  0.63868  0.92375  1.0000
  H   H479      1.0  0.04698  0.48996  0.89775  1.0000
  C   C306      1.0  0.02919  0.51199  0.86683  1.0000
  H   H480      1.0  0.14138  0.65276  0.91230  1.0000
  H   H481      1.0  0.16403  0.40918  0.78847  1.0000
  C   C307      1.0  0.14154  0.36148  0.81407  1.0000
  H   H482      1.0  0.24267  0.46189  0.00699  1.0000
  H   H483      1.0  0.06280  0.36563  0.89377  1.0000
  H   H484      1.0  0.20968  0.47619  0.97639  1.0000
  H   H485      1.0  0.01757  0.48253  0.89572  1.0000
  H   H486      1.0  0.06366  0.48779  0.84659  1.0000
  H   H487      1.0  0.10893  0.37524  0.82655  1.0000
  C   C308      1.0  0.01908  0.40662  0.88412  1.0000
  H   H488      1.0  0.15296  0.56119  0.78904  1.0000
  H   H489      1.0  0.17133  0.45085  0.99974  1.0000
  H   H490      1.0  0.02289  0.47855  0.84383  1.0000
  H   H491      1.0  0.17006  0.53737  0.88171  1.0000
  H   H492      1.0  0.14961  0.65669  0.93563  1.0000
  H   H493      1.0  0.11109  0.64120  0.94770  1.0000
  C   C309      1.0  0.06190  0.48393  0.86206  1.0000
  S   S136      1.0  0.11891  0.36530  0.88431  1.0000
  H   H494      1.0  0.16865  0.50239  0.92763  1.0000
  C   C310      1.0  0.18966  0.44341  0.99917  1.0000
  H   H495      1.0  0.19402  0.43766  0.98467  1.0000
  H   H496      1.0  0.14315  0.53902  0.93022  1.0000
  H   H497      1.0  0.02964  0.45406  0.85988  1.0000
  C   C311      1.0  0.05473  0.61131  0.78940  1.0000
  H   H498      1.0  0.14940  0.56433  0.91533  1.0000
  C   C312      1.0  0.18171  0.54268  0.89228  1.0000
  H   H499      1.0  0.29607  0.58770  0.02447  1.0000
  H   H500      1.0  0.13759  0.54007  0.90568  1.0000
  H   H501      1.0  0.06689  0.61946  0.79821  1.0000
  C   C313      1.0  0.18970  0.54243  0.92511  1.0000
  C   C314      1.0  0.20469  0.48105  0.99102  1.0000
  H   H502      1.0  0.30657  0.65351  0.01784  1.0000
  C   C315      1.0  0.22985  0.44943  0.00371  1.0000
  H   H503      1.0  0.20772  0.53462  0.92253  1.0000
  H   H504      1.0  0.04087  0.62493  0.78555  1.0000
  H   H505      1.0  0.07295  0.49581  0.86854  1.0000
  H   H506      1.0  0.03975  0.52325  0.87462  1.0000
  H   H507      1.0  0.04643  0.59739  0.79845  1.0000
  C   C316      1.0  0.14995  0.54497  0.91592  1.0000
  H   H508      1.0  0.16129  0.50284  0.90367  1.0000
  N   N33       1.0  0.17379  0.53478  0.91161  1.0000
  C   C317      1.0  0.01422  0.66238  0.90104  1.0000
  H   H509      1.0  0.06926  0.46572  0.86513  1.0000
  S   S137      1.0  0.26587  0.39610  0.02462  1.0000
  C   C318      1.0  0.03575  0.47981  0.88964  1.0000
  C   C319      1.0  0.17983  0.35251  0.96150  1.0000
  C   C320      1.0  0.15334  0.35452  0.79729  1.0000
  H   H510      1.0  0.23155  0.43426  0.01410  1.0000
  H   H511      1.0  0.34892  0.58240  0.02105  1.0000
  H   H512      1.0  0.07795  0.56879  0.78622  1.0000
  H   H513      1.0  0.13353  0.40935  0.78521  1.0000
  H   H514      1.0  0.16637  0.34214  0.87660  1.0000
  C   C321      1.0  0.11848  0.36403  0.78002  1.0000
  C   C322      1.0  0.14193  0.35598  0.78028  1.0000
  H   H515      1.0  0.18118  0.47533  0.02488  1.0000
  Fe  Fe69      1.0  0.40508  0.86120  0.22115  1.0000
  S   S138      1.0  0.43714  0.88077  0.21577  1.0000
  S   S139      1.0  0.38270  0.86329  0.24832  1.0000
  Fe  Fe70      1.0  0.40867  0.84159  0.18190  1.0000
  S   S140      1.0  0.44117  0.85962  0.17322  1.0000
  S   S141      1.0  0.39293  0.81323  0.16680  1.0000
  Fe  Fe71      1.0  0.45244  0.84877  0.20213  1.0000
  S   S142      1.0  0.48874  0.83369  0.20616  1.0000
  Fe  Fe72      1.0  0.42346  0.89051  0.18739  1.0000
  S   S143      1.0  0.42993  0.92650  0.17488  1.0000
  S   S144      1.0  0.42165  0.82812  0.21003  1.0000
  S   S145      1.0  0.38968  0.87366  0.19367  1.0000
  Fe  Fe73      1.0  0.39519  0.78060  0.05809  1.0000
  S   S146      1.0  0.40379  0.74222  0.06452  1.0000
  S   S147      1.0  0.38453  0.80968  0.07806  1.0000
  H   H516      1.0  0.37694  0.91478  0.25586  1.0000
  Fe  Fe74      1.0  0.38799  0.73703  0.03683  1.0000
  H   H517      1.0  0.43154  0.92968  0.22969  1.0000
  Fe  Fe75      1.0  0.43747  0.74768  0.04731  1.0000
  H   H518      1.0  0.46561  0.81454  0.11607  1.0000
  H   H519      1.0  0.39203  0.96439  0.26171  1.0000
  S   S148      1.0  0.42946  0.78604  0.04251  1.0000
  H   H520      1.0  0.43089  0.76451  0.11064  1.0000
  H   H521      1.0  0.32167  0.80359  0.23090  1.0000
  H   H522      1.0  0.41755  0.95788  0.23355  1.0000
  C   C323      1.0  0.50072  0.73813  0.04942  1.0000
  H   H523      1.0  0.37554  0.76674  0.21891  1.0000
  N   N34       1.0  0.45881  0.78551  0.10012  1.0000
  C   C324      1.0  0.41856  0.84699  0.27074  1.0000
  H   H524      1.0  0.44356  0.79659  0.12671  1.0000
  H   H525      1.0  0.49302  0.78006  0.11068  1.0000
  C   C325      1.0  0.35462  0.82229  0.20774  1.0000
  C   C326      1.0  0.37325  0.78344  0.21027  1.0000
  C   C327      1.0  0.36661  0.80581  0.23792  1.0000
  C   C328      1.0  0.41792  0.95053  0.18693  1.0000
  C   C329      1.0  0.39628  0.95003  0.19688  1.0000
  C   C330      1.0  0.38637  0.97019  0.20520  1.0000
  H   H526      1.0  0.38396  0.81308  0.23566  1.0000
  C   C331      1.0  0.42986  0.97095  0.18581  1.0000
  H   H527      1.0  0.38686  0.93438  0.19754  1.0000
  H   H528      1.0  0.48405  0.88404  0.20181  1.0000
  H   H529      1.0  0.44657  0.97138  0.17808  1.0000
  C   C332      1.0  0.39170  0.81246  0.14200  1.0000
  C   C333      1.0  0.39308  0.83256  0.12999  1.0000
  C   C334      1.0  0.39060  0.83142  0.11051  1.0000
  C   C335      1.0  0.38747  0.81010  0.10272  1.0000
  C   C336      1.0  0.38637  0.78995  0.11471  1.0000
  C   C337      1.0  0.38830  0.79118  0.13425  1.0000
  H   H530      1.0  0.39546  0.84910  0.13575  1.0000
  H   H531      1.0  0.39122  0.84716  0.10139  1.0000
  H   H532      1.0  0.38352  0.77352  0.10897  1.0000
  H   H533      1.0  0.38697  0.77556  0.14341  1.0000
  C   C338      1.0  0.32486  0.70060  0.04971  1.0000
  C   C339      1.0  0.33420  0.79099  0.22369  1.0000
  H   H534      1.0  0.42680  0.89702  0.25517  1.0000
  C   C340      1.0  0.42030  0.99082  0.19460  1.0000
  C   C341      1.0  0.43905  0.77149  0.09710  1.0000
  C   C342      1.0  0.46742  0.79636  0.08190  1.0000
  H   H535      1.0  0.42542  0.78194  0.08929  1.0000
  H   H536      1.0  0.18249  0.68321  0.22688  1.0000
  C   C343      1.0  0.20661  0.69414  0.09215  1.0000
  H   H537      1.0  0.16715  0.67790  0.10761  1.0000
  H   H538      1.0  0.48361  0.75591  0.09902  1.0000
  H   H539      1.0  0.35514  0.81905  0.24543  1.0000
  H   H540      1.0  0.34749  0.81912  0.19403  1.0000
  H   H541      1.0  0.44455  0.75633  0.08865  1.0000
  S   S149      1.0  0.47228  0.73723  0.06038  1.0000
  C   C344      1.0  0.42117  0.91093  0.26496  1.0000
  H   H542      1.0  0.29250  0.69492  0.06569  1.0000
  N   N35       1.0  0.35718  0.80062  0.21992  1.0000
  C   C345      1.0  0.30369  0.68978  0.05373  1.0000
  N   N36       1.0  0.40929  0.93132  0.25502  1.0000
  H   H543      1.0  0.42981  0.00637  0.19383  1.0000
  H   H544      1.0  0.19251  0.70819  0.09396  1.0000
  H   H545      1.0  0.37935  0.93876  0.23854  1.0000
  H   H546      1.0  0.39079  0.79013  0.20722  1.0000
  H   H547      1.0  0.47333  0.78295  0.07177  1.0000
  H   H548      1.0  0.33547  0.77460  0.23286  1.0000
  H   H549      1.0  0.36869  0.78992  0.24755  1.0000
  H   H550      1.0  0.36928  0.97007  0.21233  1.0000
  H   H551      1.0  0.39489  0.91120  0.23473  1.0000
  C   C346      1.0  0.47765  0.77019  0.10841  1.0000
  C   C347      1.0  0.50195  0.87827  0.19862  1.0000
  H   H552      1.0  0.47171  0.76186  0.12222  1.0000
  H   H553      1.0  0.37171  0.82961  0.20431  1.0000
  H   H554      1.0  0.32972  0.71383  0.05854  1.0000
  H   H555      1.0  0.34311  0.83597  0.21465  1.0000
  H   H556      1.0  0.16910  0.68800  0.07276  1.0000
  H   H557      1.0  0.42825  0.84236  0.25789  1.0000
  C   C348      1.0  0.45103  0.80399  0.11302  1.0000
  S   S150      1.0  0.36725  0.70637  0.02890  1.0000
  C   C349      1.0  0.38922  0.92375  0.24563  1.0000
  C   C350      1.0  0.33977  0.69412  0.03441  1.0000
  H   H558      1.0  0.32663  0.78692  0.21038  1.0000
  H   H559      1.0  0.45350  0.80789  0.07521  1.0000
  H   H560      1.0  0.21868  0.69999  0.08024  1.0000
  H   H561      1.0  0.43683  0.91574  0.27177  1.0000
  C   C351      1.0  0.39838  0.99061  0.20404  1.0000
  H   H562      1.0  0.36692  0.77957  0.19642  1.0000
  C   C352      1.0  0.39591  0.85727  0.27003  1.0000
  H   H563      1.0  0.43728  0.81616  0.10684  1.0000
  C   C353      1.0  0.40099  0.94869  0.26875  1.0000
  H   H564      1.0  0.44147  0.94709  0.24725  1.0000
  C   C354      1.0  0.42570  0.94193  0.24078  1.0000
  H   H565      1.0  0.21659  0.69253  0.10510  1.0000
  H   H566      1.0  0.48235  0.80706  0.08362  1.0000
  S   S151      1.0  0.37726  0.77544  0.03134  1.0000
  H   H567      1.0  0.17035  0.67728  0.25039  1.0000
  H   H568      1.0  0.19519  0.68001  0.05884  1.0000
  H   H569      1.0  0.38209  0.00591  0.15056  1.0000
  C   C355      1.0  0.50580  0.73178  0.03092  1.0000
  Fe  Fe76      1.0  0.39108  0.85240  0.39333  1.0000
  S   S152      1.0  0.40363  0.88576  0.40146  1.0000
  S   S153      1.0  0.36725  0.83295  0.41463  1.0000
  Fe  Fe77      1.0  0.41723  0.85639  0.35439  1.0000
  S   S154      1.0  0.43197  0.89015  0.36021  1.0000
  S   S155      1.0  0.42937  0.84068  0.32672  1.0000
  Fe  Fe78      1.0  0.43843  0.87338  0.38878  1.0000
  S   S156      1.0  0.46807  0.88121  0.40611  1.0000
  Fe  Fe79      1.0  0.39614  0.89945  0.37234  1.0000
  S   S157      1.0  0.37940  0.93554  0.36801  1.0000
  S   S158      1.0  0.42661  0.83856  0.38245  1.0000
  S   S159      1.0  0.38056  0.86700  0.36466  1.0000
  H   H570      1.0  0.44196  0.95610  0.40576  1.0000
  S   S160      1.0  0.33284  0.87606  0.49253  1.0000
  Fe  Fe80      1.0  0.30968  0.86632  0.51863  1.0000
  H   H571      1.0  0.50279  0.97162  0.36897  1.0000
  H   H572      1.0  0.45185  0.79860  0.46094  1.0000
  H   H573      1.0  0.13219  0.77680  0.51010  1.0000
  C   C356      1.0  0.49232  0.96410  0.38119  1.0000
  C   C357      1.0  0.38358  0.86317  0.28686  1.0000
  H   H574      1.0  0.35068  0.90120  0.38745  1.0000
  H   H575      1.0  0.36605  0.87114  0.28645  1.0000
  C   C358      1.0  0.44764  0.81770  0.46173  1.0000
  C   C359      1.0  0.41629  0.84801  0.30508  1.0000
  C   C360      1.0  0.39382  0.85881  0.30432  1.0000
  H   H576      1.0  0.45666  0.83293  0.41513  1.0000
  H   H577      1.0  0.14458  0.82505  0.51996  1.0000
  H   H578      1.0  0.43075  0.86269  0.43137  1.0000
  C   C361      1.0  0.42857  0.84216  0.28821  1.0000
  H   H579      1.0  0.38414  0.86326  0.31722  1.0000
  H   H580      1.0  0.45108  0.86271  0.44924  1.0000
  C   C362      1.0  0.50015  0.85264  0.38649  1.0000
  H   H581      1.0  0.44591  0.83372  0.28869  1.0000
  C   C363      1.0  0.35845  0.84391  0.43688  1.0000
  C   C364      1.0  0.36942  0.86222  0.44374  1.0000
  C   C365      1.0  0.36156  0.87140  0.46096  1.0000
  C   C366      1.0  0.34285  0.86217  0.47180  1.0000
  C   C367      1.0  0.33224  0.84335  0.46530  1.0000
  C   C368      1.0  0.34002  0.83429  0.44788  1.0000
  H   H582      1.0  0.38394  0.86940  0.43580  1.0000
  H   H583      1.0  0.36994  0.88587  0.46594  1.0000
  H   H584      1.0  0.31777  0.83610  0.47348  1.0000
  H   H585      1.0  0.33150  0.81997  0.44280  1.0000
  H   H586      1.0  0.11445  0.80327  0.50579  1.0000
  H   H587      1.0  0.48557  0.84562  0.38048  1.0000
  H   H588      1.0  0.38842  0.94128  0.27962  1.0000
  C   C369      1.0  0.39307  0.97918  0.37311  1.0000
  C   C370      1.0  0.39717  0.95518  0.37700  1.0000
  C   C371      1.0  0.41529  0.94696  0.38837  1.0000
  C   C372      1.0  0.42852  0.96264  0.39654  1.0000
  C   C373      1.0  0.42069  0.81804  0.43712  1.0000
  H   H589      1.0  0.41917  0.92856  0.39101  1.0000
  N   N37       1.0  0.33270  0.91427  0.41229  1.0000
  C   C374      1.0  0.32034  0.93360  0.40148  1.0000
  C   C375      1.0  0.33947  0.89513  0.39979  1.0000
  C   C376      1.0  0.31730  0.90559  0.42817  1.0000
  C   C377      1.0  0.35375  0.92275  0.41964  1.0000
  H   H590      1.0  0.33172  0.94056  0.38949  1.0000
  H   H591      1.0  0.31481  0.94834  0.41046  1.0000
  H   H592      1.0  0.30454  0.92778  0.39547  1.0000
  H   H593      1.0  0.32404  0.88790  0.39429  1.0000
  H   H594      1.0  0.34935  0.88046  0.40728  1.0000
  H   H595      1.0  0.32599  0.89063  0.43633  1.0000
  H   H596      1.0  0.30108  0.89934  0.42317  1.0000
  H   H597      1.0  0.31222  0.91935  0.43819  1.0000
  H   H598      1.0  0.36347  0.90870  0.42795  1.0000
  H   H599      1.0  0.34930  0.93736  0.42898  1.0000
  H   H600      1.0  0.36588  0.92918  0.40801  1.0000
  S   S161      1.0  0.18193  0.74225  0.52295  1.0000
  H   H601      1.0  0.42410  0.79898  0.43555  1.0000
  H   H602      1.0  0.42110  0.85737  0.45557  1.0000
  S   S162      1.0  0.11968  0.72823  0.51432  1.0000
  C   C378      1.0  0.42442  0.98664  0.39273  1.0000
  C   C379      1.0  0.49631  0.87024  0.39919  1.0000
  H   H603      1.0  0.37937  0.98566  0.36406  1.0000
  H   H604      1.0  0.48264  0.93037  0.40754  1.0000
  H   H605      1.0  0.47669  0.83348  0.43315  1.0000
  C   C380      1.0  0.43578  0.85395  0.44502  1.0000
  C   C381      1.0  0.40699  0.99485  0.38067  1.0000
  Fe  Fe81      1.0  0.11894  0.68960  0.51230  1.0000
  N   N38       1.0  0.44129  0.82868  0.44328  1.0000
  H   H606      1.0  0.31528  0.97732  0.51077  1.0000
  H   H607      1.0  0.43312  0.82013  0.47262  1.0000
  H   H608      1.0  0.40537  0.82052  0.44726  1.0000
  H   H609      1.0  0.40948  0.90299  0.27622  1.0000
  H   H610      1.0  0.21870  0.76878  0.50588  1.0000
  H   H611      1.0  0.41540  0.82598  0.42326  1.0000
  C   C382      1.0  0.46099  0.82509  0.42926  1.0000
  S   S163      1.0  0.27147  0.87772  0.52380  1.0000
  H   H612      1.0  0.46312  0.82537  0.46679  1.0000
  H   H613      1.0  0.41564  0.95466  0.27623  1.0000
  H   H614      1.0  0.24162  0.79969  0.51693  1.0000
  C   C383      1.0  0.30483  0.97755  0.52387  1.0000
  H   H615      1.0  0.10231  0.77897  0.51905  1.0000
  H   H616      1.0  0.47955  0.97818  0.38608  1.0000
  C   C384      1.0  0.21542  0.77434  0.52007  1.0000
  H   H617      1.0  0.46587  0.80625  0.42769  1.0000
  H   H618      1.0  0.50332  0.93719  0.42384  1.0000
  C   C385      1.0  0.49261  0.94466  0.41217  1.0000
  C   C386      1.0  0.11828  0.78880  0.51647  1.0000
  H   H619      1.0  0.47981  0.95812  0.41804  1.0000
  S   S164      1.0  0.44122  0.00594  0.40322  1.0000
  H   H620      1.0  0.48215  0.95027  0.37609  1.0000
  H   H621      1.0  0.38056  0.00784  0.48702  1.0000
  H   H622      1.0  0.16138  0.79793  0.52389  1.0000
  Fe  Fe82      1.0  0.37331  0.87961  0.68081  1.0000
  S   S165      1.0  0.39329  0.90994  0.66939  1.0000
  S   S166      1.0  0.34150  0.86891  0.66696  1.0000
  Fe  Fe83      1.0  0.39989  0.87404  0.71735  1.0000
  S   S167      1.0  0.42204  0.90368  0.70851  1.0000
  S   S168      1.0  0.40525  0.85246  0.74478  1.0000
  Fe  Fe84      1.0  0.38900  0.92194  0.69870  1.0000
  S   S169      1.0  0.37881  0.95872  0.70576  1.0000
  Fe  Fe85      1.0  0.42454  0.88874  0.68014  1.0000
  S   S170      1.0  0.45825  0.88831  0.66257  1.0000
  S   S171      1.0  0.36645  0.89353  0.70963  1.0000
  S   S172      1.0  0.40498  0.85726  0.68945  1.0000
  Fe  Fe86      1.0  0.31569  0.85341  0.56078  1.0000
  S   S173      1.0  0.27871  0.86424  0.56837  1.0000
  S   S174      1.0  0.34154  0.83947  0.58226  1.0000
  H   H623      1.0  0.31116  0.76006  0.60026  1.0000
  Fe  Fe87      1.0  0.28348  0.89542  0.54838  1.0000
  S   S175      1.0  0.27200  0.93073  0.55953  1.0000
  Fe  Fe88      1.0  0.26992  0.84501  0.54338  1.0000
  H   H624      1.0  0.14328  0.76481  0.54230  1.0000
  S   S176      1.0  0.32123  0.88575  0.54251  1.0000
  S   S177      1.0  0.30748  0.83265  0.53658  1.0000
  H   H625      1.0  0.30067  0.94042  0.52523  1.0000
  S   S178      1.0  0.12895  0.71806  0.55945  1.0000
  Fe  Fe89      1.0  0.09798  0.72365  0.54129  1.0000
  H   H626      1.0  0.31265  0.80056  0.57065  1.0000
  H   H627      1.0  0.49158  0.96903  0.68536  1.0000
  C   C387      1.0  0.48765  0.95261  0.69366  1.0000
  H   H628      1.0  0.49154  0.90694  0.70144  1.0000
  C   C388      1.0  0.22443  0.79940  0.54457  1.0000
  H   H629      1.0  0.49335  0.92074  0.72296  1.0000
  C   C389      1.0  0.38496  0.88490  0.76902  1.0000
  H   H630      1.0  0.03150  0.78533  0.55156  1.0000
  H   H631      1.0  0.37876  0.89474  0.75667  1.0000
  H   H632      1.0  0.11374  0.76846  0.55153  1.0000
  C   C390      1.0  0.49884  0.85675  0.70245  1.0000
  H   H633      1.0  0.35722  0.81504  0.71184  1.0000
  H   H634      1.0  0.29337  0.82338  0.59567  1.0000
  C   C391      1.0  0.02388  0.76940  0.54870  1.0000
  C   C392      1.0  0.50297  0.91698  0.70938  1.0000
  C   C393      1.0  0.02796  0.72861  0.54219  1.0000
  N   N39       1.0  0.28690  0.78800  0.59113  1.0000
  H   H635      1.0  0.37274  0.83791  0.71989  1.0000
  C   C394      1.0  0.39886  0.86417  0.76707  1.0000
  H   H636      1.0  0.10309  0.82894  0.53179  1.0000
  H   H637      1.0  0.39143  0.99740  0.72519  1.0000
  C   C395      1.0  0.28253  0.95673  0.54872  1.0000
  C   C396      1.0  0.27734  0.97787  0.55741  1.0000
  C   C397      1.0  0.33813  0.85540  0.74313  1.0000
  H   H638      1.0  0.26651  0.97810  0.57034  1.0000
  C   C398      1.0  0.47930  0.86447  0.69235  1.0000
  C   C399      1.0  0.40305  0.97536  0.70272  1.0000
  C   C400      1.0  0.42027  0.97082  0.68848  1.0000
  C   C401      1.0  0.43842  0.98576  0.68498  1.0000
  C   C402      1.0  0.03827  0.74918  0.54581  1.0000
  C   C403      1.0  0.40457  0.99408  0.71401  1.0000
  H   H639      1.0  0.41908  0.95634  0.67971  1.0000
  H   H640      1.0  0.45098  0.98301  0.67330  1.0000
  H   H641      1.0  0.35488  0.79752  0.74465  1.0000
  C   C404      1.0  0.48225  0.87572  0.67446  1.0000
  H   H642      1.0  0.35536  0.86190  0.74543  1.0000
  H   H643      1.0  0.28475  0.79708  0.56158  1.0000
  Fe  Fe90      1.0  0.15070  0.72050  0.53199  1.0000
  C   C405      1.0  0.34214  0.86203  0.64303  1.0000
  C   C406      1.0  0.36266  0.85377  0.63346  1.0000
  C   C407      1.0  0.36217  0.84684  0.61489  1.0000
  C   C408      1.0  0.34136  0.84881  0.60548  1.0000
  C   C409      1.0  0.32094  0.85770  0.61486  1.0000
  C   C410      1.0  0.32129  0.86393  0.63364  1.0000
  H   H644      1.0  0.37881  0.85207  0.64055  1.0000
  H   H645      1.0  0.37806  0.83995  0.60777  1.0000
  H   H646      1.0  0.30480  0.85943  0.60781  1.0000
  H   H647      1.0  0.30532  0.87022  0.64096  1.0000
  N   N40       1.0  0.34075  0.83183  0.73584  1.0000
  H   H648      1.0  0.20391  0.79455  0.57066  1.0000
  C   C411      1.0  0.35501  0.83245  0.71788  1.0000
  H   H649      1.0  0.30854  0.83604  0.72203  1.0000
  C   C412      1.0  0.12983  0.77775  0.54792  1.0000
  S   S179      1.0  0.09503  0.68579  0.53822  1.0000
  H   H650      1.0  0.30623  0.82360  0.74582  1.0000
  H   H651      1.0  0.27122  0.81135  0.61142  1.0000
  Fe  Fe91      1.0  0.12757  0.67994  0.55420  1.0000
  H   H652      1.0  0.27231  0.75528  0.58771  1.0000
  C   C413      1.0  0.31755  0.82408  0.73260  1.0000
  H   H653      1.0  0.34706  0.84494  0.70709  1.0000
  C   C414      1.0  0.19418  0.77135  0.55027  1.0000
  H   H654      1.0  0.30386  0.77196  0.56702  1.0000
  C   C415      1.0  0.26689  0.77325  0.59188  1.0000
  C   C416      1.0  0.20719  0.78898  0.55648  1.0000
  C   C417      1.0  0.29753  0.78945  0.57175  1.0000
  H   H655      1.0  0.47660  0.94275  0.68509  1.0000
  H   H656      1.0  0.32791  0.85554  0.75687  1.0000
  H   H657      1.0  0.15367  0.81598  0.54316  1.0000
  S   S180      1.0  0.06877  0.75130  0.54714  1.0000
  H   H658      1.0  0.09043  0.80483  0.54495  1.0000
  H   H659      1.0  0.31966  0.78882  0.60378  1.0000
  H   H660      1.0  0.46198  0.86210  0.69854  1.0000
  H   H661      1.0  0.36983  0.82097  0.75255  1.0000
  H   H662      1.0  0.25348  0.78062  0.58209  1.0000
  C   C418      1.0  0.35232  0.81544  0.74973  1.0000
  C   C419      1.0  0.30445  0.77783  0.60412  1.0000
  H   H663      1.0  0.31888  0.80629  0.72719  1.0000
  H   H664      1.0  0.35968  0.99251  0.67385  1.0000
  S   S181      1.0  0.24033  0.82143  0.55343  1.0000
  H   H665      1.0  0.13596  0.78351  0.56124  1.0000
  H   H666      1.0  0.47686  0.95741  0.70650  1.0000
  C   C420      1.0  0.28593  0.99879  0.54940  1.0000
  N   N41       1.0  0.33181  0.92574  0.59177  1.0000
  C   C421      1.0  0.30882  0.91631  0.59617  1.0000
  C   C422      1.0  0.33698  0.94074  0.60684  1.0000
  C   C423      1.0  0.33150  0.93965  0.57361  1.0000
  C   C424      1.0  0.34990  0.90629  0.59052  1.0000
  H   H667      1.0  0.30470  0.90425  0.58543  1.0000
  H   H668      1.0  0.29460  0.93047  0.59636  1.0000
  H   H669      1.0  0.30807  0.90649  0.61011  1.0000
  H   H670      1.0  0.33738  0.93072  0.62074  1.0000
  H   H671      1.0  0.35421  0.94818  0.60396  1.0000
  H   H672      1.0  0.32357  0.95554  0.60820  1.0000
  H   H673      1.0  0.34870  0.94655  0.56949  1.0000
  H   H674      1.0  0.31842  0.95480  0.57425  1.0000
  H   H675      1.0  0.32677  0.92908  0.56206  1.0000
  H   H676      1.0  0.35126  0.89611  0.60426  1.0000
  H   H677      1.0  0.36736  0.91264  0.58648  1.0000
  H   H678      1.0  0.34601  0.89393  0.57991  1.0000
  H   H679      1.0  0.18123  0.76340  0.55970  1.0000
  H   H680      1.0  0.26513  0.81964  0.58746  1.0000
  H   H681      1.0  0.32928  0.86824  0.73312  1.0000
  C   C425      1.0  0.27880  0.81163  0.59670  1.0000
  H   H682      1.0  0.49650  0.84838  0.71640  1.0000
  H   H683      1.0  0.25826  0.77190  0.60627  1.0000
  H   H684      1.0  0.29708  0.77646  0.61891  1.0000
  S   S182      1.0  0.15155  0.68167  0.52793  1.0000
  C   C426      1.0  0.43961  0.00481  0.69604  1.0000
  H   H685      1.0  0.11177  0.82057  0.55522  1.0000
  N   N42       1.0  0.12557  0.79756  0.53408  1.0000
  C   C427      1.0  0.29954  0.99873  0.53248  1.0000
  C   C428      1.0  0.19818  0.76392  0.53196  1.0000
  C   C429      1.0  0.10691  0.81376  0.54185  1.0000
  H   H686      1.0  0.03886  0.71285  0.53992  1.0000
  C   C430      1.0  0.14719  0.80974  0.53012  1.0000
  C   C431      1.0  0.22848  0.79193  0.52630  1.0000
  C   C432      1.0  0.50475  0.87846  0.66648  1.0000
  H   H687      1.0  0.34209  0.81454  0.76347  1.0000
  C   C433      1.0  0.29652  0.95660  0.53201  1.0000
  H   H688      1.0  0.35941  0.00700  0.69529  1.0000
  Fe  Fe92      1.0  0.39589  0.88079  0.85250  1.0000
  S   S183      1.0  0.43177  0.89307  0.85407  1.0000
  S   S184      1.0  0.37689  0.88997  0.82574  1.0000
  Fe  Fe93      1.0  0.39288  0.86347  0.89435  1.0000
  S   S185      1.0  0.42808  0.87480  0.89861  1.0000
  S   S186      1.0  0.37305  0.84630  0.91953  1.0000
  Fe  Fe94      1.0  0.41807  0.90731  0.88142  1.0000
  S   S187      1.0  0.43203  0.93876  0.89277  1.0000
  Fe  Fe95      1.0  0.43856  0.85955  0.87120  1.0000
  S   S188      1.0  0.47275  0.83861  0.87195  1.0000
  S   S189      1.0  0.38151  0.89752  0.87905  1.0000
  S   S190      1.0  0.40383  0.84568  0.86764  1.0000
  C   C434      1.0  0.48663  0.88042  0.88186  1.0000
  S   S191      1.0  0.42536  0.79954  0.99014  1.0000
  C   C435      1.0  0.44970  0.76579  0.91619  1.0000
  C   C436      1.0  0.41611  0.96588  0.89143  1.0000
  C   C437      1.0  0.42680  0.98550  0.89634  1.0000
  H   H689      1.0  0.14962  0.68068  0.91830  1.0000
  C   C438      1.0  0.39326  0.96830  0.88570  1.0000
  H   H690      1.0  0.44437  0.98368  0.90100  1.0000
  H   H691      1.0  0.38487  0.95317  0.88198  1.0000
  C   C439      1.0  0.11481  0.68729  0.94533  1.0000
  H   H692      1.0  0.47047  0.88814  0.87679  1.0000
  C   C440      1.0  0.41482  0.79123  0.91350  1.0000
  C   C441      1.0  0.38706  0.83447  0.93985  1.0000
  C   C442      1.0  0.37492  0.82060  0.95354  1.0000
  C   C443      1.0  0.38612  0.81002  0.96931  1.0000
  C   C444      1.0  0.40955  0.81339  0.97152  1.0000
  C   C445      1.0  0.42145  0.82770  0.95806  1.0000
  C   C446      1.0  0.41033  0.83811  0.94234  1.0000
  H   H693      1.0  0.35688  0.81766  0.95181  1.0000
  H   H694      1.0  0.37674  0.79904  0.97959  1.0000
  H   H695      1.0  0.43952  0.83050  0.95974  1.0000
  H   H696      1.0  0.41996  0.84860  0.93204  1.0000
  C   C447      1.0  0.38658  0.88023  0.80331  1.0000
  C   C448      1.0  0.37859  0.89268  0.78707  1.0000
  H   H697      1.0  0.36383  0.99249  0.87979  1.0000
  H   H698      1.0  0.40679  0.80802  0.90746  1.0000
  H   H699      1.0  0.40479  0.77703  0.90889  1.0000
  C   C449      1.0  0.40103  0.85986  0.80133  1.0000
  H   H700      1.0  0.36739  0.90843  0.78848  1.0000
  H   H701      1.0  0.45122  0.80796  0.92932  1.0000
  H   H702      1.0  0.40714  0.85003  0.81371  1.0000
  N   N43       1.0  0.39401  0.91651  0.94319  1.0000
  C   C450      1.0  0.38181  0.90420  0.95931  1.0000
  C   C451      1.0  0.39243  0.94188  0.94569  1.0000
  C   C452      1.0  0.38307  0.91215  0.92568  1.0000
  C   C453      1.0  0.41874  0.90776  0.94195  1.0000
  H   H703      1.0  0.36310  0.91039  0.96072  1.0000
  H   H704      1.0  0.08532  0.68938  0.91713  1.0000
  H   H705      1.0  0.38253  0.88502  0.95759  1.0000
  H   H706      1.0  0.40161  0.95149  0.93367  1.0000
  H   H707      1.0  0.37402  0.94916  0.94646  1.0000
  H   H708      1.0  0.40044  0.94593  0.95880  1.0000
  H   H709      1.0  0.38421  0.89323  0.92316  1.0000
  H   H710      1.0  0.39165  0.92138  0.91325  1.0000
  H   H711      1.0  0.36431  0.91821  0.92617  1.0000
  H   H712      1.0  0.42842  0.91637  0.92973  1.0000
  H   H713      1.0  0.42057  0.88867  0.94016  1.0000
  H   H714      1.0  0.42762  0.91101  0.95485  1.0000
  C   C454      1.0  0.38136  0.99051  0.88454  1.0000
  C   C455      1.0  0.40688  0.85172  0.78329  1.0000
  H   H715      1.0  0.47094  0.80619  0.90885  1.0000
  H   H716      1.0  0.46106  0.78567  0.88178  1.0000
  C   C456      1.0  0.45221  0.80752  0.91372  1.0000
  S   S192      1.0  0.42274  0.73957  0.02022  1.0000
  H   H717      1.0  0.44071  0.75070  0.91186  1.0000
  H   H718      1.0  0.43331  0.77320  0.88157  1.0000
  H   H719      1.0  0.44789  0.76559  0.93187  1.0000
  H   H720      1.0  0.09655  0.69261  0.95003  1.0000
  C   C457      1.0  0.49200  0.85635  0.88146  1.0000
  H   H721      1.0  0.49188  0.72743  0.02256  1.0000
  Fe  Fe96      1.0  0.41257  0.77801  0.01633  1.0000
  H   H722      1.0  0.41215  0.79133  0.92911  1.0000
  H   H723      1.0  0.12393  0.70343  0.94138  1.0000
  H   H724      1.0  0.44474  0.82462  0.90787  1.0000
  C   C458      1.0  0.44241  0.78767  0.88681  1.0000
  N   N44       1.0  0.43978  0.78804  0.90755  1.0000
  H   H725      1.0  0.42229  0.99344  0.83551  1.0000
  H   H726      1.0  0.46855  0.76287  0.91206  1.0000
  H   H727      1.0  0.43509  0.80427  0.87994  1.0000
  H   H728      1.0  0.11259  0.70067  0.90856  1.0000
  H   H729      1.0  0.38971  0.90683  0.97280  1.0000
  C   C459      1.0  0.50257  0.89491  0.88822  1.0000
  H   H730      1.0  0.49552  0.85692  0.81885  1.0000
  H   H731      1.0  0.49850  0.91356  0.88796  1.0000
  C   C460      1.0  0.50326  0.86933  0.82762  1.0000
  H   H732      1.0  0.49469  0.86744  0.84198  1.0000
  H   H733      1.0  0.41760  0.83565  0.78191  1.0000
  H   H734      1.0  0.49847  0.88733  0.82185  1.0000
  C   C461      1.0  0.10399  0.68450  0.91340  1.0000
  H   H735      1.0  0.40230  0.00044  0.80537  1.0000
  H   H736      1.0  0.39471  0.99928  0.84780  1.0000
  H   H737      1.0  0.01943  0.67879  0.90540  1.0000
  H   H738      1.0  0.12338  0.67830  0.95765  1.0000
  H   H739      1.0  0.37508  0.00702  0.81817  1.0000
  C   C462      1.0  0.33297  0.67680  0.02315  1.0000
  C   C463      1.0  0.41024  0.00760  0.84117  1.0000
  C   C464      1.0  0.41508  0.00763  0.89491  1.0000
  Fe  Fe97      1.0  0.64306  0.10291  0.19587  1.0000
  S   S193      1.0  0.60877  0.09101  0.18904  1.0000
  S   S194      1.0  0.65832  0.13206  0.17678  1.0000
  Fe  Fe98      1.0  0.64213  0.07491  0.23444  1.0000
  S   S195      1.0  0.60740  0.06166  0.23020  1.0000
  S   S196      1.0  0.65925  0.05999  0.26102  1.0000
  Fe  Fe99      1.0  0.62148  0.05581  0.20079  1.0000
  H   H740      1.0  0.51514  0.07049  0.24358  1.0000
  Fe  Fe100     1.0  0.59769  0.09788  0.21882  1.0000
  S   S197      1.0  0.56245  0.11623  0.22360  1.0000
  S   S198      1.0  0.65731  0.06660  0.20535  1.0000
  S   S199      1.0  0.63115  0.11205  0.22547  1.0000
  H   H741      1.0  0.53929  0.04723  0.19498  1.0000
  S   S200      1.0  0.57287  0.23694  0.05925  1.0000
  Fe  Fe101     1.0  0.65794  0.22127  0.04106  1.0000
  S   S201      1.0  0.66625  0.18211  0.04073  1.0000
  C   C465      1.0  0.61433  0.27970  0.02718  1.0000
  Fe  Fe102     1.0  0.60660  0.21590  0.05182  1.0000
  S   S202      1.0  0.61068  0.17717  0.05270  1.0000
  H   H742      1.0  0.51334  0.12453  0.21865  1.0000
  Fe  Fe103     1.0  0.64341  0.17958  0.06767  1.0000
  S   S203      1.0  0.64776  0.14753  0.08811  1.0000
  S   S204      1.0  0.63757  0.21866  0.06916  1.0000
  H   H743      1.0  0.59649  0.31759  0.06058  1.0000
  H   H744      1.0  0.62020  0.00947  0.24896  1.0000
  C   C466      1.0  0.54722  0.23340  0.04762  1.0000
  H   H745      1.0  0.64174  0.26878  0.05603  1.0000
  C   C467      1.0  0.66457  0.08151  0.04184  1.0000
  C   C468      1.0  0.93746  0.34096  0.11613  1.0000
  H   H746      1.0  0.83816  0.33453  0.10249  1.0000
  H   H747      1.0  0.61184  0.26578  0.06388  1.0000
  H   H748      1.0  0.53673  0.01562  0.16146  1.0000
  C   C469      1.0  0.73929  0.29419  0.04797  1.0000
  Fe  Fe104     1.0  0.78445  0.34070  0.04500  1.0000
  H   H749      1.0  0.58120  0.29435  0.05248  1.0000
  H   H750      1.0  0.62738  0.28885  0.07186  1.0000
  H   H751      1.0  0.67569  0.10772  0.06959  1.0000
  C   C470      1.0  0.73296  0.27389  0.05859  1.0000
  C   C471      1.0  0.53352  0.06400  0.20022  1.0000
  N   N45       1.0  0.61736  0.29399  0.04322  1.0000
  H   H752      1.0  0.65911  0.01673  0.18802  1.0000
  S   S205      1.0  0.82338  0.33295  0.04156  1.0000
  C   C472      1.0  0.68092  0.11395  0.05492  1.0000
  S   S206      1.0  0.67888  0.25267  0.03030  1.0000
  C   C473      1.0  0.65399  0.13667  0.15230  1.0000
  C   C474      1.0  0.65966  0.15791  0.14285  1.0000
  C   C475      1.0  0.65685  0.16203  0.12336  1.0000
  C   C476      1.0  0.64887  0.14466  0.11303  1.0000
  C   C477      1.0  0.64304  0.12351  0.12253  1.0000
  C   C478      1.0  0.64527  0.11963  0.14208  1.0000
  H   H753      1.0  0.66663  0.17112  0.15059  1.0000
  H   H754      1.0  0.66173  0.17825  0.11622  1.0000
  H   H755      1.0  0.63700  0.10989  0.11468  1.0000
  H   H756      1.0  0.64093  0.10317  0.14912  1.0000
  C   C479      1.0  0.54961  0.07773  0.20730  1.0000
  C   C480      1.0  0.54237  0.09949  0.21411  1.0000
  C   C481      1.0  0.51898  0.10758  0.21363  1.0000
  H   H757      1.0  0.56760  0.07130  0.20753  1.0000
  N   N46       1.0  0.66461  0.10720  0.04133  1.0000
  H   H758      1.0  0.53043  0.19624  0.07619  1.0000
  H   H759      1.0  0.62810  0.11272  0.03645  1.0000
  H   H760      1.0  0.68122  0.13325  0.05498  1.0000
  C   C482      1.0  0.62489  0.27869  0.05947  1.0000
  C   C483      1.0  0.54726  0.21928  0.03236  1.0000
  H   H761      1.0  0.94081  0.32173  0.11840  1.0000
  N   N47       1.0  0.59268  0.16885  0.18473  1.0000
  C   C484      1.0  0.59021  0.14737  0.17498  1.0000
  C   C485      1.0  0.56935  0.18005  0.18933  1.0000
  C   C486      1.0  0.60652  0.18491  0.17237  1.0000
  C   C487      1.0  0.60470  0.16293  0.20230  1.0000
  H   H762      1.0  0.60750  0.13840  0.17139  1.0000
  H   H763      1.0  0.58139  0.15114  0.16158  1.0000
  H   H764      1.0  0.57982  0.13484  0.18392  1.0000
  H   H765      1.0  0.57049  0.19629  0.19678  1.0000
  H   H766      1.0  0.55972  0.18467  0.17640  1.0000
  H   H767      1.0  0.55866  0.16815  0.19868  1.0000
  H   H768      1.0  0.62434  0.17686  0.16902  1.0000
  H   H769      1.0  0.60859  0.20143  0.17916  1.0000
  H   H770      1.0  0.59834  0.18935  0.15874  1.0000
  H   H771      1.0  0.60681  0.17868  0.21010  1.0000
  H   H772      1.0  0.62240  0.15450  0.19937  1.0000
  H   H773      1.0  0.59493  0.15061  0.21191  1.0000
  H   H774      1.0  0.60126  0.26656  0.03088  1.0000
  H   H775      1.0  0.64047  0.13648  0.04621  1.0000
  H   H776      1.0  0.65064  0.01525  0.22432  1.0000
  H   H777      1.0  0.68217  0.07340  0.03800  1.0000
  H   H778      1.0  0.52609  0.25626  0.06555  1.0000
  H   H779      1.0  0.70999  0.24552  0.06194  1.0000
  C   C488      1.0  0.71449  0.26107  0.05358  1.0000
  H   H780      1.0  0.94117  0.32700  0.15247  1.0000
  C   C489      1.0  0.52331  0.18038  0.07122  1.0000
  H   H781      1.0  0.53462  0.16499  0.07608  1.0000
  H   H782      1.0  0.65235  0.07592  0.03177  1.0000
  H   H783      1.0  0.62897  0.09989  0.27268  1.0000
  C   C490      1.0  0.51005  0.07182  0.20010  1.0000
  S   S207      1.0  0.60861  0.02479  0.18806  1.0000
  H   H784      1.0  0.51968  0.08858  0.27345  1.0000
  C   C491      1.0  0.64094  0.11716  0.04647  1.0000
  C   C492      1.0  0.52627  0.24515  0.05386  1.0000
  C   C493      1.0  0.72676  0.30153  0.03218  1.0000
  H   H785      1.0  0.65235  0.30137  0.03393  1.0000
  H   H786      1.0  0.84614  0.32292  0.13589  1.0000
  C   C494      1.0  0.70843  0.28859  0.02707  1.0000
  S   S208      1.0  0.76350  0.30895  0.05469  1.0000
  C   C495      1.0  0.63526  0.31068  0.03784  1.0000
  H   H787      1.0  0.56331  0.21022  0.02735  1.0000
  H   H788      1.0  0.74246  0.26797  0.07083  1.0000
  C   C496      1.0  0.59495  0.30671  0.04842  1.0000
  H   H789      1.0  0.63486  0.11104  0.06095  1.0000
  H   H790      1.0  0.69900  0.10677  0.05158  1.0000
  H   H791      1.0  0.67188  0.01914  0.24089  1.0000
  C   C497      1.0  0.70213  0.26826  0.03770  1.0000
  H   H792      1.0  0.65908  0.07421  0.05613  1.0000
  C   C498      1.0  0.85279  0.33873  0.12928  1.0000
  H   H793      1.0  0.64031  0.01458  0.26614  1.0000
  H   H794      1.0  0.63809  0.32174  0.04962  1.0000
  H   H795      1.0  0.51111  0.01075  0.17625  1.0000
  H   H796      1.0  0.58867  0.31842  0.03649  1.0000
  H   H797      1.0  0.80343  0.28932  0.02950  1.0000
  H   H798      1.0  0.97797  0.32905  0.13262  1.0000
  H   H799      1.0  0.52504  0.18182  0.05554  1.0000
  H   H800      1.0  0.50745  0.16099  0.10457  1.0000
  Fe  Fe105     1.0  0.63310  0.18083  0.02591  1.0000
  H   H801      1.0  0.63029  0.32243  0.02551  1.0000
  Fe  Fe106     1.0  0.61351  0.08604  0.40687  1.0000
  S   S209      1.0  0.63385  0.11454  0.39264  1.0000
  S   S210      1.0  0.57717  0.09321  0.41970  1.0000
  Fe  Fe107     1.0  0.65294  0.04977  0.40050  1.0000
  S   S211      1.0  0.67603  0.07496  0.38458  1.0000
  H   H802      1.0  0.67404  0.04585  0.29813  1.0000
  Fe  Fe108     1.0  0.66431  0.09825  0.40812  1.0000
  S   S212      1.0  0.69147  0.11805  0.42108  1.0000
  Fe  Fe109     1.0  0.64357  0.08889  0.37035  1.0000
  S   S213      1.0  0.63552  0.10324  0.34070  1.0000
  S   S214      1.0  0.64295  0.07215  0.42453  1.0000
  S   S215      1.0  0.62164  0.06123  0.38406  1.0000
  H   H803      1.0  0.57414  0.08093  0.38107  1.0000
  H   H804      1.0  0.93434  0.29638  0.29693  1.0000
  H   H805      1.0  0.60271  0.17137  0.36484  1.0000
  S   S216      1.0  0.70176  0.10897  0.50968  1.0000
  N   N48       1.0  0.96869  0.31076  0.47299  1.0000
  H   H806      1.0  0.58321  0.12738  0.33493  1.0000
  H   H807      1.0  0.86179  0.27475  0.50911  1.0000
  H   H808      1.0  0.54256  0.15876  0.35387  1.0000
  H   H809      1.0  0.99855  0.31288  0.45352  1.0000
  H   H810      1.0  0.93129  0.28524  0.32103  1.0000
  H   H811      1.0  0.64706  0.02011  0.32691  1.0000
  C   C499      1.0  0.89802  0.32819  0.29854  1.0000
  C   C500      1.0  0.88787  0.31985  0.44865  1.0000
  C   C501      1.0  0.89200  0.31767  0.46800  1.0000
  C   C502      1.0  0.95827  0.33406  0.46696  1.0000
  H   H812      1.0  0.74935  0.06299  0.44816  1.0000
  H   H813      1.0  0.88298  0.30492  0.44170  1.0000
  H   H814      1.0  0.89046  0.30110  0.47584  1.0000
  C   C503      1.0  0.64185  0.09019  0.31893  1.0000
  C   C504      1.0  0.63175  0.10070  0.30276  1.0000
  C   C505      1.0  0.65686  0.07014  0.31723  1.0000
  H   H815      1.0  0.62023  0.11627  0.30390  1.0000
  H   H816      1.0  0.66504  0.06214  0.32952  1.0000
  C   C506      1.0  0.53790  0.08688  0.37524  1.0000
  H   H817      1.0  0.97434  0.29987  0.44470  1.0000
  C   C507      1.0  0.74894  0.02693  0.47440  1.0000
  C   C508      1.0  0.69364  0.11706  0.44579  1.0000
  C   C509      1.0  0.67646  0.10762  0.45803  1.0000
  C   C510      1.0  0.67896  0.10619  0.47757  1.0000
  C   C511      1.0  0.69890  0.11362  0.48511  1.0000
  C   C512      1.0  0.71606  0.12332  0.47292  1.0000
  C   C513      1.0  0.71329  0.12525  0.45333  1.0000
  H   H818      1.0  0.66110  0.10160  0.45248  1.0000
  H   H819      1.0  0.66548  0.09888  0.48689  1.0000
  H   H820      1.0  0.73139  0.12932  0.47856  1.0000
  H   H821      1.0  0.72659  0.13275  0.44395  1.0000
  C   C514      1.0  0.53081  0.09715  0.41297  1.0000
  C   C515      1.0  0.55343  0.09135  0.40560  1.0000
  C   C516      1.0  0.55685  0.08565  0.38681  1.0000
  H   H822      1.0  0.52805  0.10151  0.42751  1.0000
  C   C517      1.0  0.89745  0.33713  0.47721  1.0000
  H   H823      1.0  0.75374  0.05787  0.50004  1.0000
  H   H824      1.0  0.58388  0.12852  0.38652  1.0000
  H   H825      1.0  0.55909  0.11905  0.35050  1.0000
  H   H826      1.0  0.90856  0.28235  0.30532  1.0000
  H   H827      1.0  0.70356  0.06491  0.48675  1.0000
  C   C518      1.0  0.84690  0.27646  0.49985  1.0000
  H   H828      1.0  0.54067  0.08295  0.36061  1.0000
  H   H829      1.0  0.94714  0.33316  0.45482  1.0000
  N   N49       1.0  0.57764  0.14684  0.35982  1.0000
  N   N50       1.0  0.82988  0.29551  0.50550  1.0000
  C   C519      1.0  0.71359  0.04776  0.48594  1.0000
  H   H830      1.0  0.99205  0.28375  0.46164  1.0000
  N   N51       1.0  0.73636  0.05013  0.47558  1.0000
  H   H831      1.0  0.93923  0.29300  0.46575  1.0000
  C   C520      1.0  0.57700  0.12509  0.34999  1.0000
  H   H832      1.0  0.76736  0.06819  0.47802  1.0000
  H   H833      1.0  0.99643  0.32480  0.48658  1.0000
  H   H834      1.0  0.55384  0.13602  0.38263  1.0000
  H   H835      1.0  0.76605  0.02816  0.46642  1.0000
  H   H836      1.0  0.61550  0.02540  0.41218  1.0000
  H   H837      1.0  0.85399  0.27951  0.48510  1.0000
  C   C521      1.0  0.63670  0.09146  0.28502  1.0000
  S   S217      1.0  0.91052  0.26667  0.51291  1.0000
  H   H838      1.0  0.88037  0.30151  0.32789  1.0000
  H   H839      1.0  0.88445  0.31720  0.29418  1.0000
  H   H840      1.0  0.61457  0.14201  0.36238  1.0000
  H   H841      1.0  0.99060  0.29543  0.49444  1.0000
  C   C522      1.0  0.56059  0.16466  0.35194  1.0000
  H   H842      1.0  0.72218  0.04939  0.44836  1.0000
  H   H843      1.0  0.91006  0.33156  0.28599  1.0000
  C   C523      1.0  0.57167  0.14223  0.38012  1.0000
  H   H844      1.0  0.72294  0.07781  0.45681  1.0000
  H   H845      1.0  0.62767  0.03250  0.34479  1.0000
  H   H846      1.0  0.56440  0.16835  0.33659  1.0000
  H   H847      1.0  0.90284  0.30576  0.34354  1.0000
  H   H848      1.0  0.57239  0.15809  0.38813  1.0000
  H   H849      1.0  0.79717  0.31146  0.49672  1.0000
  H   H850      1.0  0.82911  0.33255  0.50849  1.0000
  H   H851      1.0  0.56074  0.18135  0.35897  1.0000
  C   C524      1.0  0.73261  0.06045  0.45638  1.0000
  C   C525      1.0  0.98232  0.31268  0.48965  1.0000
  H   H852      1.0  0.58844  0.11077  0.35649  1.0000
  H   H853      1.0  0.94127  0.33555  0.30750  1.0000
  H   H854      1.0  0.81656  0.30099  0.47795  1.0000
  C   C526      1.0  0.75026  0.06541  0.48562  1.0000
  C   C527      1.0  0.81037  0.29724  0.49288  1.0000
  H   H855      1.0  0.60620  0.15930  0.34203  1.0000
  H   H856      1.0  0.70270  0.03601  0.47905  1.0000
  H   H857      1.0  0.71567  0.04097  0.50071  1.0000
  S   S218      1.0  0.66491  0.01258  0.40820  1.0000
  C   C528      1.0  0.95000  0.29484  0.47792  1.0000
  H   H858      1.0  0.65443  0.01771  0.36895  1.0000
  C   C529      1.0  0.92864  0.33197  0.31959  1.0000
  C   C530      1.0  0.98409  0.30141  0.45752  1.0000
  C   C531      1.0  0.60124  0.15537  0.35717  1.0000
  C   C532      1.0  0.65201  0.07168  0.28323  1.0000
  C   C533      1.0  0.84132  0.31777  0.50415  1.0000
  H   H859      1.0  0.93872  0.32386  0.33146  1.0000
  S   S219      1.0  0.90113  0.33591  0.50178  1.0000
  H   H860      1.0  0.93816  0.30139  0.48960  1.0000
  H   H861      1.0  0.85630  0.31695  0.51337  1.0000
  H   H862      1.0  0.74105  0.08288  0.48726  1.0000
  H   H863      1.0  0.83905  0.25926  0.50106  1.0000
  C   C534      1.0  0.89388  0.31338  0.33093  1.0000
  C   C535      1.0  0.51541  0.09348  0.38244  1.0000
  H   H864      1.0  0.80144  0.28067  0.49357  1.0000
  N   N52       1.0  0.91054  0.31693  0.31457  1.0000
  C   C536      1.0  0.66197  0.06099  0.29943  1.0000
  H   H865      1.0  0.75251  0.01886  0.48863  1.0000
  H   H866      1.0  0.88466  0.33019  0.33487  1.0000
  S   S220      1.0  0.97784  0.25407  0.51592  1.0000
  Fe  Fe110     1.0  0.90658  0.30350  0.52146  1.0000
  H   H867      1.0  0.84822  0.32221  0.48954  1.0000
  S   S221      1.0  0.76844  0.09487  0.52388  1.0000
  C   C537      1.0  0.92166  0.29419  0.30924  1.0000
  H   H868      1.0  0.95719  0.27709  0.48263  1.0000
  C   C538      1.0  0.51179  0.09807  0.40145  1.0000
  H   H869      1.0  0.97108  0.31916  0.50174  1.0000
  H   H870      1.0  0.50904  0.06346  0.28664  1.0000
  H   H871      1.0  0.73879  0.01474  0.46725  1.0000
  H   H872      1.0  0.61717  0.01296  0.32910  1.0000
  C   C539      1.0  0.63233  0.01632  0.33721  1.0000
  C   C540      1.0  0.88990  0.34127  0.43819  1.0000
  Fe  Fe111     1.0  0.63945  0.05874  0.71247  1.0000
  S   S222      1.0  0.65939  0.08508  0.72530  1.0000
  H   H873      1.0  0.54217  0.00836  0.68178  1.0000
  Fe  Fe112     1.0  0.60772  0.09538  0.69277  1.0000
  S   S223      1.0  0.62446  0.12471  0.70457  1.0000
  S   S224      1.0  0.57966  0.10068  0.67201  1.0000
  Fe  Fe113     1.0  0.65798  0.10409  0.69660  1.0000
  S   S225      1.0  0.68787  0.12295  0.68198  1.0000
  Fe  Fe114     1.0  0.62414  0.10269  0.73194  1.0000
  S   S226      1.0  0.60865  0.11345  0.76044  1.0000
  S   S227      1.0  0.64111  0.07599  0.68335  1.0000
  S   S228      1.0  0.60431  0.07511  0.72049  1.0000
  H   H874      1.0  0.54561  0.03940  0.72546  1.0000
  Fe  Fe115     1.0  0.91780  0.28904  0.56287  1.0000
  S   S229      1.0  0.92244  0.25087  0.55685  1.0000
  S   S230      1.0  0.93103  0.30206  0.58963  1.0000
  C   C541      1.0  0.50835  0.12440  0.69812  1.0000
  H   H875      1.0  0.51743  0.06922  0.71044  1.0000
  Fe  Fe116     1.0  0.89003  0.25767  0.54018  1.0000
  H   H876      1.0  0.65743  0.10292  0.76830  1.0000
  S   S231      1.0  0.93921  0.30059  0.53707  1.0000
  S   S232      1.0  0.88453  0.29541  0.54788  1.0000
  H   H877      1.0  0.64590  0.13862  0.66162  1.0000
  S   S233      1.0  0.74301  0.14084  0.54390  1.0000
  H   H878      1.0  0.61519  0.13524  0.66476  1.0000
  Fe  Fe117     1.0  0.76119  0.07466  0.55137  1.0000
  S   S234      1.0  0.72424  0.08898  0.55563  1.0000
  H   H879      1.0  0.97191  0.27056  0.59617  1.0000
  Fe  Fe118     1.0  0.73836  0.11762  0.57046  1.0000
  S   S235      1.0  0.72415  0.13717  0.59601  1.0000
  S   S236      1.0  0.77500  0.10173  0.56840  1.0000
  H   H880      1.0  0.61623  0.03097  0.68978  1.0000
  H   H881      1.0  0.66368  0.03981  0.75329  1.0000
  C   C542      1.0  0.55297  0.05159  0.68890  1.0000
  H   H882      1.0  0.51225  0.01162  0.69078  1.0000
  C   C543      1.0  0.91577  0.31449  0.60939  1.0000
  H   H883      1.0  0.94722  0.31642  0.62391  1.0000
  C   C544      1.0  0.63426  0.10818  0.63761  1.0000
  H   H884      1.0  0.83528  0.28942  0.53504  1.0000
  H   H885      1.0  0.65116  0.10351  0.64404  1.0000
  H   H886      1.0  0.88151  0.31484  0.59902  1.0000
  C   C545      1.0  0.99396  0.31014  0.58806  1.0000
  H   H887      1.0  0.55597  0.01410  0.71316  1.0000
  H   H888      1.0  0.62556  0.16214  0.65461  1.0000
  S   S237      1.0  0.85469  0.24097  0.54116  1.0000
  C   C546      1.0  0.84409  0.21276  0.53953  1.0000
  C   C547      1.0  0.00369  0.25115  0.52836  1.0000
  H   H889      1.0  0.64800  0.13797  0.60933  1.0000
  H   H890      1.0  0.86107  0.15510  0.53590  1.0000
  H   H891      1.0  0.97747  0.31319  0.59676  1.0000
  C   C548      1.0  0.81049  0.18894  0.53848  1.0000
  C   C549      1.0  0.89161  0.31918  0.61043  1.0000
  H   H892      1.0  0.64358  0.16402  0.62213  1.0000
  C   C550      1.0  0.81986  0.21077  0.53973  1.0000
  C   C551      1.0  0.82522  0.16861  0.53722  1.0000
  C   C552      1.0  0.54062  0.02670  0.71552  1.0000
  H   H893      1.0  0.52630  0.01687  0.72259  1.0000
  C   C553      1.0  0.62922  0.01843  0.77351  1.0000
  C   C554      1.0  0.88047  0.32947  0.62636  1.0000
  C   C555      1.0  0.64700  0.14475  0.62366  1.0000
  C   C556      1.0  0.69737  0.12495  0.65781  1.0000
  C   C557      1.0  0.70526  0.14628  0.65056  1.0000
  C   C558      1.0  0.71338  0.14929  0.63172  1.0000
  C   C559      1.0  0.71444  0.13085  0.61977  1.0000
  C   C560      1.0  0.70693  0.10915  0.62692  1.0000
  C   C561      1.0  0.69827  0.10623  0.64595  1.0000
  H   H894      1.0  0.70496  0.16073  0.65959  1.0000
  H   H895      1.0  0.71897  0.16613  0.62641  1.0000
  H   H896      1.0  0.70769  0.09476  0.61782  1.0000
  H   H897      1.0  0.69280  0.08947  0.65155  1.0000
  C   C562      1.0  0.55242  0.11056  0.68198  1.0000
  C   C563      1.0  0.53239  0.10864  0.67219  1.0000
  C   C564      1.0  0.55041  0.11935  0.69988  1.0000
  H   H898      1.0  0.53388  0.10184  0.65834  1.0000
  H   H899      1.0  0.56580  0.12082  0.70755  1.0000
  N   N53       1.0  0.00466  0.28637  0.59201  1.0000
  C   C565      1.0  0.85883  0.19248  0.53811  1.0000
  N   N54       1.0  0.79233  0.16493  0.59413  1.0000
  C   C566      1.0  0.79351  0.14013  0.60101  1.0000
  C   C567      1.0  0.77793  0.16816  0.57762  1.0000
  C   C568      1.0  0.81607  0.17196  0.58864  1.0000
  C   C569      1.0  0.78173  0.17941  0.60920  1.0000
  H   H900      1.0  0.80335  0.13718  0.61398  1.0000
  H   H901      1.0  0.80241  0.12884  0.59027  1.0000
  H   H902      1.0  0.77578  0.13388  0.60432  1.0000
  H   H903      1.0  0.75974  0.16370  0.58128  1.0000
  H   H904      1.0  0.77720  0.18652  0.57170  1.0000
  H   H905      1.0  0.78488  0.15681  0.56626  1.0000
  H   H906      1.0  0.81588  0.19047  0.58301  1.0000
  H   H907      1.0  0.82448  0.16113  0.57735  1.0000
  H   H908      1.0  0.82747  0.16993  0.60074  1.0000
  H   H909      1.0  0.78036  0.19822  0.60442  1.0000
  H   H910      1.0  0.79217  0.17751  0.62190  1.0000
  H   H911      1.0  0.76385  0.17427  0.61363  1.0000
  N   N55       1.0  0.62903  0.13373  0.63619  1.0000
  H   H912      1.0  0.66452  0.14129  0.62929  1.0000
  C   C570      1.0  0.52841  0.12663  0.70780  1.0000
  Fe  Fe119     1.0  0.77929  0.12359  0.54123  1.0000
  H   H913      1.0  0.95758  0.33199  0.75108  1.0000
  H   H914      1.0  0.52694  0.13380  0.72152  1.0000
  H   H915      1.0  0.59202  0.13093  0.63767  1.0000
  C   C571      1.0  0.60593  0.13906  0.62846  1.0000
  H   H916      1.0  0.98381  0.27162  0.57238  1.0000
  C   C572      1.0  0.74356  0.01782  0.53250  1.0000
  S   S238      1.0  0.64566  0.02090  0.72110  1.0000
  C   C573      1.0  0.51035  0.11518  0.68038  1.0000
  H   H917      1.0  0.63523  0.10073  0.62355  1.0000
  H   H918      1.0  0.79189  0.18788  0.53818  1.0000
  H   H919      1.0  0.99993  0.33566  0.77413  1.0000
  H   H920      1.0  0.60135  0.15818  0.62731  1.0000
  H   H921      1.0  0.60537  0.13235  0.61422  1.0000
  C   C574      1.0  0.62892  0.14285  0.65511  1.0000
  H   H922      1.0  0.98874  0.23218  0.55254  1.0000
  S   S239      1.0  0.77209  0.03614  0.55689  1.0000
  N   N56       1.0  0.53349  0.03870  0.69763  1.0000
  C   C575      1.0  0.98850  0.26908  0.58734  1.0000
  H   H923      1.0  0.54841  0.06068  0.67524  1.0000
  C   C576      1.0  0.52728  0.02129  0.68476  1.0000
  H   H924      1.0  0.62070  0.09926  0.64657  1.0000
  H   H925      1.0  0.55802  0.06495  0.69821  1.0000
  H   H926      1.0  0.99313  0.28534  0.62130  1.0000
  C   C577      1.0  0.89335  0.33527  0.64133  1.0000
  H   H927      1.0  0.80823  0.22628  0.54071  1.0000
  C   C578      1.0  0.91746  0.33039  0.64031  1.0000
  C   C579      1.0  0.00437  0.23922  0.54604  1.0000
  C   C580      1.0  0.92857  0.32014  0.62443  1.0000
  H   H928      1.0  0.56873  0.03989  0.68606  1.0000
  Fe  Fe120     1.0  0.94230  0.26324  0.53017  1.0000
  C   C581      1.0  0.76172  0.01356  0.54465  1.0000
  Fe  Fe121     1.0  0.73184  0.11063  0.52871  1.0000
  H   H929      1.0  0.86178  0.33303  0.62706  1.0000
  H   H930      1.0  0.61467  0.03164  0.77045  1.0000
  H   H931      1.0  0.87747  0.19359  0.53790  1.0000
  C   C582      1.0  0.84943  0.17062  0.53697  1.0000
  C   C583      1.0  0.61350  0.01355  0.69568  1.0000
  H   H932      1.0  0.99624  0.25092  0.58954  1.0000
  S   S240      1.0  0.81449  0.14033  0.53620  1.0000
  H   H933      1.0  0.52207  0.02979  0.67103  1.0000
  H   H934      1.0  0.73564  0.03533  0.53046  1.0000
  H   H935      1.0  0.96254  0.31694  0.77349  1.0000
  C   C584      1.0  0.51317  0.05528  0.70132  1.0000
  H   H936      1.0  0.98954  0.31299  0.57306  1.0000
  H   H937      1.0  0.92758  0.33443  0.65181  1.0000
  C   C585      1.0  0.95511  0.33347  0.76659  1.0000
  H   H938      1.0  0.50696  0.06412  0.68802  1.0000
  H   H939      1.0  0.63438  0.00992  0.76014  1.0000
  H   H940      1.0  0.67154  0.05670  0.77195  1.0000
  C   C586      1.0  0.65716  0.04743  0.76674  1.0000
  H   H941      1.0  0.64283  0.06076  0.76331  1.0000
  H   H942      1.0  0.93606  0.33467  0.77014  1.0000
  H   H943      1.0  0.80775  0.30421  0.52984  1.0000
  H   H944      1.0  0.81298  0.27338  0.52683  1.0000
  H   H945      1.0  0.00577  0.32369  0.59111  1.0000
  C   C587      1.0  0.82099  0.29049  0.52513  1.0000
  Fe  Fe122     1.0  0.64045  0.08902  0.86568  1.0000
  S   S241      1.0  0.60609  0.07355  0.87192  1.0000
  S   S242      1.0  0.65900  0.08747  0.83667  1.0000
  Fe  Fe123     1.0  0.64349  0.10339  0.90635  1.0000
  S   S243      1.0  0.60962  0.08866  0.91569  1.0000
  S   S244      1.0  0.66327  0.12456  0.92525  1.0000
  Fe  Fe124     1.0  0.62149  0.05820  0.89849  1.0000
  S   S245      1.0  0.61011  0.02335  0.91068  1.0000
  Fe  Fe125     1.0  0.59703  0.10494  0.88862  1.0000
  S   S246      1.0  0.56171  0.12370  0.89075  1.0000
  S   S247      1.0  0.65696  0.07129  0.89130  1.0000
  S   S248      1.0  0.62992  0.12212  0.88010  1.0000
  H   H946      1.0  0.55422  0.08518  0.83700  1.0000
  S   S249      1.0  0.62422  0.15288  0.00677  1.0000
  H   H947      1.0  0.55246  0.09837  0.85913  1.0000
  C   C588      1.0  0.53203  0.06284  0.90248  1.0000
  H   H948      1.0  0.61567  0.14663  0.92535  1.0000
  C   C589      1.0  0.54787  0.10120  0.84419  1.0000
  C   C590      1.0  0.52651  0.21716  0.02333  1.0000
  H   H949      1.0  0.79346  0.32250  0.99492  1.0000
  H   H950      1.0  0.95027  0.32888  0.95361  1.0000
  C   C591      1.0  0.60993  0.10686  0.79887  1.0000
  H   H951      1.0  0.52401  0.14330  0.84474  1.0000
  H   H952      1.0  0.67168  0.13561  0.02116  1.0000
  H   H953      1.0  0.60454  0.16286  0.95621  1.0000
  H   H954      1.0  0.77304  0.31335  0.01349  1.0000
  H   H955      1.0  0.55420  0.16249  0.91478  1.0000
  H   H956      1.0  0.58976  0.12517  0.94793  1.0000
  C   C592      1.0  0.54198  0.10317  0.89906  1.0000
  C   C593      1.0  0.54872  0.07932  0.89921  1.0000
  H   H957      1.0  0.67661  0.09311  0.79835  1.0000
  H   H958      1.0  0.63481  0.02711  0.80942  1.0000
  H   H959      1.0  0.56659  0.07346  0.89610  1.0000
  C   C594      1.0  0.66821  0.01137  0.78404  1.0000
  C   C595      1.0  0.65293  0.13184  0.94820  1.0000
  C   C596      1.0  0.66175  0.15075  0.95634  1.0000
  C   C597      1.0  0.65336  0.15742  0.97435  1.0000
  C   C598      1.0  0.63616  0.14506  0.98440  1.0000
  C   C599      1.0  0.62769  0.12587  0.97642  1.0000
  C   C600      1.0  0.63599  0.11931  0.95841  1.0000
  H   H960      1.0  0.67496  0.16046  0.94856  1.0000
  H   H961      1.0  0.66007  0.17219  0.98033  1.0000
  H   H962      1.0  0.61449  0.11610  0.98414  1.0000
  H   H963      1.0  0.62943  0.10443  0.95246  1.0000
  C   C601      1.0  0.62303  0.10708  0.78157  1.0000
  H   H964      1.0  0.54578  0.17384  0.93722  1.0000
  C   C602      1.0  0.62076  0.10133  0.81593  1.0000
  C   C603      1.0  0.64483  0.09618  0.81581  1.0000
  C   C604      1.0  0.65795  0.09683  0.79853  1.0000
  H   H965      1.0  0.61053  0.10097  0.82916  1.0000
  H   H966      1.0  0.53710  0.04452  0.90145  1.0000
  H   H967      1.0  0.55793  0.11584  0.83786  1.0000
  H   H968      1.0  0.89714  0.33343  0.78916  1.0000
  H   H969      1.0  0.60583  0.17422  0.91450  1.0000
  H   H970      1.0  0.97026  0.33923  0.80086  1.0000
  H   H971      1.0  0.51373  0.12885  0.90452  1.0000
  H   H972      1.0  0.65998  0.11138  0.01155  1.0000
  H   H973      1.0  0.56894  0.12531  0.93032  1.0000
  C   C605      1.0  0.51895  0.11046  0.90406  1.0000
  H   H974      1.0  0.51942  0.12720  0.86678  1.0000
  H   H975      1.0  0.64970  0.01406  0.88409  1.0000
  H   H976      1.0  0.59133  0.11087  0.79904  1.0000
  H   H977      1.0  0.68981  0.10933  0.01779  1.0000
  C   C606      1.0  0.57473  0.13544  0.94177  1.0000
  H   H978      1.0  0.57499  0.17298  0.96190  1.0000
  H   H979      1.0  0.86273  0.32759  0.95399  1.0000
  H   H980      1.0  0.56031  0.13632  0.95285  1.0000
  C   C607      1.0  0.81173  0.28539  0.01541  1.0000
  H   H981      1.0  0.79320  0.28048  0.97160  1.0000
  N   N57       1.0  0.79418  0.28547  0.00116  1.0000
  H   H982      1.0  0.59298  0.18974  0.94541  1.0000
  H   H983      1.0  0.59489  0.14783  0.90770  1.0000
  C   C608      1.0  0.50866  0.07023  0.90592  1.0000
  H   H984      1.0  0.56466  0.18954  0.92069  1.0000
  H   H985      1.0  0.82164  0.26815  0.01702  1.0000
  C   C609      1.0  0.60015  0.15687  0.91991  1.0000
  H   H986      1.0  0.51332  0.08504  0.86756  1.0000
  H   H987      1.0  0.62769  0.05431  0.79649  1.0000
  H   H988      1.0  0.81850  0.29382  0.97810  1.0000
  C   C610      1.0  0.51515  0.12826  0.85174  1.0000
  H   H989      1.0  0.63101  0.27013  0.02270  1.0000
  C   C611      1.0  0.50993  0.08704  0.85234  1.0000
  C   C612      1.0  0.78149  0.30867  0.99967  1.0000
  H   H990      1.0  0.81584  0.26313  0.98329  1.0000
  N   N58       1.0  0.58101  0.15896  0.93460  1.0000
  C   C613      1.0  0.56051  0.17182  0.92649  1.0000
  C   C614      1.0  0.58865  0.17172  0.95022  1.0000
  H   H991      1.0  0.78648  0.24978  0.00793  1.0000
  C   C615      1.0  0.64159  0.04009  0.79861  1.0000
  H   H992      1.0  0.52194  0.09235  0.81553  1.0000
  C   C616      1.0  0.64711  0.10223  0.78149  1.0000
  H   H993      1.0  0.82453  0.29873  0.01150  1.0000
  N   N59       1.0  0.64904  0.02933  0.78075  1.0000
  C   C617      1.0  0.80593  0.28044  0.98272  1.0000
  H   H994      1.0  0.52673  0.20657  0.01131  1.0000
  C   C618      1.0  0.77759  0.26757  0.00691  1.0000
  N   N60       1.0  0.52254  0.10631  0.84274  1.0000
  H   H995      1.0  0.69904  0.29441  0.01476  1.0000
  H   H996      1.0  0.65631  0.04795  0.80473  1.0000
  H   H997      1.0  0.76764  0.30930  0.98943  1.0000
  H   H998      1.0  0.76367  0.26753  0.99677  1.0000
  H   H999      1.0  0.52664  0.12291  0.81497  1.0000
  C   C619      1.0  0.51711  0.10876  0.82269  1.0000
  H   H1000     1.0  0.51518  0.07010  0.84616  1.0000
  H   H1001     1.0  0.68350  0.01910  0.78938  1.0000
  C   C620      1.0  0.67192  0.11621  0.02215  1.0000
  H   H1002     1.0  0.60830  0.29060  0.01474  1.0000
  S   S250      1.0  0.62629  0.21978  0.02390  1.0000
  H   H1003     1.0  0.91799  0.33934  0.93226  1.0000
  H   H1004     1.0  0.73111  0.31718  0.02392  1.0000
  H   H1005     1.0  0.76885  0.27078  0.02098  1.0000
  S   S251      1.0  0.77138  0.42924  0.03335  1.0000
  S   S252      1.0  0.90804  0.39666  0.16820  1.0000
  H   H1006     1.0  0.74341  0.65988  0.11782  1.0000
  Fe  Fe126     1.0  0.90589  0.37676  0.22126  1.0000
  S   S253      1.0  0.92321  0.40873  0.20977  1.0000
  H   H1007     1.0  0.96643  0.59511  0.24445  1.0000
  Fe  Fe127     1.0  0.89192  0.41528  0.19256  1.0000
  S   S254      1.0  0.87411  0.45022  0.18576  1.0000
  Fe  Fe128     1.0  0.93773  0.38662  0.18649  1.0000
  S   S255      1.0  0.87307  0.38513  0.20574  1.0000
  Fe  Fe129     1.0  0.91087  0.56523  0.23116  1.0000
  S   S256      1.0  0.94679  0.56477  0.21749  1.0000
  S   S257      1.0  0.90896  0.54837  0.26072  1.0000
  Fe  Fe130     1.0  0.88901  0.58472  0.19441  1.0000
  S   S258      1.0  0.92367  0.58682  0.17840  1.0000
  S   S259      1.0  0.85444  0.58846  0.18039  1.0000
  Fe  Fe131     1.0  0.93191  0.55160  0.19246  1.0000
  S   S260      1.0  0.95032  0.52222  0.17706  1.0000
  Fe  Fe132     1.0  0.93550  0.60006  0.20505  1.0000
  S   S261      1.0  0.96219  0.62579  0.20846  1.0000
  S   S262      1.0  0.89680  0.54848  0.20724  1.0000
  S   S263      1.0  0.89996  0.60152  0.22010  1.0000
  Fe  Fe133     1.0  0.82455  0.60097  0.07166  1.0000
  S   S264      1.0  0.79237  0.58136  0.07619  1.0000
  S   S265      1.0  0.84491  0.61716  0.09328  1.0000
  Fe  Fe134     1.0  0.77899  0.60489  0.05189  1.0000
  S   S266      1.0  0.74212  0.62177  0.05792  1.0000
  Fe  Fe135     1.0  0.80805  0.55777  0.05402  1.0000
  S   S267      1.0  0.81812  0.51875  0.05748  1.0000
  S   S268      1.0  0.81083  0.62533  0.04836  1.0000
  S   S269      1.0  0.84136  0.57587  0.05150  1.0000
  Fe  Fe136     1.0  0.82701  0.36499  0.05724  1.0000
  S   S270      1.0  0.78839  0.37125  0.06279  1.0000
  C   C621      1.0  0.78568  0.43121  0.08783  1.0000
  C   C622      1.0  0.85739  0.36530  0.10151  1.0000
  H   H1008     1.0  0.89460  0.44801  0.26510  1.0000
  H   H1009     1.0  0.92417  0.38366  0.12730  1.0000
  H   H1010     1.0  0.88266  0.44753  0.22455  1.0000
  S   S271      1.0  0.92235  0.35389  0.19864  1.0000
  C   C623      1.0  0.80502  0.49468  0.04941  1.0000
  C   C624      1.0  0.81779  0.47295  0.04968  1.0000
  C   C625      1.0  0.80790  0.45294  0.04431  1.0000
  H   H1011     1.0  0.66349  0.65095  0.03063  1.0000
  H   H1012     1.0  0.88731  0.50729  0.24082  1.0000
  C   C626      1.0  0.78239  0.49638  0.04326  1.0000
  N   N61       1.0  0.89962  0.47111  0.24044  1.0000
  H   H1013     1.0  0.79355  0.61982  0.10266  1.0000
  H   H1014     1.0  0.85150  0.50840  0.02671  1.0000
  C   C627      1.0  0.99117  0.59705  0.18693  1.0000
  C   C628      1.0  0.72909  0.65037  0.05275  1.0000
  H   H1015     1.0  0.91288  0.43569  0.24655  1.0000
  C   C629      1.0  0.80194  0.44027  0.11671  1.0000
  H   H1016     1.0  0.94608  0.35496  0.16057  1.0000
  H   H1017     1.0  0.74118  0.65876  0.09287  1.0000
  H   H1018     1.0  0.62043  0.64876  0.02808  1.0000
  H   H1019     1.0  0.94483  0.54551  0.12438  1.0000
  H   H1020     1.0  0.97551  0.59105  0.18187  1.0000
  C   C630      1.0  0.85195  0.59641  0.15616  1.0000
  C   C631      1.0  0.86703  0.61151  0.14644  1.0000
  C   C632      1.0  0.86425  0.61800  0.12730  1.0000
  C   C633      1.0  0.84702  0.60875  0.11747  1.0000
  C   C634      1.0  0.83202  0.59346  0.12712  1.0000
  C   C635      1.0  0.83424  0.58766  0.14648  1.0000
  H   H1021     1.0  0.88048  0.61866  0.15381  1.0000
  H   H1022     1.0  0.87574  0.63008  0.12000  1.0000
  H   H1023     1.0  0.81863  0.58624  0.11976  1.0000
  H   H1024     1.0  0.82243  0.57605  0.15396  1.0000
  H   H1025     1.0  0.90884  0.49833  0.25731  1.0000
  C   C636      1.0  0.89537  0.46976  0.17929  1.0000
  C   C637      1.0  0.88894  0.49357  0.17712  1.0000
  C   C638      1.0  0.90610  0.50962  0.17491  1.0000
  C   C639      1.0  0.92960  0.50195  0.17525  1.0000
  C   C640      1.0  0.93610  0.47809  0.17592  1.0000
  C   C641      1.0  0.91893  0.46195  0.17787  1.0000
  H   H1026     1.0  0.87073  0.49965  0.17792  1.0000
  H   H1027     1.0  0.90109  0.52802  0.17349  1.0000
  H   H1028     1.0  0.95431  0.47206  0.17588  1.0000
  H   H1029     1.0  0.92402  0.44354  0.17894  1.0000
  H   H1030     1.0  0.69762  0.64357  0.06948  1.0000
  H   H1031     1.0  0.77237  0.51300  0.04299  1.0000
  C   C642      1.0  0.70652  0.65633  0.06045  1.0000
  H   H1032     1.0  0.78512  0.44986  0.08252  1.0000
  C   C643      1.0  0.80493  0.40062  0.10725  1.0000
  C   C644      1.0  0.78500  0.45441  0.03876  1.0000
  H   H1033     1.0  0.82837  0.44837  0.08538  1.0000
  H   H1034     1.0  0.86426  0.46114  0.24242  1.0000
  S   S272      1.0  0.85371  0.37402  0.07751  1.0000
  S   S273      1.0  0.97300  0.39145  0.17187  1.0000
  C   C645      1.0  0.75202  0.66468  0.10385  1.0000
  H   H1035     1.0  0.90344  0.52170  0.11074  1.0000
  H   H1036     1.0  0.88823  0.56065  0.14984  1.0000
  C   C646      1.0  0.96558  0.63838  0.25625  1.0000
  H   H1037     1.0  0.87245  0.47753  0.22100  1.0000
  H   H1038     1.0  0.82969  0.41946  0.07720  1.0000
  H   H1039     1.0  0.86878  0.39514  0.26152  1.0000
  H   H1040     1.0  0.88963  0.54742  0.09946  1.0000
  H   H1041     1.0  0.95064  0.38890  0.13770  1.0000
  C   C647      1.0  0.91026  0.57841  0.11831  1.0000
  C   C648      1.0  0.88695  0.55119  0.13682  1.0000
  C   C649      1.0  0.74041  0.66714  0.04124  1.0000
  C   C650      1.0  0.90218  0.38297  0.27158  1.0000
  H   H1042     1.0  0.97921  0.63528  0.24477  1.0000
  C   C651      1.0  0.77240  0.47626  0.03805  1.0000
  H   H1043     1.0  0.93693  0.60541  0.24989  1.0000
  H   H1044     1.0  0.98108  0.34778  0.19454  1.0000
  N   N62       1.0  0.90781  0.55351  0.12392  1.0000
  H   H1045     1.0  0.88841  0.59577  0.26407  1.0000
  H   H1046     1.0  0.93089  0.55310  0.14652  1.0000
  C   C652      1.0  0.92866  0.54388  0.13355  1.0000
  C   C653      1.0  0.90531  0.54057  0.10699  1.0000
  C   C654      1.0  0.87436  0.37283  0.13092  1.0000
  H   H1047     1.0  0.76849  0.42800  0.09508  1.0000
  H   H1048     1.0  0.88442  0.53262  0.14126  1.0000
  H   H1049     1.0  0.92626  0.58093  0.10909  1.0000
  H   H1050     1.0  0.80498  0.65337  0.08159  1.0000
  C   C655      1.0  0.89353  0.49253  0.25056  1.0000
  H   H1051     1.0  0.78806  0.39653  0.11466  1.0000
  H   H1052     1.0  0.80177  0.45913  0.11209  1.0000
  H   H1053     1.0  0.88396  0.38386  0.13873  1.0000
  H   H1054     1.0  0.91127  0.58885  0.13083  1.0000
  H   H1055     1.0  0.87758  0.39453  0.10526  1.0000
  H   H1056     1.0  0.95037  0.58251  0.26460  1.0000
  H   H1057     1.0  0.80809  0.38890  0.09542  1.0000
  H   H1058     1.0  0.92752  0.52507  0.13792  1.0000
  H   H1059     1.0  0.95072  0.38510  0.11292  1.0000
  H   H1060     1.0  0.81633  0.43645  0.12643  1.0000
  H   H1061     1.0  0.89520  0.58600  0.11037  1.0000
  S   S274      1.0  0.79219  0.57936  0.02988  1.0000
  H   H1062     1.0  0.76509  0.62167  0.09348  1.0000
  C   C656      1.0  0.94319  0.37889  0.12692  1.0000
  S   S275      1.0  0.82874  0.38808  0.03046  1.0000
  C   C657      1.0  0.84823  0.34528  0.11034  1.0000
  H   H1063     1.0  0.97117  0.65236  0.26468  1.0000
  C   C658      1.0  0.90812  0.45211  0.25379  1.0000
  Fe  Fe137     1.0  0.79008  0.39310  0.03548  1.0000
  H   H1064     1.0  0.87954  0.48990  0.26176  1.0000
  H   H1065     1.0  0.83542  0.47155  0.05419  1.0000
  H   H1066     1.0  0.81891  0.39581  0.11719  1.0000
  H   H1067     1.0  0.92303  0.46007  0.21758  1.0000
  S   S276      1.0  0.91129  0.36615  0.25215  1.0000
  H   H1068     1.0  0.76810  0.62254  0.11833  1.0000
  H   H1069     1.0  0.78530  0.43740  0.12499  1.0000
  C   C659      1.0  0.87046  0.37898  0.11192  1.0000
  H   H1070     1.0  0.84235  0.42434  0.09877  1.0000
  H   H1071     1.0  0.92070  0.54203  0.09689  1.0000
  Fe  Fe138     1.0  0.89117  0.36576  0.18184  1.0000
  H   H1072     1.0  0.78757  0.42056  0.07526  1.0000
  C   C660      1.0  0.82732  0.42964  0.09002  1.0000
  N   N63       1.0  0.80495  0.42543  0.10045  1.0000
  C   C661      1.0  0.95354  0.59913  0.25627  1.0000
  H   H1073     1.0  0.87093  0.55848  0.13004  1.0000
  H   H1074     1.0  0.99755  0.60368  0.26483  1.0000
  H   H1075     1.0  0.81787  0.43631  0.04470  1.0000
  C   C662      1.0  0.87882  0.46406  0.23177  1.0000
  C   C663      1.0  0.86600  0.35242  0.13967  1.0000
  H   H1076     1.0  0.93396  0.48132  0.23155  1.0000
  C   C664      1.0  0.98967  0.61429  0.19997  1.0000
  H   H1077     1.0  0.78263  0.65726  0.13114  1.0000
  C   C665      1.0  0.91800  0.47579  0.22559  1.0000
  H   H1078     1.0  0.92384  0.45677  0.26061  1.0000
  Fe  Fe139     1.0  0.82518  0.59834  0.02840  1.0000
  H   H1079     1.0  0.80829  0.65417  0.11570  1.0000
  H   H1080     1.0  0.91208  0.48997  0.21524  1.0000
  N   N64       1.0  0.77608  0.65404  0.10207  1.0000
  C   C666      1.0  0.77568  0.62838  0.10424  1.0000
  H   H1081     1.0  0.77679  0.65458  0.07188  1.0000
  C   C667      1.0  0.88001  0.39451  0.27318  1.0000
  C   C668      1.0  0.79006  0.66212  0.11676  1.0000
  C   C669      1.0  0.99834  0.37637  0.18023  1.0000
  C   C670      1.0  0.99762  0.35502  0.19074  1.0000
  H   H1082     1.0  0.94947  0.64516  0.24929  1.0000
  N   N65       1.0  0.96177  0.61675  0.26802  1.0000
  H   H1083     1.0  0.75468  0.47756  0.03372  1.0000
  H   H1084     1.0  0.75771  0.66290  0.03514  1.0000
  C   C671      1.0  0.78666  0.66083  0.08330  1.0000
  H   H1085     1.0  0.98176  0.35331  0.11574  1.0000
  N   N66       1.0  0.94811  0.35349  0.13051  1.0000
  H   H1086     1.0  0.98193  0.35740  0.14050  1.0000
  C   C672      1.0  0.97357  0.34803  0.12975  1.0000
  S   S277      1.0  0.87256  0.34314  0.16317  1.0000
  C   C673      1.0  0.93818  0.34612  0.14935  1.0000
  H   H1087     1.0  0.91907  0.35033  0.15061  1.0000
  H   H1088     1.0  0.91818  0.34466  0.11660  1.0000
  H   H1089     1.0  0.94434  0.34618  0.10167  1.0000
  Fe  Fe140     1.0  0.93859  0.37141  0.36405  1.0000
  H   H1090     1.0  0.84968  0.47889  0.35932  1.0000
  H   H1091     1.0  0.90383  0.37364  0.47373  1.0000
  Fe  Fe141     1.0  0.92240  0.41519  0.38385  1.0000
  S   S278      1.0  0.88470  0.40759  0.38407  1.0000
  S   S279      1.0  0.93852  0.44695  0.39264  1.0000
  Fe  Fe142     1.0  0.89790  0.37066  0.39286  1.0000
  C   C674      1.0  0.99291  0.36790  0.35501  1.0000
  Fe  Fe143     1.0  0.89341  0.39771  0.35410  1.0000
  S   S280      1.0  0.87373  0.41051  0.32828  1.0000
  S   S281      1.0  0.93497  0.37922  0.39446  1.0000
  S   S282      1.0  0.92989  0.40808  0.35353  1.0000
  Fe  Fe144     1.0  0.94380  0.57564  0.38015  1.0000
  S   S283      1.0  0.93462  0.61292  0.37065  1.0000
  S   S284      1.0  0.97845  0.55575  0.37785  1.0000
  Fe  Fe145     1.0  0.89529  0.56702  0.39459  1.0000
  S   S285      1.0  0.88127  0.60325  0.38600  1.0000
  S   S286      1.0  0.87447  0.53825  0.40792  1.0000
  Fe  Fe146     1.0  0.90352  0.59859  0.35924  1.0000
  S   S287      1.0  0.89160  0.61173  0.33055  1.0000
  Fe  Fe147     1.0  0.91346  0.61462  0.39816  1.0000
  S   S288      1.0  0.91107  0.64748  0.41449  1.0000
  S   S289      1.0  0.91435  0.56125  0.36683  1.0000
  S   S290      1.0  0.92578  0.57859  0.40872  1.0000
  C   C675      1.0  0.89625  0.59379  0.31132  1.0000
  C   C676      1.0  0.90689  0.57124  0.31338  1.0000
  C   C677      1.0  0.91056  0.55745  0.29777  1.0000
  H   H1092     1.0  0.89525  0.50056  0.36735  1.0000
  C   C678      1.0  0.88957  0.60252  0.29346  1.0000
  H   H1093     1.0  0.91229  0.56441  0.32697  1.0000
  H   H1094     1.0  0.88124  0.61991  0.29178  1.0000
  C   C679      1.0  0.97875  0.65435  0.43322  1.0000
  H   H1095     1.0  0.98095  0.60128  0.35848  1.0000
  H   H1096     1.0  0.90348  0.45035  0.33713  1.0000
  C   C680      1.0  0.91460  0.64933  0.43882  1.0000
  C   C681      1.0  0.87435  0.48627  0.32639  1.0000
  H   H1097     1.0  0.99064  0.62059  0.28500  1.0000
  C   C682      1.0  0.92578  0.63253  0.46935  1.0000
  C   C683      1.0  0.92354  0.63034  0.45000  1.0000
  H   H1098     1.0  0.93275  0.61779  0.47795  1.0000
  H   H1099     1.0  0.92890  0.61405  0.44375  1.0000
  C   C684      1.0  0.88542  0.40138  0.30614  1.0000
  C   C685      1.0  0.90809  0.39118  0.30412  1.0000
  C   C686      1.0  0.00038  0.57523  0.37530  1.0000
  H   H1100     1.0  0.96063  0.63019  0.40704  1.0000
  H   H1101     1.0  0.86324  0.45172  0.35166  1.0000
  C   C687      1.0  0.00004  0.45736  0.38554  1.0000
  H   H1102     1.0  0.94971  0.63487  0.29267  1.0000
  H   H1103     1.0  0.93360  0.37325  0.28581  1.0000
  C   C688      1.0  0.89624  0.36046  0.44729  1.0000
  H   H1104     1.0  0.97713  0.39888  0.34117  1.0000
  C   C689      1.0  0.92030  0.47149  0.39846  1.0000
  C   C690      1.0  0.89655  0.47007  0.40333  1.0000
  C   C691      1.0  0.88243  0.49048  0.40696  1.0000
  C   C692      1.0  0.89210  0.51223  0.40561  1.0000
  C   C693      1.0  0.91595  0.51337  0.40119  1.0000
  C   C694      1.0  0.92997  0.49311  0.39770  1.0000
  H   H1105     1.0  0.88909  0.45331  0.40433  1.0000
  H   H1106     1.0  0.86401  0.48947  0.41047  1.0000
  H   H1107     1.0  0.92372  0.52991  0.40033  1.0000
  H   H1108     1.0  0.94830  0.49431  0.39403  1.0000
  H   H1109     1.0  0.88671  0.49591  0.31671  1.0000
  H   H1110     1.0  0.89771  0.37708  0.43946  1.0000
  H   H1111     1.0  0.85757  0.49710  0.32717  1.0000
  H   H1112     1.0  0.94067  0.60574  0.29245  1.0000
  H   H1113     1.0  0.87095  0.51461  0.35570  1.0000
  H   H1114     1.0  0.97925  0.66572  0.39581  1.0000
  C   C695      1.0  0.89964  0.35847  0.46674  1.0000
  H   H1115     1.0  0.84258  0.63516  0.45968  1.0000
  C   C696      1.0  0.97747  0.62295  0.41256  1.0000
  S   S291      1.0  0.90257  0.36015  0.36280  1.0000
  H   H1116     1.0  0.86752  0.63966  0.44395  1.0000
  C   C697      1.0  0.86663  0.46856  0.35752  1.0000
  H   H1117     1.0  0.85084  0.62043  0.41904  1.0000
  H   H1118     1.0  0.89960  0.51419  0.34427  1.0000
  C   C698      1.0  0.99584  0.65805  0.40151  1.0000
  H   H1119     1.0  0.91868  0.53998  0.29951  1.0000
  C   C699      1.0  0.91636  0.38194  0.28697  1.0000
  N   N67       1.0  0.88356  0.48143  0.34524  1.0000
  C   C700      1.0  0.88748  0.50367  0.35346  1.0000
  H   H1120     1.0  0.92090  0.34904  0.32415  1.0000
  H   H1121     1.0  0.91298  0.46266  0.35763  1.0000
  H   H1122     1.0  0.91910  0.38992  0.31592  1.0000
  C   C701      1.0  0.91917  0.65366  0.47771  1.0000
  C   C702      1.0  0.99174  0.39149  0.34882  1.0000
  N   N68       1.0  0.85721  0.60439  0.44647  1.0000
  C   C703      1.0  0.84295  0.60807  0.42987  1.0000
  C   C704      1.0  0.88043  0.59395  0.44063  1.0000
  C   C705      1.0  0.84593  0.58842  0.46070  1.0000
  C   C706      1.0  0.85969  0.62703  0.45458  1.0000
  H   H1123     1.0  0.84138  0.59141  0.42303  1.0000
  H   H1124     1.0  0.87115  0.46977  0.31988  1.0000
  H   H1125     1.0  0.82508  0.61547  0.43374  1.0000
  H   H1126     1.0  0.88937  0.60565  0.42996  1.0000
  H   H1127     1.0  0.89178  0.59084  0.45274  1.0000
  H   H1128     1.0  0.87927  0.57690  0.43427  1.0000
  H   H1129     1.0  0.85630  0.58536  0.47341  1.0000
  H   H1130     1.0  0.84407  0.57112  0.45498  1.0000
  H   H1131     1.0  0.82825  0.59562  0.46537  1.0000
  H   H1132     1.0  0.87122  0.62511  0.46665  1.0000
  C   C707      1.0  0.90579  0.46709  0.34358  1.0000
  C   C708      1.0  0.99667  0.59708  0.36577  1.0000
  H   H1133     1.0  0.91919  0.47635  0.33473  1.0000
  H   H1134     1.0  0.87313  0.46433  0.37178  1.0000
  H   H1135     1.0  0.85413  0.41162  0.29181  1.0000
  S   S292      1.0  0.92229  0.65529  0.50214  1.0000
  H   H1136     1.0  0.98886  0.66852  0.43778  1.0000
  H   H1137     1.0  0.98953  0.45430  0.39899  1.0000
  C   C709      1.0  0.87168  0.40368  0.29042  1.0000
  H   H1138     1.0  0.92724  0.62870  0.27776  1.0000
  H   H1139     1.0  0.98749  0.46098  0.37429  1.0000
  H   H1140     1.0  0.97494  0.64251  0.44583  1.0000
  H   H1141     1.0  0.98850  0.50335  0.37949  1.0000
  C   C710      1.0  0.90406  0.56626  0.27991  1.0000
  H   H1142     1.0  0.96175  0.66247  0.42860  1.0000
  H   H1143     1.0  0.98680  0.61265  0.40142  1.0000
  S   S293      1.0  0.96965  0.35097  0.35189  1.0000
  H   H1144     1.0  0.99050  0.49632  0.40424  1.0000
  C   C711      1.0  0.94411  0.62176  0.28339  1.0000
  H   H1145     1.0  0.88913  0.34528  0.30215  1.0000
  N   N69       1.0  0.99153  0.64165  0.41797  1.0000
  H   H1146     1.0  0.97341  0.61054  0.42473  1.0000
  C   C712      1.0  0.00092  0.49834  0.39065  1.0000
  H   H1147     1.0  0.98157  0.59138  0.28508  1.0000
  C   C713      1.0  0.89371  0.58891  0.27775  1.0000
  C   C714      1.0  0.90816  0.67050  0.44713  1.0000
  C   C715      1.0  0.98386  0.60769  0.27610  1.0000
  C   C716      1.0  0.91034  0.67267  0.46650  1.0000
  H   H1148     1.0  0.94705  0.34181  0.47855  1.0000
  S   S294      1.0  0.88286  0.34376  0.41424  1.0000
  H   H1149     1.0  0.97184  0.34641  0.46262  1.0000
  Fe  Fe148     1.0  0.91654  0.60998  0.68465  1.0000
  S   S295      1.0  0.92558  0.57343  0.67629  1.0000
  S   S296      1.0  0.92412  0.64261  0.66620  1.0000
  Fe  Fe149     1.0  0.91103  0.59430  0.72706  1.0000
  S   S297      1.0  0.91974  0.55654  0.72201  1.0000
  S   S298      1.0  0.90678  0.61176  0.75485  1.0000
  Fe  Fe150     1.0  0.94743  0.56907  0.70128  1.0000
  S   S299      1.0  0.98292  0.55061  0.69775  1.0000
  Fe  Fe151     1.0  0.89702  0.56350  0.69752  1.0000
  S   S300      1.0  0.87345  0.53546  0.69228  1.0000
  S   S301      1.0  0.94078  0.60634  0.70820  1.0000
  S   S302      1.0  0.88578  0.60065  0.70404  1.0000
  Fe  Fe152     1.0  0.89851  0.36611  0.68250  1.0000
  S   S303      1.0  0.93455  0.37655  0.67429  1.0000
  H   H1150     1.0  0.93356  0.41363  0.63779  1.0000
  Fe  Fe153     1.0  0.89686  0.38985  0.72036  1.0000
  S   S304      1.0  0.93248  0.40229  0.71416  1.0000
  S   S305      1.0  0.88088  0.40386  0.74767  1.0000
  Fe  Fe154     1.0  0.92169  0.41117  0.68493  1.0000
  S   S306      1.0  0.93250  0.44395  0.66912  1.0000
  Fe  Fe155     1.0  0.94161  0.36663  0.70439  1.0000
  H   H1151     1.0  0.97954  0.63322  0.67123  1.0000
  S   S307      1.0  0.88506  0.40183  0.69149  1.0000
  H   H1152     1.0  0.91031  0.47032  0.76600  1.0000
  C   C717      1.0  0.88679  0.38842  0.76935  1.0000
  H   H1153     1.0  0.92466  0.38693  0.60328  1.0000
  C   C718      1.0  0.88965  0.51020  0.68511  1.0000
  C   C719      1.0  0.87841  0.49000  0.68237  1.0000
  C   C720      1.0  0.89145  0.46941  0.67766  1.0000
  C   C721      1.0  0.91571  0.46925  0.67512  1.0000
  C   C722      1.0  0.92687  0.48953  0.67753  1.0000
  C   C723      1.0  0.91392  0.50980  0.68287  1.0000
  H   H1154     1.0  0.85964  0.49023  0.68409  1.0000
  H   H1155     1.0  0.88273  0.45380  0.67576  1.0000
  H   H1156     1.0  0.94562  0.48944  0.67568  1.0000
  H   H1157     1.0  0.92281  0.52506  0.68531  1.0000
  H   H1158     1.0  0.86584  0.47896  0.71996  1.0000
  H   H1159     1.0  0.90683  0.44488  0.72967  1.0000
  H   H1160     1.0  0.92355  0.37591  0.62741  1.0000
  H   H1161     1.0  0.97993  0.58693  0.72403  1.0000
  H   H1162     1.0  0.96370  0.39118  0.76719  1.0000
  C   C724      1.0  0.90920  0.46395  0.72904  1.0000
  H   H1163     1.0  0.97666  0.39035  0.68855  1.0000
  H   H1164     1.0  0.97377  0.60719  0.62579  1.0000
  C   C725      1.0  0.88386  0.64637  0.62082  1.0000
  C   C726      1.0  0.89331  0.63924  0.63820  1.0000
  C   C727      1.0  0.91267  0.64967  0.64383  1.0000
  H   H1165     1.0  0.89898  0.37413  0.61352  1.0000
  H   H1166     1.0  0.86856  0.63856  0.61677  1.0000
  H   H1167     1.0  0.88524  0.62609  0.64741  1.0000
  H   H1168     1.0  0.86496  0.45325  0.73558  1.0000
  H   H1169     1.0  0.95643  0.60254  0.64736  1.0000
  H   H1170     1.0  0.88128  0.42229  0.64485  1.0000
  N   N70       1.0  0.91612  0.67394  0.72438  1.0000
  H   H1171     1.0  0.91665  0.43984  0.63126  1.0000
  H   H1172     1.0  0.93513  0.42523  0.61381  1.0000
  S   S308      1.0  0.87888  0.34937  0.66064  1.0000
  S   S309      1.0  0.88037  0.67302  0.58760  1.0000
  C   C728      1.0  0.89302  0.46743  0.76078  1.0000
  C   C729      1.0  0.00366  0.56822  0.70500  1.0000
  H   H1173     1.0  0.00319  0.61331  0.67877  1.0000
  H   H1174     1.0  0.94567  0.67410  0.74144  1.0000
  H   H1175     1.0  0.00032  0.36690  0.77147  1.0000
  C   C730      1.0  0.91373  0.67353  0.61410  1.0000
  H   H1176     1.0  0.91190  0.50538  0.74391  1.0000
  H   H1177     1.0  0.90526  0.56206  0.76568  1.0000
  H   H1178     1.0  0.93791  0.65848  0.70233  1.0000
  H   H1179     1.0  0.90849  0.47042  0.71408  1.0000
  S   S310      1.0  0.90660  0.35309  0.71226  1.0000
  H   H1180     1.0  0.98696  0.57219  0.65791  1.0000
  C   C731      1.0  0.86790  0.47224  0.73478  1.0000
  H   H1181     1.0  0.96452  0.63122  0.63991  1.0000
  N   N71       1.0  0.89116  0.47635  0.74100  1.0000
  C   C732      1.0  0.99741  0.36778  0.70723  1.0000
  N   N72       1.0  0.90369  0.40844  0.62234  1.0000
  C   C733      1.0  0.89026  0.42063  0.60722  1.0000
  C   C734      1.0  0.88827  0.40529  0.63950  1.0000
  C   C735      1.0  0.92309  0.42240  0.62640  1.0000
  C   C736      1.0  0.91314  0.38538  0.61632  1.0000
  H   H1182     1.0  0.90136  0.42335  0.59405  1.0000
  H   H1183     1.0  0.88285  0.43806  0.61142  1.0000
  H   H1184     1.0  0.87551  0.41045  0.60386  1.0000
  H   H1185     1.0  0.87331  0.39490  0.63703  1.0000
  H   H1186     1.0  0.89774  0.39567  0.65100  1.0000
  S   S311      1.0  0.97491  0.34982  0.71467  1.0000
  C   C737      1.0  0.99709  0.58596  0.71714  1.0000
  H   H1187     1.0  0.89321  0.50886  0.72462  1.0000
  C   C738      1.0  0.99356  0.38664  0.69413  1.0000
  H   H1188     1.0  0.90325  0.64133  0.71859  1.0000
  H   H1189     1.0  0.92700  0.46630  0.73343  1.0000
  H   H1190     1.0  0.99456  0.35065  0.75183  1.0000
  C   C739      1.0  0.95563  0.37540  0.76317  1.0000
  C   C740      1.0  0.89450  0.50163  0.73940  1.0000
  C   C741      1.0  0.89668  0.65912  0.72232  1.0000
  H   H1191     1.0  0.89086  0.44836  0.76224  1.0000
  H   H1192     1.0  0.88998  0.35439  0.75821  1.0000
  H   H1193     1.0  0.88109  0.51157  0.74815  1.0000
  H   H1194     1.0  0.87943  0.47606  0.77023  1.0000
  C   C742      1.0  0.92286  0.66680  0.63169  1.0000
  C   C743      1.0  0.97087  0.61247  0.64054  1.0000
  H   H1195     1.0  0.00436  0.57782  0.63654  1.0000
  C   C744      1.0  0.89068  0.36411  0.77063  1.0000
  H   H1196     1.0  0.85380  0.48109  0.74360  1.0000
  H   H1197     1.0  0.92069  0.66120  0.75307  1.0000
  H   H1198     1.0  0.88522  0.66634  0.71105  1.0000
  C   C745      1.0  0.89398  0.66354  0.60868  1.0000
  C   C746      1.0  0.00037  0.58348  0.65108  1.0000
  H   H1199     1.0  0.95782  0.37489  0.74756  1.0000
  N   N73       1.0  0.99226  0.60843  0.65104  1.0000
  N   N74       1.0  0.96616  0.35393  0.77261  1.0000
  C   C747      1.0  0.93088  0.66337  0.73935  1.0000
  H   H1200     1.0  0.93666  0.37773  0.76691  1.0000
  H   H1201     1.0  0.97460  0.60339  0.67812  1.0000
  C   C748      1.0  0.98721  0.61495  0.67065  1.0000
  H   H1202     1.0  0.93829  0.64562  0.73595  1.0000
  C   C749      1.0  0.99136  0.35170  0.76732  1.0000
  H   H1203     1.0  0.88579  0.65697  0.73570  1.0000
  H   H1204     1.0  0.00497  0.64172  0.64193  1.0000
  H   H1205     1.0  0.96166  0.39159  0.94680  1.0000
  C   C750      1.0  0.88789  0.65189  0.94816  1.0000
  S   S312      1.0  0.85231  0.60598  0.00468  1.0000
  H   H1206     1.0  0.82516  0.57872  0.94620  1.0000
  C   C751      1.0  0.92581  0.63369  0.93967  1.0000
  Fe  Fe156     1.0  0.89970  0.57423  0.90323  1.0000
  S   S313      1.0  0.93520  0.57861  0.91310  1.0000
  S   S314      1.0  0.86578  0.57271  0.92123  1.0000
  Fe  Fe157     1.0  0.91826  0.56884  0.86176  1.0000
  S   S315      1.0  0.95522  0.57341  0.86840  1.0000
  S   S316      1.0  0.90815  0.55479  0.83449  1.0000
  Fe  Fe158     1.0  0.94762  0.55009  0.89411  1.0000
  S   S317      1.0  0.97048  0.51824  0.90189  1.0000
  Fe  Fe159     1.0  0.93984  0.60162  0.88663  1.0000
  S   S318      1.0  0.95381  0.63683  0.88901  1.0000
  S   S319      1.0  0.91178  0.54359  0.88655  1.0000
  S   S320      1.0  0.90316  0.59932  0.87780  1.0000
  Fe  Fe160     1.0  0.89830  0.38878  0.88935  1.0000
  S   S321      1.0  0.93339  0.40283  0.89042  1.0000
  H   H1207     1.0  0.81927  0.59125  0.97902  1.0000
  Fe  Fe161     1.0  0.91128  0.36904  0.85070  1.0000
  S   S322      1.0  0.94753  0.38082  0.84943  1.0000
  C   C752      1.0  0.00030  0.39236  0.88534  1.0000
  Fe  Fe162     1.0  0.94781  0.36869  0.87987  1.0000
  Fe  Fe163     1.0  0.93049  0.41387  0.85999  1.0000
  S   S323      1.0  0.94116  0.44758  0.84566  1.0000
  S   S324      1.0  0.89393  0.40322  0.85941  1.0000
  H   H1208     1.0  0.98309  0.39994  0.88271  1.0000
  C   C753      1.0  0.96257  0.35515  0.79325  1.0000
  H   H1209     1.0  0.91438  0.36863  0.92206  1.0000
  H   H1210     1.0  0.97052  0.37048  0.79830  1.0000
  H   H1211     1.0  0.89283  0.39864  0.81551  1.0000
  C   C754      1.0  0.96535  0.49799  0.88563  1.0000
  C   C755      1.0  0.96639  0.47413  0.89086  1.0000
  C   C756      1.0  0.96004  0.45827  0.87826  1.0000
  C   C757      1.0  0.95279  0.46627  0.86047  1.0000
  C   C758      1.0  0.95319  0.48995  0.85487  1.0000
  C   C759      1.0  0.95920  0.50581  0.86751  1.0000
  H   H1212     1.0  0.97143  0.46800  0.90478  1.0000
  H   H1213     1.0  0.96072  0.43994  0.88237  1.0000
  H   H1214     1.0  0.94775  0.49625  0.84108  1.0000
  H   H1215     1.0  0.95861  0.52417  0.86328  1.0000
  C   C760      1.0  0.86044  0.51405  0.01306  1.0000
  S   S325      1.0  0.87347  0.39988  0.91391  1.0000
  H   H1216     1.0  0.90209  0.48874  0.84332  1.0000
  C   C761      1.0  0.89575  0.36465  0.80442  1.0000
  C   C762      1.0  0.89221  0.38895  0.80308  1.0000
  C   C763      1.0  0.98366  0.63873  0.89253  1.0000
  C   C764      1.0  0.95810  0.34542  0.94858  1.0000
  N   N75       1.0  0.94010  0.36354  0.94270  1.0000
  C   C765      1.0  0.91037  0.60727  0.79322  1.0000
  C   C766      1.0  0.91095  0.59498  0.81096  1.0000
  C   C767      1.0  0.90909  0.57083  0.81242  1.0000
  C   C768      1.0  0.90713  0.55907  0.79596  1.0000
  H   H1217     1.0  0.86656  0.54290  0.98235  1.0000
  H   H1218     1.0  0.91237  0.60422  0.82353  1.0000
  H   H1219     1.0  0.90566  0.54041  0.79699  1.0000
  C   C769      1.0  0.84949  0.35812  0.96826  1.0000
  H   H1220     1.0  0.93420  0.64256  0.95061  1.0000
  C   C770      1.0  0.86776  0.35887  0.93625  1.0000
  C   C771      1.0  0.86454  0.38323  0.93465  1.0000
  H   H1221     1.0  0.90793  0.63291  0.90568  1.0000
  H   H1222     1.0  0.60402  0.67242  0.01625  1.0000
  C   C772      1.0  0.85571  0.59440  0.98224  1.0000
  C   C773      1.0  0.87816  0.59192  0.97347  1.0000
  C   C774      1.0  0.88154  0.58460  0.95498  1.0000
  C   C775      1.0  0.86244  0.58022  0.94495  1.0000
  C   C776      1.0  0.84003  0.58211  0.95389  1.0000
  C   C777      1.0  0.83666  0.58908  0.97250  1.0000
  H   H1223     1.0  0.89300  0.59587  0.98098  1.0000
  H   H1224     1.0  0.89889  0.58250  0.94842  1.0000
  C   C778      1.0  0.95138  0.38498  0.93582  1.0000
  H   H1225     1.0  0.82026  0.49448  0.00898  1.0000
  H   H1226     1.0  0.81489  0.54590  0.99402  1.0000
  H   H1227     1.0  0.91139  0.62598  0.79228  1.0000
  H   H1228     1.0  0.99500  0.60372  0.88541  1.0000
  C   C779      1.0  0.66283  0.66402  0.01843  1.0000
  S   S326      1.0  0.91286  0.35344  0.88062  1.0000
  C   C780      1.0  0.62129  0.66235  0.01627  1.0000
  H   H1229     1.0  0.86826  0.51338  0.97539  1.0000
  H   H1230     1.0  0.62375  0.65330  0.00289  1.0000
  H   H1231     1.0  0.89296  0.45976  0.84834  1.0000
  H   H1232     1.0  0.88990  0.61810  0.92326  1.0000
  C   C781      1.0  0.83000  0.50029  0.99572  1.0000
  H   H1233     1.0  0.90964  0.38222  0.95457  1.0000
  N   N76       1.0  0.90550  0.64794  0.93253  1.0000
  H   H1234     1.0  0.81746  0.53500  0.01803  1.0000
  H   H1235     1.0  0.84146  0.48511  0.99107  1.0000
  C   C782      1.0  0.00383  0.36849  0.89004  1.0000
  C   C783      1.0  0.89525  0.63559  0.91785  1.0000
  H   H1236     1.0  0.88137  0.63517  0.95429  1.0000
  H   H1237     1.0  0.85102  0.41371  0.94883  1.0000
  C   C784      1.0  0.85611  0.52772  0.98064  1.0000
  H   H1238     1.0  0.87960  0.64554  0.91236  1.0000
  H   H1239     1.0  0.84388  0.53306  0.96940  1.0000
  C   C785      1.0  0.90833  0.59551  0.77678  1.0000
  H   H1240     1.0  0.92079  0.61649  0.94599  1.0000
  N   N77       1.0  0.84354  0.52051  0.99853  1.0000
  C   C786      1.0  0.88727  0.40071  0.78571  1.0000
  Fe  Fe164     1.0  0.82161  0.35666  0.01519  1.0000
  H   H1241     1.0  0.91453  0.35294  0.96422  1.0000
  H   H1242     1.0  0.83791  0.39170  0.97826  1.0000
  C   C787      1.0  0.00032  0.62009  0.88974  1.0000
  C   C788      1.0  0.86036  0.34642  0.95299  1.0000
  H   H1243     1.0  0.87251  0.66292  0.94331  1.0000
  N   N78       1.0  0.87867  0.48477  0.86780  1.0000
  C   C789      1.0  0.89812  0.48143  0.88047  1.0000
  C   C790      1.0  0.86957  0.50947  0.86717  1.0000
  C   C791      1.0  0.86006  0.46958  0.87489  1.0000
  C   C792      1.0  0.88704  0.47857  0.84863  1.0000
  H   H1244     1.0  0.90623  0.46327  0.88050  1.0000
  H   H1245     1.0  0.89233  0.48509  0.89522  1.0000
  H   H1246     1.0  0.91200  0.49336  0.87602  1.0000
  H   H1247     1.0  0.85422  0.51246  0.85841  1.0000
  H   H1248     1.0  0.86433  0.51531  0.88149  1.0000
  H   H1249     1.0  0.88294  0.52116  0.86085  1.0000
  H   H1250     1.0  0.84530  0.47115  0.86544  1.0000
  H   H1251     1.0  0.85307  0.47408  0.88920  1.0000
  H   H1252     1.0  0.86664  0.45087  0.87592  1.0000
  H   H1253     1.0  0.87320  0.48207  0.83845  1.0000
  H   H1254     1.0  0.88383  0.41939  0.78508  1.0000
  H   H1255     1.0  0.93933  0.63018  0.92816  1.0000
  H   H1256     1.0  0.96353  0.38181  0.92332  1.0000
  C   C793      1.0  0.84631  0.38246  0.96668  1.0000
  C   C794      1.0  0.92351  0.36871  0.95877  1.0000
  H   H1257     1.0  0.96809  0.35115  0.96011  1.0000
  C   C795      1.0  0.85376  0.39490  0.94995  1.0000
  C   C796      1.0  0.90694  0.57130  0.77820  1.0000
  H   H1258     1.0  0.81699  0.50462  0.98491  1.0000
  H   H1259     1.0  0.87541  0.34958  0.92443  1.0000
  H   H1260     1.0  0.83724  0.55544  0.00758  1.0000
  C   C797      1.0  0.99077  0.65982  0.89814  1.0000
  H   H1261     1.0  0.00466  0.47367  0.86471  1.0000
  S   S327      1.0  0.97996  0.35080  0.89239  1.0000
  H   H1262     1.0  0.87295  0.49946  0.00880  1.0000
  C   C798      1.0  0.89473  0.35227  0.78817  1.0000
  H   H1263     1.0  0.93237  0.37525  0.97060  1.0000
  H   H1264     1.0  0.93827  0.39919  0.93157  1.0000
  H   H1265     1.0  0.89514  0.66065  0.95974  1.0000
  H   H1266     1.0  0.87061  0.52909  0.01578  1.0000
  H   H1267     1.0  0.94373  0.35672  0.79772  1.0000
  S   S328      1.0  0.90195  0.34925  0.82601  1.0000
  C   C799      1.0  0.91310  0.67060  0.92438  1.0000
  S   S329      1.0  0.78261  0.36326  0.01806  1.0000
  H   H1268     1.0  0.93940  0.35012  0.91536  1.0000
  C   C800      1.0  0.92739  0.35504  0.92745  1.0000
  C   C801      1.0  0.82758  0.54007  0.00479  1.0000
  H   H1269     1.0  0.92655  0.66814  0.91263  1.0000
  H   H1270     1.0  0.66642  0.65452  0.00535  1.0000
  S   S330      1.0  0.84009  0.34157  0.98890  1.0000
  H   H1271     1.0  0.97808  0.67431  0.90024  1.0000
  H   H1272     1.0  0.97083  0.34135  0.93660  1.0000
  Fe  Fe165     1.0  0.62741  0.86822  0.22589  1.0000
  S   S331      1.0  0.61709  0.90543  0.21745  1.0000
  S   S332      1.0  0.62307  0.85402  0.25617  1.0000
  Fe  Fe166     1.0  0.63845  0.85536  0.18469  1.0000
  S   S333      1.0  0.62837  0.89168  0.17337  1.0000
  S   S334      1.0  0.65643  0.82943  0.16484  1.0000
  Fe  Fe167     1.0  0.64804  0.90294  0.19689  1.0000
  S   S335      1.0  0.67246  0.93149  0.19099  1.0000
  Fe  Fe168     1.0  0.59841  0.89065  0.19479  1.0000
  S   S336      1.0  0.56313  0.90791  0.18899  1.0000
  S   S337      1.0  0.66021  0.86684  0.20721  1.0000
  S   S338      1.0  0.60665  0.85316  0.20447  1.0000
  Fe  Fe169     1.0  0.62512  0.77623  0.06787  1.0000
  S   S339      1.0  0.62673  0.73761  0.06301  1.0000
  S   S340      1.0  0.60983  0.79334  0.09425  1.0000
  Fe  Fe170     1.0  0.65817  0.74496  0.04352  1.0000
  C   C802      1.0  0.56745  0.82636  0.23989  1.0000
  Fe  Fe171     1.0  0.60567  0.74836  0.03785  1.0000
  C   C803      1.0  0.63361  0.00074  0.25811  1.0000
  S   S341      1.0  0.65769  0.78316  0.04991  1.0000
  S   S342      1.0  0.60178  0.78588  0.04406  1.0000
  H   H1273     1.0  0.67809  0.68292  0.06277  1.0000
  C   C804      1.0  0.54746  0.73465  0.03452  1.0000
  C   C805      1.0  0.54228  0.74195  0.05272  1.0000
  H   H1274     1.0  0.52348  0.84294  0.23480  1.0000
  H   H1275     1.0  0.72073  0.86452  0.12898  1.0000
  C   C806      1.0  0.70648  0.69527  0.04478  1.0000
  H   H1276     1.0  0.56662  0.95741  0.17379  1.0000
  H   H1277     1.0  0.53704  0.82869  0.19408  1.0000
  H   H1278     1.0  0.58648  0.82799  0.24078  1.0000
  C   C807      1.0  0.65554  0.95781  0.18809  1.0000
  C   C808      1.0  0.66560  0.97924  0.18818  1.0000
  H   H1279     1.0  0.53573  0.00254  0.20330  1.0000
  C   C809      1.0  0.53188  0.84712  0.19438  1.0000
  C   C810      1.0  0.61749  0.97816  0.18635  1.0000
  C   C811      1.0  0.63153  0.95736  0.18688  1.0000
  H   H1280     1.0  0.68423  0.97963  0.18895  1.0000
  C   C812      1.0  0.71448  0.88311  0.13049  1.0000
  N   N79       1.0  0.69204  0.88495  0.14162  1.0000
  H   H1281     1.0  0.62365  0.94097  0.18653  1.0000
  C   C813      1.0  0.54194  0.88742  0.19103  1.0000
  C   C814      1.0  0.54840  0.86363  0.19015  1.0000
  H   H1282     1.0  0.70059  0.85465  0.15985  1.0000
  C   C815      1.0  0.55668  0.97187  0.16597  1.0000
  H   H1283     1.0  0.56606  0.85790  0.18610  1.0000
  C   C816      1.0  0.67443  0.87330  0.13206  1.0000
  C   C817      1.0  0.64347  0.82022  0.14490  1.0000
  C   C818      1.0  0.65709  0.80689  0.13191  1.0000
  C   C819      1.0  0.64728  0.79897  0.11604  1.0000
  C   C820      1.0  0.62364  0.80408  0.11318  1.0000
  C   C821      1.0  0.61013  0.81761  0.12610  1.0000
  C   C822      1.0  0.62000  0.82582  0.14179  1.0000
  H   H1284     1.0  0.67524  0.80239  0.13424  1.0000
  H   H1285     1.0  0.65782  0.78847  0.10627  1.0000
  H   H1286     1.0  0.59182  0.82159  0.12403  1.0000
  H   H1287     1.0  0.60930  0.83603  0.15166  1.0000
  H   H1288     1.0  0.55621  0.74576  0.06129  1.0000
  H   H1289     1.0  0.55456  0.87050  0.22837  1.0000
  C   C823      1.0  0.51859  0.89476  0.19484  1.0000
  H   H1290     1.0  0.66743  0.91181  0.15171  1.0000
  C   C824      1.0  0.68434  0.90981  0.14341  1.0000
  H   H1291     1.0  0.56151  0.00665  0.18843  1.0000
  H   H1292     1.0  0.59893  0.97760  0.18579  1.0000
  H   H1293     1.0  0.67830  0.87443  0.16918  1.0000
  H   H1294     1.0  0.55898  0.97992  0.20258  1.0000
  H   H1295     1.0  0.67163  0.88142  0.11774  1.0000
  H   H1296     1.0  0.63492  0.90236  0.25741  1.0000
  H   H1297     1.0  0.72817  0.89168  0.13734  1.0000
  H   H1298     1.0  0.67740  0.99717  0.22412  1.0000
  H   H1299     1.0  0.51339  0.91312  0.19529  1.0000
  H   H1300     1.0  0.65730  0.87405  0.14017  1.0000
  H   H1301     1.0  0.51414  0.95730  0.17478  1.0000
  H   H1302     1.0  0.53171  0.95144  0.19462  1.0000
  N   N80       1.0  0.53832  0.98324  0.17833  1.0000
  C   C825      1.0  0.54909  0.99351  0.19387  1.0000
  C   C826      1.0  0.55962  0.84079  0.27086  1.0000
  H   H1303     1.0  0.63572  0.67674  0.04854  1.0000
  H   H1304     1.0  0.67963  0.85444  0.13063  1.0000
  H   H1305     1.0  0.56936  0.98449  0.16004  1.0000
  N   N81       1.0  0.65257  0.98863  0.24683  1.0000
  H   H1306     1.0  0.70787  0.88195  0.16836  1.0000
  H   H1307     1.0  0.61900  0.70004  0.03656  1.0000
  H   H1308     1.0  0.57767  0.87039  0.24404  1.0000
  C   C827      1.0  0.52232  0.96568  0.18615  1.0000
  C   C828      1.0  0.67012  0.97754  0.25944  1.0000
  C   C829      1.0  0.62730  0.99953  0.18717  1.0000
  H   H1309     1.0  0.56360  0.82842  0.22473  1.0000
  H   H1310     1.0  0.52395  0.82312  0.25514  1.0000
  C   C830      1.0  0.52856  0.84082  0.24964  1.0000
  N   N82       1.0  0.55362  0.84388  0.25095  1.0000
  H   H1311     1.0  0.71292  0.89150  0.11608  1.0000
  H   H1312     1.0  0.69700  0.91902  0.15091  1.0000
  C   C831      1.0  0.72912  0.68935  0.03723  1.0000
  H   H1313     1.0  0.79095  0.68141  0.11550  1.0000
  S   S343      1.0  0.69285  0.72324  0.03827  1.0000
  H   H1314     1.0  0.68205  0.91913  0.12942  1.0000
  H   H1315     1.0  0.51692  0.99489  0.15541  1.0000
  H   H1316     1.0  0.62481  0.98842  0.26839  1.0000
  C   C832      1.0  0.55887  0.86756  0.24337  1.0000
  C   C833      1.0  0.50870  0.85443  0.19887  1.0000
  H   H1317     1.0  0.63419  0.95747  0.24596  1.0000
  C   C834      1.0  0.69496  0.87351  0.16055  1.0000
  C   C835      1.0  0.64295  0.97054  0.23633  1.0000
  C   C836      1.0  0.51910  0.74326  0.06022  1.0000
  H   H1318     1.0  0.51548  0.74787  0.07461  1.0000
  H   H1319     1.0  0.66241  0.96443  0.26970  1.0000
  C   C837      1.0  0.63599  0.68951  0.03616  1.0000
  H   H1320     1.0  0.56376  0.80828  0.24503  1.0000
  C   C838      1.0  0.66363  0.00574  0.23344  1.0000
  H   H1321     1.0  0.68471  0.96834  0.25130  1.0000
  H   H1322     1.0  0.64983  0.70148  0.03806  1.0000
  H   H1323     1.0  0.75160  0.68405  0.10215  1.0000
  H   H1324     1.0  0.54884  0.88126  0.25138  1.0000
  H   H1325     1.0  0.51753  0.85381  0.25770  1.0000
  C   C839      1.0  0.65142  0.00017  0.18779  1.0000
  C   C840      1.0  0.69533  0.67864  0.05661  1.0000
  H   H1326     1.0  0.78692  0.68010  0.08099  1.0000
  H   H1327     1.0  0.54919  0.96407  0.15401  1.0000
  Fe  Fe172     1.0  0.63425  0.79006  0.02570  1.0000
  H   H1328     1.0  0.63000  0.97836  0.22639  1.0000
  H   H1329     1.0  0.65687  0.96081  0.22787  1.0000
  C   C841      1.0  0.52521  0.00190  0.16734  1.0000
  H   H1330     1.0  0.67772  0.99074  0.26757  1.0000
  H   H1331     1.0  0.57843  0.84296  0.27233  1.0000
  H   H1332     1.0  0.50805  0.97362  0.19539  1.0000
  C   C842      1.0  0.63102  0.89552  0.27163  1.0000
  H   H1333     1.0  0.73795  0.70201  0.02805  1.0000
  C   C843      1.0  0.62491  0.87245  0.27488  1.0000
  Fe  Fe173     1.0  0.59461  0.87214  0.38143  1.0000
  S   S344      1.0  0.63075  0.86881  0.36768  1.0000
  S   S345      1.0  0.57068  0.84299  0.38257  1.0000
  Fe  Fe174     1.0  0.59838  0.92163  0.39073  1.0000
  S   S346      1.0  0.63460  0.92274  0.37757  1.0000
  S   S347      1.0  0.58032  0.95269  0.40408  1.0000
  Fe  Fe175     1.0  0.62133  0.90427  0.35406  1.0000
  S   S348      1.0  0.63022  0.91886  0.32434  1.0000
  Fe  Fe176     1.0  0.64070  0.88754  0.39256  1.0000
  S   S349      1.0  0.67465  0.87848  0.40687  1.0000
  S   S350      1.0  0.58442  0.90620  0.36610  1.0000
  S   S351      1.0  0.60522  0.88783  0.40734  1.0000
  H   H1334     1.0  0.64898  0.94010  0.46286  1.0000
  H   H1335     1.0  0.66113  0.96493  0.48751  1.0000
  H   H1336     1.0  0.67346  0.97289  0.45376  1.0000
  H   H1337     1.0  0.69433  0.95312  0.44234  1.0000
  H   H1338     1.0  0.66067  0.91490  0.47625  1.0000
  S   S352      1.0  0.68351  0.86361  0.49559  1.0000
  C   C844      1.0  0.68905  0.96068  0.45609  1.0000
  S   S353      1.0  0.74753  0.88451  0.50801  1.0000
  H   H1339     1.0  0.62138  0.82654  0.42643  1.0000
  H   H1340     1.0  0.67477  0.82867  0.42240  1.0000
  H   H1341     1.0  0.65865  0.80850  0.43722  1.0000
  H   H1342     1.0  0.67317  0.93935  0.50025  1.0000
  H   H1343     1.0  0.55597  0.82309  0.27702  1.0000
  H   H1344     1.0  0.71144  0.91848  0.46010  1.0000
  H   H1345     1.0  0.71975  0.93591  0.47828  1.0000
  C   C845      1.0  0.62783  0.90080  0.30548  1.0000
  H   H1346     1.0  0.92869  0.83173  0.52059  1.0000
  H   H1347     1.0  0.65982  0.97805  0.32942  1.0000
  H   H1348     1.0  0.63011  0.97029  0.33199  1.0000
  C   C846      1.0  0.62149  0.87783  0.30869  1.0000
  C   C847      1.0  0.63252  0.90961  0.28689  1.0000
  H   H1349     1.0  0.61784  0.87086  0.32293  1.0000
  C   C848      1.0  0.54205  0.85342  0.38896  1.0000
  H   H1350     1.0  0.87634  0.80054  0.51235  1.0000
  C   C849      1.0  0.81127  0.78480  0.51961  1.0000
  H   H1351     1.0  0.66791  0.83473  0.38874  1.0000
  C   C850      1.0  0.53812  0.87118  0.40150  1.0000
  C   C851      1.0  0.52302  0.84397  0.38162  1.0000
  S   S354      1.0  0.91387  0.72465  0.51379  1.0000
  H   H1352     1.0  0.55268  0.87842  0.40733  1.0000
  C   C852      1.0  0.68162  0.86834  0.47091  1.0000
  C   C853      1.0  0.70122  0.87136  0.45870  1.0000
  C   C854      1.0  0.69879  0.87471  0.43913  1.0000
  C   C855      1.0  0.67675  0.87550  0.43162  1.0000
  C   C856      1.0  0.65714  0.87275  0.44387  1.0000
  C   C857      1.0  0.65964  0.86884  0.46336  1.0000
  H   H1353     1.0  0.71828  0.87064  0.46431  1.0000
  H   H1354     1.0  0.71410  0.87657  0.42975  1.0000
  H   H1355     1.0  0.64006  0.87336  0.43837  1.0000
  H   H1356     1.0  0.64439  0.86643  0.47271  1.0000
  C   C858      1.0  0.64392  0.97160  0.41349  1.0000
  C   C859      1.0  0.62473  0.95811  0.41315  1.0000
  C   C860      1.0  0.60249  0.96894  0.41094  1.0000
  H   H1357     1.0  0.90525  0.68903  0.47275  1.0000
  C   C861      1.0  0.66663  0.81167  0.42274  1.0000
  H   H1358     1.0  0.62729  0.93931  0.41377  1.0000
  C   C862      1.0  0.66510  0.92875  0.46524  1.0000
  H   H1359     1.0  0.65310  0.77486  0.40556  1.0000
  C   C863      1.0  0.63938  0.78888  0.40874  1.0000
  H   H1360     1.0  0.52599  0.83027  0.37188  1.0000
  H   H1361     1.0  0.69107  0.96302  0.49364  1.0000
  H   H1362     1.0  0.61682  0.83077  0.40170  1.0000
  H   H1363     1.0  0.68094  0.79797  0.42045  1.0000
  S   S355      1.0  0.84792  0.75134  0.52173  1.0000
  H   H1364     1.0  0.61545  0.84589  0.29609  1.0000
  Fe  Fe177     1.0  0.91290  0.68599  0.52060  1.0000
  Fe  Fe178     1.0  0.71112  0.87350  0.51473  1.0000
  H   H1365     1.0  0.67007  0.92002  0.45195  1.0000
  C   C864      1.0  0.67701  0.95292  0.48884  1.0000
  H   H1366     1.0  0.70338  0.97113  0.45984  1.0000
  C   C865      1.0  0.63030  0.82991  0.41234  1.0000
  H   H1367     1.0  0.89409  0.79777  0.49090  1.0000
  H   H1368     1.0  0.54961  0.85379  0.27963  1.0000
  H   H1369     1.0  0.53100  0.96747  0.41488  1.0000
  H   H1370     1.0  0.70189  0.91200  0.48418  1.0000
  H   H1371     1.0  0.64778  0.81776  0.37831  1.0000
  C   C866      1.0  0.66044  0.81734  0.38953  1.0000
  H   H1372     1.0  0.53559  0.92887  0.40049  1.0000
  H   H1373     1.0  0.66128  0.96319  0.41379  1.0000
  C   C867      1.0  0.62010  0.86372  0.29345  1.0000
  H   H1374     1.0  0.63722  0.84742  0.41216  1.0000
  C   C868      1.0  0.51981  0.97385  0.40316  1.0000
  C   C869      1.0  0.51531  0.87918  0.40691  1.0000
  N   N83       1.0  0.64920  0.81192  0.40834  1.0000
  H   H1375     1.0  0.53597  0.94361  0.37766  1.0000
  H   H1376     1.0  0.67492  0.80423  0.38604  1.0000
  C   C870      1.0  0.70522  0.92649  0.47344  1.0000
  H   H1377     1.0  0.65010  0.96000  0.34933  1.0000
  C   C871      1.0  0.61852  0.99186  0.36372  1.0000
  H   H1378     1.0  0.90132  0.68532  0.43855  1.0000
  H   H1379     1.0  0.62595  0.78871  0.39817  1.0000
  H   H1380     1.0  0.63090  0.78423  0.42280  1.0000
  N   N84       1.0  0.68410  0.94223  0.47089  1.0000
  H   H1381     1.0  0.51536  0.92197  0.38380  1.0000
  N   N85       1.0  0.63858  0.99631  0.35041  1.0000
  C   C872      1.0  0.64493  0.97532  0.33979  1.0000
  H   H1382     1.0  0.80535  0.77433  0.50902  1.0000
  C   C873      1.0  0.65853  0.00175  0.36101  1.0000
  S   S356      1.0  0.73555  0.95415  0.51324  1.0000
  C   C874      1.0  0.59902  0.99317  0.41142  1.0000
  H   H1383     1.0  0.95057  0.79385  0.51412  1.0000
  H   H1384     1.0  0.58178  0.00163  0.41010  1.0000
  H   H1385     1.0  0.89200  0.77339  0.50772  1.0000
  H   H1386     1.0  0.72139  0.00258  0.51396  1.0000
  H   H1387     1.0  0.60311  0.98750  0.35635  1.0000
  H   H1388     1.0  0.63748  0.92732  0.28432  1.0000
  H   H1389     1.0  0.62274  0.97694  0.37393  1.0000
  H   H1390     1.0  0.53149  0.98156  0.39178  1.0000
  C   C875      1.0  0.64071  0.99592  0.41217  1.0000
  H   H1391     1.0  0.91529  0.83190  0.49846  1.0000
  H   H1392     1.0  0.51242  0.89248  0.41699  1.0000
  C   C876      1.0  0.93502  0.78912  0.50705  1.0000
  H   H1393     1.0  0.93736  0.79440  0.49181  1.0000
  C   C877      1.0  0.52423  0.93650  0.38926  1.0000
  C   C878      1.0  0.91372  0.82565  0.51355  1.0000
  H   H1394     1.0  0.50752  0.98816  0.40837  1.0000
  H   H1395     1.0  0.78217  0.81071  0.51738  1.0000
  C   C879      1.0  0.89308  0.79265  0.50623  1.0000
  H   H1396     1.0  0.93526  0.76974  0.50840  1.0000
  H   H1397     1.0  0.66335  0.98732  0.37153  1.0000
  N   N86       1.0  0.50726  0.95477  0.39644  1.0000
  N   N87       1.0  0.91325  0.79998  0.51565  1.0000
  C   C880      1.0  0.73552  0.99931  0.52323  1.0000
  H   H1398     1.0  0.67419  0.00482  0.35153  1.0000
  H   H1399     1.0  0.61327  0.00729  0.37204  1.0000
  H   H1400     1.0  0.89751  0.83436  0.51992  1.0000
  C   C881      1.0  0.61817  0.00666  0.41221  1.0000
  C   C882      1.0  0.79804  0.80547  0.52432  1.0000
  Fe  Fe179     1.0  0.73638  0.91611  0.52443  1.0000
  Fe  Fe180     1.0  0.57677  0.87403  0.70180  1.0000
  S   S357      1.0  0.61312  0.86027  0.70798  1.0000
  S   S358      1.0  0.54532  0.85340  0.70868  1.0000
  Fe  Fe181     1.0  0.59074  0.92240  0.69117  1.0000
  S   S359      1.0  0.62832  0.91325  0.69603  1.0000
  S   S360      1.0  0.57733  0.95927  0.68382  1.0000
  Fe  Fe182     1.0  0.62402  0.88081  0.68121  1.0000
  S   S361      1.0  0.65532  0.86533  0.66400  1.0000
  Fe  Fe183     1.0  0.61526  0.89352  0.72233  1.0000
  S   S362      1.0  0.63460  0.89853  0.74835  1.0000
  S   S363      1.0  0.58719  0.89177  0.67381  1.0000
  S   S364      1.0  0.57800  0.90551  0.71858  1.0000
  C   C883      1.0  0.98915  0.74902  0.54449  1.0000
  S   S365      1.0  0.89721  0.73159  0.55851  1.0000
  C   C884      1.0  0.60946  0.86824  0.77183  1.0000
  C   C885      1.0  0.52272  0.93251  0.68098  1.0000
  H   H1401     1.0  0.58983  0.00627  0.67481  1.0000
  Fe  Fe184     1.0  0.93113  0.72495  0.54132  1.0000
  C   C886      1.0  0.62447  0.88634  0.77048  1.0000
  Fe  Fe185     1.0  0.89715  0.69251  0.56206  1.0000
  H   H1402     1.0  0.73037  0.88287  0.71326  1.0000
  Fe  Fe186     1.0  0.71043  0.88737  0.55628  1.0000
  S   S366      1.0  0.74674  0.89936  0.55221  1.0000
  S   S367      1.0  0.68389  0.89959  0.57934  1.0000
  Fe  Fe187     1.0  0.75538  0.86637  0.53642  1.0000
  H   H1403     1.0  0.78540  0.98717  0.55715  1.0000
  H   H1404     1.0  0.68912  0.94410  0.56228  1.0000
  H   H1405     1.0  0.92643  0.79717  0.54338  1.0000
  S   S368      1.0  0.71922  0.85355  0.54225  1.0000
  H   H1406     1.0  0.83083  0.69576  0.56298  1.0000
  C   C887      1.0  0.81960  0.75109  0.57673  1.0000
  H   H1407     1.0  0.89547  0.70582  0.71844  1.0000
  S   S369      1.0  0.78972  0.84590  0.54434  1.0000
  H   H1408     1.0  0.81224  0.75952  0.58960  1.0000
  C   C888      1.0  0.59839  0.99972  0.68735  1.0000
  S   S370      1.0  0.87784  0.69001  0.53585  1.0000
  H   H1409     1.0  0.99550  0.71268  0.53882  1.0000
  N   N88       1.0  0.81995  0.72537  0.57915  1.0000
  C   C889      1.0  0.80543  0.81940  0.53788  1.0000
  H   H1410     1.0  0.67849  0.85084  0.70470  1.0000
  H   H1411     1.0  0.85330  0.72132  0.59143  1.0000
  H   H1412     1.0  0.51363  0.95698  0.72315  1.0000
  H   H1413     1.0  0.89590  0.69644  0.74297  1.0000
  C   C890      1.0  0.90667  0.69738  0.72947  1.0000
  C   C891      1.0  0.72687  0.94715  0.58215  1.0000
  H   H1414     1.0  0.52861  0.96826  0.70192  1.0000
  H   H1415     1.0  0.94478  0.68729  0.70721  1.0000
  N   N89       1.0  0.50917  0.93856  0.69848  1.0000
  C   C892      1.0  0.69564  0.96177  0.56265  1.0000
  H   H1416     1.0  0.82878  0.72462  0.60812  1.0000
  C   C893      1.0  0.59525  0.97700  0.69470  1.0000
  C   C894      1.0  0.60699  0.96818  0.71050  1.0000
  C   C895      1.0  0.62247  0.98176  0.71855  1.0000
  H   H1417     1.0  0.50709  0.88678  0.65251  1.0000
  S   S371      1.0  0.93235  0.68603  0.54720  1.0000
  H   H1418     1.0  0.60432  0.95081  0.71650  1.0000
  H   H1419     1.0  0.63188  0.97464  0.73052  1.0000
  H   H1420     1.0  0.69921  0.87580  0.68087  1.0000
  C   C896      1.0  0.66291  0.87475  0.64036  1.0000
  C   C897      1.0  0.65063  0.89352  0.63119  1.0000
  C   C898      1.0  0.65730  0.90069  0.61249  1.0000
  C   C899      1.0  0.67623  0.88919  0.60272  1.0000
  C   C900      1.0  0.68860  0.87046  0.61190  1.0000
  C   C901      1.0  0.68196  0.86332  0.63066  1.0000
  H   H1421     1.0  0.63592  0.90244  0.63846  1.0000
  H   H1422     1.0  0.64753  0.91511  0.60550  1.0000
  H   H1423     1.0  0.70319  0.86146  0.60456  1.0000
  H   H1424     1.0  0.69152  0.84874  0.63762  1.0000
  H   H1425     1.0  0.89515  0.80053  0.54295  1.0000
  C   C902      1.0  0.52424  0.87127  0.67677  1.0000
  H   H1426     1.0  0.85524  0.78627  0.54896  1.0000
  S   S372      1.0  0.95826  0.75124  0.54371  1.0000
  H   H1427     1.0  0.54152  0.87381  0.67063  1.0000
  H   H1428     1.0  0.72071  0.85550  0.70706  1.0000
  N   N90       1.0  0.69358  0.88274  0.71019  1.0000
  H   H1429     1.0  0.72767  0.99164  0.56823  1.0000
  C   C903      1.0  0.67512  0.86622  0.71345  1.0000
  C   C904      1.0  0.68785  0.90302  0.72175  1.0000
  C   C905      1.0  0.71600  0.87093  0.71553  1.0000
  H   H1430     1.0  0.70902  0.90320  0.68697  1.0000
  H   H1431     1.0  0.65810  0.87469  0.70963  1.0000
  H   H1432     1.0  0.73598  0.94888  0.59524  1.0000
  H   H1433     1.0  0.53963  0.94182  0.71365  1.0000
  H   H1434     1.0  0.67307  0.85992  0.72852  1.0000
  C   C906      1.0  0.91119  0.79251  0.53587  1.0000
  H   H1435     1.0  0.68593  0.89757  0.73702  1.0000
  H   H1436     1.0  0.67099  0.91232  0.71807  1.0000
  H   H1437     1.0  0.70140  0.91587  0.71980  1.0000
  H   H1438     1.0  0.67418  0.00290  0.77081  1.0000
  H   H1439     1.0  0.71520  0.86466  0.73065  1.0000
  H   H1440     1.0  0.67441  0.97346  0.59563  1.0000
  H   H1441     1.0  0.72125  0.92902  0.58256  1.0000
  H   H1442     1.0  0.60360  0.86167  0.75918  1.0000
  H   H1443     1.0  0.68340  0.94298  0.59700  1.0000
  C   C907      1.0  0.83202  0.77762  0.52840  1.0000
  C   C908      1.0  0.79605  0.71824  0.58360  1.0000
  H   H1444     1.0  0.98901  0.78525  0.55026  1.0000
  C   C909      1.0  0.69528  0.89071  0.69004  1.0000
  H   H1445     1.0  0.72390  0.99090  0.59335  1.0000
  H   H1446     1.0  0.83532  0.69759  0.59700  1.0000
  N   N91       1.0  0.70684  0.96450  0.58041  1.0000
  H   H1447     1.0  0.68059  0.97469  0.56075  1.0000
  H   H1448     1.0  0.79575  0.69890  0.58530  1.0000
  H   H1449     1.0  0.83211  0.82277  0.55721  1.0000
  H   H1450     1.0  0.51868  0.90530  0.71256  1.0000
  C   C910      1.0  0.76332  0.97212  0.53846  1.0000
  C   C911      1.0  0.83940  0.79147  0.54202  1.0000
  H   H1451     1.0  0.78434  0.72447  0.57220  1.0000
  H   H1452     1.0  0.53847  0.92084  0.68403  1.0000
  C   C912      1.0  0.52330  0.95206  0.70986  1.0000
  C   C913      1.0  0.52133  0.86066  0.69487  1.0000
  H   H1453     1.0  0.81835  0.72072  0.54952  1.0000
  C   C914      1.0  0.82621  0.81218  0.54669  1.0000
  S   S373      1.0  0.69986  0.90596  0.52924  1.0000
  H   H1454     1.0  0.69773  0.96262  0.61016  1.0000
  H   H1455     1.0  0.84700  0.72094  0.55753  1.0000
  H   H1456     1.0  0.67856  0.89957  0.68552  1.0000
  C   C915      1.0  0.77141  0.99061  0.54770  1.0000
  C   C916      1.0  0.68985  0.96080  0.59652  1.0000
  H   H1457     1.0  0.78848  0.72550  0.59691  1.0000
  H   H1458     1.0  0.77124  0.95461  0.54064  1.0000
  C   C917      1.0  0.83491  0.71694  0.59464  1.0000
  H   H1459     1.0  0.80895  0.75798  0.56480  1.0000
  C   C918      1.0  0.00337  0.72851  0.54158  1.0000
  C   C919      1.0  0.82934  0.71518  0.56154  1.0000
  C   C920      1.0  0.74551  0.97648  0.52601  1.0000
  H   H1460     1.0  0.92086  0.70904  0.73120  1.0000
  H   H1461     1.0  0.73983  0.94912  0.57003  1.0000
  H   H1462     1.0  0.70807  0.96400  0.55023  1.0000
  H   H1463     1.0  0.91062  0.77327  0.53786  1.0000
  H   H1464     1.0  0.91947  0.68300  0.69458  1.0000
  H   H1465     1.0  0.83745  0.75698  0.57359  1.0000
  C   C921      1.0  0.71501  0.98826  0.58031  1.0000
  C   C922      1.0  0.99968  0.76934  0.54796  1.0000
  H   H1466     1.0  0.92161  0.68686  0.60496  1.0000
  Fe  Fe188     1.0  0.88011  0.72892  0.53142  1.0000
  H   H1467     1.0  0.70038  0.00186  0.57911  1.0000
  H   H1468     1.0  0.52881  0.94829  0.67285  1.0000
  C   C923      1.0  0.93020  0.67585  0.70637  1.0000
  C   C924      1.0  0.62585  0.00439  0.71109  1.0000
  H   H1469     1.0  0.51218  0.92336  0.67161  1.0000
  H   H1470     1.0  0.93778  0.67506  0.63593  1.0000
  Fe  Fe189     1.0  0.60795  0.86741  0.85605  1.0000
  S   S374      1.0  0.59797  0.90435  0.86307  1.0000
  S   S375      1.0  0.60039  0.85340  0.82818  1.0000
  Fe  Fe190     1.0  0.62047  0.85274  0.89695  1.0000
  S   S376      1.0  0.61140  0.88859  0.90687  1.0000
  S   S377      1.0  0.63351  0.82204  0.91604  1.0000
  Fe  Fe191     1.0  0.58054  0.88864  0.88934  1.0000
  S   S378      1.0  0.54532  0.90401  0.89907  1.0000
  Fe  Fe192     1.0  0.62981  0.90089  0.87983  1.0000
  S   S379      1.0  0.65489  0.92918  0.87886  1.0000
  S   S380      1.0  0.58804  0.85178  0.88126  1.0000
  S   S381      1.0  0.64142  0.86490  0.87086  1.0000
  H   H1471     1.0  0.54101  0.78968  0.97517  1.0000
  H   H1472     1.0  0.58139  0.81904  0.01481  1.0000
  S   S382      1.0  0.63253  0.82226  0.00540  1.0000
  H   H1473     1.0  0.53294  0.85560  0.79914  1.0000
  H   H1474     1.0  0.65502  0.70739  0.00344  1.0000
  H   H1475     1.0  0.53902  0.77469  0.00835  1.0000
  C   C925      1.0  0.64236  0.95552  0.88736  1.0000
  C   C926      1.0  0.62297  0.95548  0.90010  1.0000
  H   H1476     1.0  0.55342  0.83673  0.83630  1.0000
  N   N92       1.0  0.52877  0.86477  0.82802  1.0000
  C   C927      1.0  0.65214  0.97666  0.88175  1.0000
  H   H1477     1.0  0.61538  0.93931  0.90459  1.0000
  C   C928      1.0  0.51307  0.84669  0.88811  1.0000
  H   H1478     1.0  0.66720  0.97677  0.87193  1.0000
  C   C929      1.0  0.63252  0.82224  0.94090  1.0000
  C   C930      1.0  0.62567  0.84245  0.95025  1.0000
  C   C931      1.0  0.62599  0.84220  0.96999  1.0000
  C   C932      1.0  0.63269  0.82165  0.98061  1.0000
  C   C933      1.0  0.63921  0.80135  0.97130  1.0000
  C   C934      1.0  0.63925  0.80171  0.95152  1.0000
  H   H1479     1.0  0.62019  0.85827  0.94229  1.0000
  H   H1480     1.0  0.62086  0.85796  0.97712  1.0000
  H   H1481     1.0  0.64457  0.78548  0.97930  1.0000
  H   H1482     1.0  0.64466  0.78602  0.94438  1.0000
  H   H1483     1.0  0.58247  0.83002  0.99079  1.0000
  C   C935      1.0  0.58129  0.78346  0.99218  1.0000
  C   C936      1.0  0.52405  0.88539  0.89412  1.0000
  C   C937      1.0  0.52899  0.86121  0.89458  1.0000
  H   H1484     1.0  0.55864  0.86468  0.80859  1.0000
  H   H1485     1.0  0.64387  0.90842  0.78608  1.0000
  H   H1486     1.0  0.54501  0.85365  0.90007  1.0000
  C   C938      1.0  0.60255  0.85811  0.78960  1.0000
  C   C939      1.0  0.61004  0.86639  0.80617  1.0000
  C   C940      1.0  0.62479  0.88473  0.80484  1.0000
  H   H1487     1.0  0.59254  0.77988  0.00429  1.0000
  H   H1488     1.0  0.59143  0.84369  0.79046  1.0000
  H   H1489     1.0  0.63075  0.89118  0.81750  1.0000
  N   N93       1.0  0.53962  0.97866  0.90154  1.0000
  N   N94       1.0  0.67925  0.88895  0.92650  1.0000
  C   C941      1.0  0.68669  0.87402  0.94301  1.0000
  C   C942      1.0  0.65872  0.90435  0.93211  1.0000
  C   C943      1.0  0.67318  0.87404  0.91168  1.0000
  C   C944      1.0  0.69831  0.90340  0.91910  1.0000
  H   H1490     1.0  0.70220  0.86222  0.93928  1.0000
  H   H1491     1.0  0.67266  0.86273  0.94869  1.0000
  H   H1492     1.0  0.69119  0.88463  0.95460  1.0000
  H   H1493     1.0  0.65247  0.91561  0.91989  1.0000
  H   H1494     1.0  0.64402  0.89407  0.93790  1.0000
  H   H1495     1.0  0.66276  0.91612  0.94307  1.0000
  H   H1496     1.0  0.66789  0.88474  0.89890  1.0000
  H   H1497     1.0  0.65855  0.86319  0.91658  1.0000
  H   H1498     1.0  0.68809  0.86188  0.90728  1.0000
  H   H1499     1.0  0.69297  0.91491  0.90667  1.0000
  H   H1500     1.0  0.71401  0.89241  0.91447  1.0000
  H   H1501     1.0  0.70344  0.91490  0.92988  1.0000
  H   H1502     1.0  0.51829  0.95290  0.89241  1.0000
  H   H1503     1.0  0.52621  0.83753  0.84997  1.0000
  H   H1504     1.0  0.56496  0.95160  0.91041  1.0000
  H   H1505     1.0  0.55602  0.97223  0.92784  1.0000
  H   H1506     1.0  0.62242  0.00483  0.78376  1.0000
  H   H1507     1.0  0.59920  0.97617  0.91779  1.0000
  C   C945      1.0  0.53161  0.96495  0.88664  1.0000
  C   C946      1.0  0.57086  0.82229  0.00221  1.0000
  H   H1508     1.0  0.57503  0.76644  0.98881  1.0000
  H   H1509     1.0  0.56415  0.00454  0.90432  1.0000
  H   H1510     1.0  0.53440  0.89963  0.83508  1.0000
  H   H1511     1.0  0.67746  0.67543  0.01948  1.0000
  C   C947      1.0  0.53942  0.86790  0.80872  1.0000
  H   H1512     1.0  0.59255  0.78991  0.98001  1.0000
  C   C948      1.0  0.61370  0.97638  0.90747  1.0000
  H   H1513     1.0  0.53198  0.80338  0.01638  1.0000
  C   C949      1.0  0.54665  0.79078  0.01227  1.0000
  H   H1514     1.0  0.52781  0.82765  0.82654  1.0000
  N   N95       1.0  0.56170  0.80058  0.99664  1.0000
  H   H1515     1.0  0.53701  0.95030  0.92257  1.0000
  C   C950      1.0  0.54802  0.80575  0.97983  1.0000
  C   C951      1.0  0.63218  0.89448  0.78703  1.0000
  H   H1516     1.0  0.92087  0.68046  0.93505  1.0000
  H   H1517     1.0  0.53290  0.72397  0.00954  1.0000
  H   H1518     1.0  0.53297  0.81848  0.98271  1.0000
  H   H1519     1.0  0.55887  0.81330  0.96780  1.0000
  H   H1520     1.0  0.57258  0.98423  0.88670  1.0000
  C   C952      1.0  0.54985  0.96255  0.91628  1.0000
  S   S383      1.0  0.63701  0.75294  0.01801  1.0000
  C   C953      1.0  0.53821  0.88120  0.84021  1.0000
  H   H1521     1.0  0.51720  0.82806  0.88814  1.0000
  H   H1522     1.0  0.62404  0.70671  0.00215  1.0000
  H   H1523     1.0  0.52507  0.00380  0.92091  1.0000
  H   H1524     1.0  0.53574  0.88594  0.80258  1.0000
  H   H1525     1.0  0.55662  0.83565  0.00567  1.0000
  C   C954      1.0  0.51965  0.99281  0.90986  1.0000
  C   C955      1.0  0.64069  0.69562  0.00241  1.0000
  C   C956      1.0  0.64229  0.99775  0.88861  1.0000
  C   C957      1.0  0.53428  0.84059  0.83553  1.0000
  H   H1526     1.0  0.55745  0.87820  0.84080  1.0000
  C   C958      1.0  0.55737  0.99425  0.89337  1.0000
  H   H1527     1.0  0.54624  0.95388  0.88020  1.0000
  C   C959      1.0  0.62308  0.99759  0.90156  1.0000
  H   H1528     1.0  0.55016  0.00696  0.88246  1.0000
  H   H1529     1.0  0.66274  0.99745  0.79460  1.0000
  N   N96       1.0  0.64021  0.67783  0.01830  1.0000
  H   H1530     1.0  0.53071  0.87913  0.85490  1.0000
  H   H1531     1.0  0.89833  0.68169  0.91855  1.0000
  H   H1532     1.0  0.52375  0.97644  0.87525  1.0000
  H   H1533     1.0  0.64350  0.68747  0.98865  1.0000
  C   C960      1.0  0.52910  0.72970  0.02362  1.0000
  H   H1534     1.0  0.51127  0.00491  0.89905  1.0000
  H   H1535     1.0  0.50600  0.98167  0.91640  1.0000
  S   S384      1.0  0.57660  0.73116  0.02506  1.0000
  H   H1536     1.0  0.55660  0.78592  0.02500  1.0000
