data_image0
_chemical_formula_structural       FeS2FeS2FeSFeS3FeS2FeS2FeSFeS3HCH7C3H5C6H4CH2C3H2NHC2HC2H2CH4C2H2CHC3H2NC4H12NHC2H2CHCH4CH2NCHNHC3HCH2C2H4CHCFeS2FeS2FeSFeS3FeS2H2CHCS2FeS2FeS2FeSFeS3HCHCHCH3CH3CH2C6H4CH4C6H7Fe2CHC2H5C2H2NC4H2SC2HCHSHC2H3NC4H5CHCH4CH3NH2FeCHC2H2CHCHCH2NH4CH2NCHCH8CH5SH3C2FeS2FeS2FeSFeS3FeHSFeCHCHCS2FeS2FeS2FeSFeS3HC2H8C6H4C3HC2H2CHC2H2C6H5C2H2C4H4NHNHCH2SCHCH8C2HCHNHCNH4CNC4H12NC4H8CH4CHCH3C3SHC3HCH2CHNH2FeS2FeS2FeSFeS3HFeS2FeS2FeSFeS3C2H3CHCH2C3H7C6H6C5H2CNH4CH2C3HCH2C3HC2HC2HC2H7CH4NHC2H2NH2CHCHNHC3H4C2H5C2H5CHC2H7FeS2FeS2FeSFeS3FeSHFeS2FeSFeS3C6H4C3H4CHC2HCHCH2C4H8NHC3H4CH3CH2CNHCH5C2HN2C4H2CHC2HCSCHCH4CH3C2H2C2HC2NH14CH3CHC3H8FeS2FeS2FeSFeS5FeSFeSFeS2FeSFeSFeS3C6H4C6H8CHNCH4CH2C3H4C3HC2H2C6H5CH2NC4H12NC4H10CHCHCH3NHCNH2CSH6SHCH2FeHCHCHC2HCHCFeCHCH3CH2C2H5C4FeS2FeS2FeSFeS3FeSFeS3FeS2FeSFeSFeS3C6H4C6H8C3H2C2H3CH2C5NH4CHC2H2CH2CH4CHC2H8SCH3C2H5NHC3FeC2H2C2NHSH3C2H2CHCH3NCHCHSH2CHSHNH3FeH3C2HCH3CHCHCH2CH6CNH3CH7CFeS2FeSFeSFeCS2FeS2FeSHFeSFeS3CHNHCHC6H5CHCH2CHC4H7CH2CSNC3HCH7CSH3CHCHCHSHC2HCHCH5CNH2C2H4CHC2HCHC2H8NH4NCHC2H8CH3FeS2CFeH2SFeSCFeSHFe2S2FeS2FeSCFeSFeS3FeS2FeS2FeSFeS3C6H7SH2CH2C2HC6H4CHC6H4C2HSCHC2HC2HCH3C3HNHC2FeCH2NCH4SH3CHSHC3HSC3H3CHC2NH5NC4H12NC4H12SHFeHC2H2CHCHSH2C3H2C2H3NH16SCFeSCFeCFeSHSH2FeS2FeS2FeSFeS3CHCH2C3H2CSC2H3C6H5SH2CHNCHCH2C2H2CH7CHNC2HCFeH2CH2SHCHCH3CH2CH2SH2CSH2NH4CHCHNH2CH2C4H3CNSCFeSHFeSFeHSCFe2S2FeSCFeSFeS3CHSCHC3H2C3SC6H4CH3SH5NC4H12SH2CHCH2CH3CHCH2CFeHC2SH3C2HCH3C2H2SNHCH3CH2C2HC3SNH2FeCHSHCH3C2HCHCH4FeS2HFeH2CH2S2FeSHFeS2HNFeSCSFeS2FeS2FeSFeS3FeSFeS2FeHFeS3CHC7H4CH2CHCH2C7H5FeH2SHC6H4CHC4HCHCHCSH2CH2C2H6SHFeC2H2FeHCH2SCH5NC4H11NHC2HNH3NH2CHCHSH6C2H3CHC2H3CHCH3CHCSC2HCHFeSFeSHFeS2FeS3FeS2FeS2FeSFeNS2FeS2FeS2FeSFeS3C6H6CH3SCH6CH2CH2CH3C3H3C6H4C6H6CHC2H2C3H2S3HCH5CHSH2C2NCSNHCHFeHSH5SCFeC4HCSHC2H4C4FeC2HC2H7CHCHCH2C2HC2H7NHC3H6C2FeHFeS3HSC2H2FeS2FeS2FeSFeS3H2C2HCH3C2H2CNHCHSHSH3CH7C6H4C2SC2HFeHNH2CHCHCNH3SCHCH8C2FeHSC2H5C2HCFeC2HNH7C2HCH4NHC2HCNC2SCH5CHCHCH2C2SH2CH3CH4CFeSCSFeS2FeS2FeHFeS3CHNSCH2CHCHCH2C4H6C4HNH4C6H4SCHCHCH3CHCHCHCH5CHFeS2HC3NH3CHC2HCH4FeCH3CH2FeHNHS2H2CHC2H8SHCH2C3HNH2C2H4CFeS2FeSHFeSHSFeS3FeS2FeSHFeSFeS3HFeS2FeS2FeSFeS3C6H4CHSCFeH3CH2CHCHC2H3C2H3C6H4C6H4C2H5CH3CH2NCSHNHSC2H4CH4NHCH5NCHCH2FeCHNC2SH4SH2SH3CH2CSNCFeC4NCFeNC4H12CHCH2CHC3HCH7C3H2CHC2HCH3CH3CHCHFeS2FeS2FeSFeCS2CH4FeS2FeSHFeSFeS3CH3CH5CHSHCSH2CHC3H2C7H4C6H5C2HC2HCH2C3H4CH2NC2H7SH4SH2NC2H2NH2C2HCHCHNH2C2H4CH6C2HCHSH5CNHCH6CFeS2FeSCFeSFeS3FeS2FeS2FeSFeS3FeS2FeS2FeHFeS3NCHC2SHNH2CHCH4C6H6CHNHC3HC8H4C2H4C4H3CH2CH3CH2C2HC3H2CHSC2HCH2CH2C2HNC2HCH3CH2CNCH2C2H3CHCH4CNH6CH5CH2CH4CH7CH6CHCH2CH3FeS2FeS2FeCFeS3FeS2FeS2FeHFeNS2FeS2FeS2FeSFeS3H3C2H4CHCH2C3H2C6H6CH3CHC3HCH2CNH2C6H4NHCHCH6CH7SHCHCH5CH4NC3H3CH4NHC4H4SH2CHC3H3CHCH5NH2C3SH2CH2CHCFeS2FeS2FeSFeS3FeS2FeS2FeSFeS3C2H3CH2C4H2CHC8H4C4H4NC6H3SCH2C2H4C3NH2CH4CHCH9CNHCHCH3SCNC3H2CNH2CH2CH2CH3CH4C2H8SH2C2HCH7CHNCH3CHCHFeS2FeS2FeSFeS3HC2NFeSCFeSHFeSFeS3H4C3HCHNH2CH2C6H4C6H5C2H3CH4C2H3CH3CHCH3CH6NH7CHCH2C3HCHC2HSCH2NH2NHSCH2C2H2CHCH5SNH8CHCH5FeS2FeSFeSFeS3FeS2FeS2FeHFeHS2FeSHFeSHFeSFeS3HCH2CH5SHC2SH5NHC7H4C2HC6H8S2CHCHCSH3C4H2C3NH2NH2CH2CNC4H12NH6C2H6CHCH4CHC3H2C2HCHC4FeS2FeSFeSFeS3FeCSFeS2FeNFeCS2FeS2FeSHFeSFeS3HCSH2CH3CNH2C3HSHCH3CHC2H2CHC6H4CH3C6H6NH2C2HCH3CSNC4H12CSH6C3HCSNC4H3CHCH5CH5C2H3SHCH3CH4CHC2H4SHFeS2FeS2FeSFeS3HCH3CSCFeS2FeS2FeHFeS3C2H7CHC6H4CH5C6H7NH2C3H2CHNH4N2H6C2H2CHC2HC4H7CH3CHCHCNC4H2CH7CHC4SCH9CH
_chemical_formula_sum              "Fe256 S512 H2048 C1280 N128"
_cell_length_a       54.5666
_cell_length_b       54.703
_cell_length_c       92.7334
_cell_angle_alpha    81.802
_cell_angle_beta     81.9334
_cell_angle_gamma    81.292

_space_group_name_H-M_alt    "P 1"
_space_group_IT_number       1

loop_
  _space_group_symop_operation_xyz
  'x, y, z'

loop_
  _atom_site_type_symbol
  _atom_site_label
  _atom_site_symmetry_multiplicity
  _atom_site_fract_x
  _atom_site_fract_y
  _atom_site_fract_z
  _atom_site_occupancy
  Fe  Fe1       1.0  0.23361  0.41473  0.17740  1.0000
  S   S1        1.0  0.19757  0.40295  0.17396  1.0000
  S   S2        1.0  0.23127  0.44920  0.18892  1.0000
  Fe  Fe2       1.0  0.26396  0.36853  0.16558  1.0000
  S   S3        1.0  0.22985  0.35364  0.16083  1.0000
  S   S4        1.0  0.30541  0.35383  0.16117  1.0000
  Fe  Fe3       1.0  0.21679  0.39343  0.15200  1.0000
  S   S5        1.0  0.19351  0.41110  0.13367  1.0000
  Fe  Fe4       1.0  0.21302  0.36450  0.18311  1.0000
  S   S6        1.0  0.18598  0.34225  0.19865  1.0000
  S   S7        1.0  0.25212  0.40772  0.15501  1.0000
  S   S8        1.0  0.24782  0.37680  0.18838  1.0000
  Fe  Fe5       1.0  0.10598  0.39848  0.05346  1.0000
  S   S9        1.0  0.13630  0.36650  0.05083  1.0000
  S   S10       1.0  0.06971  0.39287  0.06739  1.0000
  Fe  Fe6       1.0  0.13728  0.43524  0.03513  1.0000
  S   S11       1.0  0.17078  0.40648  0.03154  1.0000
  S   S12       1.0  0.13484  0.47438  0.02387  1.0000
  Fe  Fe7       1.0  0.14252  0.38337  0.02734  1.0000
  S   S13       1.0  0.14678  0.36152  0.00812  1.0000
  Fe  Fe8       1.0  0.16135  0.39274  0.05557  1.0000
  S   S14       1.0  0.18881  0.37545  0.07169  1.0000
  S   S15       1.0  0.10965  0.41300  0.02956  1.0000
  S   S16       1.0  0.13036  0.42401  0.05948  1.0000
  H   H1        1.0  0.08339  0.48395  0.05863  1.0000
  C   C1        1.0  0.16906  0.47763  0.04210  1.0000
  H   H2        1.0  0.29591  0.39630  0.17703  1.0000
  H   H3        1.0  0.08158  0.48853  0.99236  1.0000
  H   H4        1.0  0.29478  0.17724  0.21543  1.0000
  H   H5        1.0  0.11583  0.48711  0.05419  1.0000
  H   H6        1.0  0.17027  0.45760  0.04468  1.0000
  H   H7        1.0  0.15150  0.45076  0.20782  1.0000
  H   H8        1.0  0.30411  0.41430  0.18989  1.0000
  C   C2        1.0  0.18454  0.33852  0.21799  1.0000
  C   C3        1.0  0.24230  0.47762  0.18109  1.0000
  C   C4        1.0  0.25697  0.48001  0.16745  1.0000
  H   H9        1.0  0.31075  0.40499  0.15048  1.0000
  H   H10       1.0  0.06954  0.38947  0.99922  1.0000
  H   H11       1.0  0.26089  0.46454  0.16105  1.0000
  H   H12       1.0  0.32599  0.16424  0.04634  1.0000
  H   H13       1.0  0.18234  0.45792  0.20879  1.0000
  C   C5        1.0  0.19295  0.40091  0.11642  1.0000
  C   C6        1.0  0.20694  0.37877  0.11241  1.0000
  C   C7        1.0  0.20567  0.37139  0.09861  1.0000
  C   C8        1.0  0.19043  0.38600  0.08870  1.0000
  C   C9        1.0  0.17651  0.40816  0.09269  1.0000
  C   C10       1.0  0.17771  0.41551  0.10650  1.0000
  H   H14       1.0  0.21878  0.36740  0.11993  1.0000
  H   H15       1.0  0.21662  0.35427  0.09558  1.0000
  H   H16       1.0  0.16492  0.41971  0.08511  1.0000
  H   H17       1.0  0.16694  0.43272  0.10948  1.0000
  C   C11       1.0  0.31851  0.32194  0.16380  1.0000
  H   H18       1.0  0.10435  0.47470  0.07236  1.0000
  H   H19       1.0  0.14059  0.40877  0.21729  1.0000
  C   C12       1.0  0.30369  0.30299  0.16883  1.0000
  C   C13       1.0  0.14510  0.40669  0.99064  1.0000
  C   C14       1.0  0.01545  0.37474  0.03836  1.0000
  H   H20       1.0  0.28367  0.30764  0.17115  1.0000
  H   H21       1.0  0.20897  0.40431  0.20828  1.0000
  N   N1        1.0  0.07389  0.36000  0.98559  1.0000
  H   H22       1.0  0.01624  0.39307  0.07192  1.0000
  C   C15       1.0  0.02322  0.38719  0.06128  1.0000
  C   C16       1.0  0.20275  0.34604  0.22495  1.0000
  H   H23       1.0  0.21868  0.35336  0.21844  1.0000
  C   C17       1.0  0.20193  0.41180  0.21885  1.0000
  C   C18       1.0  0.32245  0.19066  0.18996  1.0000
  H   H24       1.0  0.10844  0.34416  0.99396  1.0000
  H   H25       1.0  0.04465  0.33719  0.98698  1.0000
  C   C19       1.0  0.04114  0.37227  0.03372  1.0000
  H   H26       1.0  0.19290  0.48134  0.05813  1.0000
  H   H27       1.0  0.09635  0.38903  0.98567  1.0000
  H   H28       1.0  0.14511  0.41499  0.00055  1.0000
  H   H29       1.0  0.11200  0.47039  0.99173  1.0000
  C   C20       1.0  0.31491  0.42340  0.15260  1.0000
  C   C21       1.0  0.31478  0.27791  0.17072  1.0000
  H   H30       1.0  0.16766  0.39400  0.20690  1.0000
  H   H31       1.0  0.29814  0.43720  0.15065  1.0000
  C   C22       1.0  0.14689  0.38079  0.99122  1.0000
  H   H32       1.0  0.20554  0.39650  0.22787  1.0000
  C   C23       1.0  0.04887  0.38518  0.05645  1.0000
  C   C24       1.0  0.05781  0.37739  0.04274  1.0000
  C   C25       1.0  0.30011  0.41505  0.17839  1.0000
  H   H33       1.0  0.07762  0.37506  0.03911  1.0000
  H   H34       1.0  0.29607  0.21027  0.21328  1.0000
  N   N2        1.0  0.12200  0.34975  0.09708  1.0000
  C   C26       1.0  0.11557  0.34460  0.11314  1.0000
  C   C27       1.0  0.14702  0.33639  0.09272  1.0000
  C   C28       1.0  0.12223  0.37682  0.09294  1.0000
  C   C29       1.0  0.10325  0.34132  0.08952  1.0000
  H   H35       1.0  0.12954  0.35061  0.11912  1.0000
  H   H36       1.0  0.11505  0.32435  0.11666  1.0000
  H   H37       1.0  0.09694  0.35470  0.11680  1.0000
  H   H38       1.0  0.14781  0.31593  0.09587  1.0000
  H   H39       1.0  0.15241  0.33968  0.08063  1.0000
  H   H40       1.0  0.16172  0.34286  0.09791  1.0000
  H   H41       1.0  0.12897  0.38107  0.08112  1.0000
  H   H42       1.0  0.13490  0.38415  0.09919  1.0000
  H   H43       1.0  0.10325  0.38746  0.09492  1.0000
  H   H44       1.0  0.10264  0.32094  0.09225  1.0000
  H   H45       1.0  0.10736  0.34530  0.07739  1.0000
  H   H46       1.0  0.08415  0.35114  0.09249  1.0000
  N   N3        1.0  0.32974  0.18836  0.20491  1.0000
  H   H47       1.0  0.30309  0.26343  0.17450  1.0000
  C   C30       1.0  0.30711  0.19162  0.21563  1.0000
  C   C31       1.0  0.04723  0.35644  0.98844  1.0000
  H   H48       1.0  0.17805  0.43672  0.19668  1.0000
  H   H49       1.0  0.31203  0.18992  0.22704  1.0000
  C   C32       1.0  0.32654  0.44711  0.17004  1.0000
  H   H50       1.0  0.08667  0.32247  0.99459  1.0000
  C   C33       1.0  0.16079  0.40181  0.21744  1.0000
  H   H51       1.0  0.04820  0.36635  0.02316  1.0000
  H   H52       1.0  0.21346  0.42656  0.21972  1.0000
  H   H53       1.0  0.03914  0.35960  0.99985  1.0000
  H   H54       1.0  0.28282  0.42842  0.17707  1.0000
  C   C34       1.0  0.18196  0.49101  0.04964  1.0000
  H   H55       1.0  0.15007  0.32260  0.22127  1.0000
  H   H56       1.0  0.16238  0.38604  0.22642  1.0000
  N   N4        1.0  0.17511  0.42169  0.21948  1.0000
  C   C35       1.0  0.17149  0.44272  0.20771  1.0000
  H   H57       1.0  0.08173  0.34491  0.00748  1.0000
  N   N5        1.0  0.32129  0.42233  0.16768  1.0000
  H   H58       1.0  0.33298  0.14828  0.20742  1.0000
  C   C36       1.0  0.08823  0.34207  0.99584  1.0000
  C   C37       1.0  0.09977  0.48893  0.06295  1.0000
  C   C38       1.0  0.15406  0.49027  0.03159  1.0000
  H   H59       1.0  0.10646  0.49890  0.99972  1.0000
  C   C39       1.0  0.16419  0.32854  0.22659  1.0000
  H   H60       1.0  0.33053  0.42866  0.14423  1.0000
  H   H61       1.0  0.22550  0.49654  0.19965  1.0000
  C   C40       1.0  0.07649  0.38570  0.98776  1.0000
  C   C41       1.0  0.23682  0.49815  0.18909  1.0000
  H   H62       1.0  0.31036  0.17648  0.18898  1.0000
  H   H63       1.0  0.30999  0.46154  0.16871  1.0000
  H   H64       1.0  0.33595  0.22678  0.20222  1.0000
  H   H65       1.0  0.31221  0.20946  0.18678  1.0000
  C   C42       1.0  0.10197  0.48975  0.99060  1.0000
  H   H66       1.0  0.33149  0.44696  0.18130  1.0000
  C   C43       1.0  0.00652  0.38200  0.05223  1.0000
  Fe  Fe9       1.0  0.09969  0.30129  0.30234  1.0000
  S   S17       1.0  0.11552  0.33779  0.29765  1.0000
  S   S18       1.0  0.05728  0.30952  0.30206  1.0000
  Fe  Fe10      1.0  0.14956  0.27326  0.31082  1.0000
  S   S19       1.0  0.16737  0.30828  0.30732  1.0000
  S   S20       1.0  0.17714  0.24107  0.31975  1.0000
  Fe  Fe11      1.0  0.13193  0.32619  0.31883  1.0000
  S   S21       1.0  0.12886  0.35707  0.33329  1.0000
  Fe  Fe12      1.0  0.14973  0.31690  0.28642  1.0000
  S   S22       1.0  0.17772  0.33300  0.26826  1.0000
  S   S23       1.0  0.11493  0.29071  0.32412  1.0000
  S   S24       1.0  0.13317  0.28087  0.28930  1.0000
  Fe  Fe13      1.0  0.27692  0.13056  0.29264  1.0000
  S   S25       1.0  0.30494  0.14939  0.30090  1.0000
  S   S26       1.0  0.23647  0.14737  0.29090  1.0000
  H   H67       1.0  0.03655  0.29764  0.42457  1.0000
  H   H68       1.0  0.22841  0.37912  0.39013  1.0000
  C   C44       1.0  0.17641  0.41450  0.37856  1.0000
  H   H69       1.0  0.17636  0.39004  0.40597  1.0000
  C   C45       1.0  0.19568  0.37447  0.37164  1.0000
  S   S27       1.0  0.28804  0.09324  0.30541  1.0000
  S   S28       1.0  0.30169  0.12063  0.27220  1.0000
  Fe  Fe14      1.0  0.08653  0.43120  0.41746  1.0000
  S   S29       1.0  0.07990  0.39306  0.42793  1.0000
  S   S30       1.0  0.05381  0.45408  0.40810  1.0000
  Fe  Fe15      1.0  0.14060  0.42256  0.42209  1.0000
  S   S31       1.0  0.13862  0.38318  0.43278  1.0000
  S   S32       1.0  0.17803  0.43616  0.41703  1.0000
  Fe  Fe16      1.0  0.11598  0.38029  0.41473  1.0000
  S   S33       1.0  0.11997  0.34584  0.40303  1.0000
  Fe  Fe17      1.0  0.10275  0.39969  0.44493  1.0000
  S   S34       1.0  0.08785  0.39071  0.46884  1.0000
  S   S35       1.0  0.12103  0.41826  0.40312  1.0000
  S   S36       1.0  0.10630  0.43936  0.43547  1.0000
  H   H70       1.0  0.16881  0.41492  0.24303  1.0000
  C   C46       1.0  0.17968  0.46774  0.41823  1.0000
  H   H71       1.0  0.02295  0.23424  0.29413  1.0000
  C   C47       1.0  0.23559  0.16393  0.34866  1.0000
  H   H72       1.0  0.07806  0.33355  0.35390  1.0000
  C   C48       1.0  0.25509  0.13054  0.33477  1.0000
  H   H73       1.0  0.07544  0.37585  0.32850  1.0000
  H   H74       1.0  0.21970  0.46277  0.41309  1.0000
  H   H75       1.0  0.22525  0.22429  0.28122  1.0000
  C   C49       1.0  0.26561  0.13153  0.35909  1.0000
  H   H76       1.0  0.01849  0.37810  0.33306  1.0000
  H   H77       1.0  0.20505  0.38341  0.36121  1.0000
  H   H78       1.0  0.01805  0.37046  0.47652  1.0000
  C   C50       1.0  0.17918  0.37833  0.39685  1.0000
  H   H79       1.0  0.00908  0.36371  0.41604  1.0000
  H   H80       1.0  0.20734  0.35652  0.37485  1.0000
  C   C51       1.0  0.12228  0.34898  0.38363  1.0000
  C   C52       1.0  0.11997  0.37244  0.37532  1.0000
  C   C53       1.0  0.12236  0.37450  0.35993  1.0000
  C   C54       1.0  0.12682  0.35316  0.35266  1.0000
  C   C55       1.0  0.12893  0.32962  0.36093  1.0000
  C   C56       1.0  0.12669  0.32758  0.37638  1.0000
  H   H81       1.0  0.11612  0.38905  0.38072  1.0000
  H   H82       1.0  0.12047  0.39278  0.35361  1.0000
  H   H83       1.0  0.13240  0.31303  0.35544  1.0000
  H   H84       1.0  0.12854  0.30933  0.38272  1.0000
  C   C57       1.0  0.17974  0.33455  0.24896  1.0000
  H   H85       1.0  0.06558  0.35607  0.41207  1.0000
  H   H86       1.0  0.06410  0.31476  0.43839  1.0000
  H   H87       1.0  0.14594  0.31901  0.24855  1.0000
  H   H88       1.0  0.22650  0.40594  0.37640  1.0000
  C   C58       1.0  0.19423  0.21695  0.31018  1.0000
  C   C59       1.0  0.21911  0.20858  0.31268  1.0000
  C   C60       1.0  0.23264  0.18789  0.30636  1.0000
  C   C61       1.0  0.22111  0.17490  0.29787  1.0000
  C   C62       1.0  0.19643  0.18365  0.29508  1.0000
  C   C63       1.0  0.18310  0.20474  0.30108  1.0000
  H   H89       1.0  0.22787  0.21805  0.31965  1.0000
  H   H90       1.0  0.25183  0.18176  0.30819  1.0000
  H   H91       1.0  0.18739  0.17371  0.28850  1.0000
  H   H92       1.0  0.16385  0.21078  0.29925  1.0000
  H   H93       1.0  0.05694  0.38122  0.38258  1.0000
  H   H94       1.0  0.19010  0.36028  0.40067  1.0000
  H   H95       1.0  0.27214  0.11713  0.33234  1.0000
  Fe  Fe18      1.0  0.31832  0.11146  0.31219  1.0000
  Fe  Fe19      1.0  0.33058  0.13750  0.28101  1.0000
  C   C64       1.0  0.01454  0.43442  0.40115  1.0000
  H   H96       1.0  0.00444  0.32102  0.24342  1.0000
  C   C65       1.0  0.05570  0.41414  0.39306  1.0000
  C   C66       1.0  0.04046  0.43322  0.39991  1.0000
  H   H97       1.0  0.22976  0.17551  0.33853  1.0000
  H   H98       1.0  0.25041  0.27901  0.25898  1.0000
  H   H99       1.0  0.07574  0.41318  0.39202  1.0000
  H   H100      1.0  0.23786  0.17686  0.35648  1.0000
  H   H101      1.0  0.23955  0.11942  0.33900  1.0000
  C   C67       1.0  0.03411  0.29231  0.29854  1.0000
  C   C68       1.0  0.03879  0.26683  0.29715  1.0000
  H   H102      1.0  0.26885  0.14323  0.36735  1.0000
  H   H103      1.0  0.05740  0.25693  0.29787  1.0000
  N   N6        1.0  0.04920  0.35330  0.34143  1.0000
  C   C69       1.0  0.06670  0.35888  0.32809  1.0000
  C   C70       1.0  0.03850  0.33046  0.34034  1.0000
  C   C71       1.0  0.16630  0.43041  0.23392  1.0000
  C   C72       1.0  0.06272  0.34944  0.35449  1.0000
  H   H104      1.0  0.29698  0.14943  0.33619  1.0000
  H   H105      1.0  0.25327  0.23691  0.27344  1.0000
  S   S37       1.0  0.32569  0.04763  0.27671  1.0000
  C   C73       1.0  0.02369  0.31549  0.42448  1.0000
  C   C74       1.0  0.16178  0.32652  0.24204  1.0000
  H   H106      1.0  0.05000  0.34562  0.36480  1.0000
  C   C75       1.0  0.31239  0.01990  0.28331  1.0000
  H   H107      1.0  0.23339  0.22789  0.26175  1.0000
  S   S38       1.0  0.32341  0.09968  0.33627  1.0000
  H   H108      1.0  0.01528  0.37067  0.35270  1.0000
  C   C76       1.0  0.15839  0.48483  0.42157  1.0000
  C   C77       1.0  0.29273  0.01896  0.29474  1.0000
  H   H109      1.0  0.17751  0.36988  0.36928  1.0000
  H   H110      1.0  0.18561  0.42467  0.36850  1.0000
  H   H111      1.0  0.16053  0.37432  0.39510  1.0000
  N   N7        1.0  0.21929  0.26204  0.27091  1.0000
  C   C78       1.0  0.23049  0.27784  0.25815  1.0000
  C   C79       1.0  0.23347  0.23672  0.27184  1.0000
  C   C80       1.0  0.19305  0.26062  0.26917  1.0000
  C   C81       1.0  0.22009  0.27304  0.28448  1.0000
  H   H112      1.0  0.17682  0.44536  0.23582  1.0000
  H   H113      1.0  0.21987  0.15342  0.35357  1.0000
  H   H114      1.0  0.21383  0.40893  0.39510  1.0000
  H   H115      1.0  0.19165  0.25207  0.25918  1.0000
  H   H116      1.0  0.32950  0.08898  0.36662  1.0000
  C   C82       1.0  0.13577  0.38479  0.47618  1.0000
  H   H117      1.0  0.18389  0.24926  0.27878  1.0000
  C   C83       1.0  0.00978  0.30478  0.29761  1.0000
  H   H118      1.0  0.18194  0.27948  0.26817  1.0000
  H   H119      1.0  0.21129  0.26193  0.29432  1.0000
  H   H120      1.0  0.20985  0.29231  0.28402  1.0000
  H   H121      1.0  0.23959  0.27406  0.28633  1.0000
  C   C84       1.0  0.02894  0.37440  0.34279  1.0000
  H   H122      1.0  0.22956  0.27054  0.24766  1.0000
  H   H123      1.0  0.14199  0.38391  0.46466  1.0000
  H   H124      1.0  0.25057  0.14135  0.32414  1.0000
  N   N8        1.0  0.25889  0.14694  0.34541  1.0000
  H   H125      1.0  0.02858  0.37619  0.42630  1.0000
  H   H126      1.0  0.22050  0.29722  0.25735  1.0000
  Fe  Fe20      1.0  0.31546  0.08493  0.28582  1.0000
  C   C85       1.0  0.20320  0.47581  0.41566  1.0000
  H   H127      1.0  0.21437  0.35020  0.24565  1.0000
  C   C86       1.0  0.01912  0.35967  0.42591  1.0000
  C   C87       1.0  0.01919  0.25401  0.29503  1.0000
  H   H128      1.0  0.08218  0.34328  0.32681  1.0000
  H   H129      1.0  0.02520  0.32565  0.35022  1.0000
  C   C88       1.0  0.01906  0.39687  0.38935  1.0000
  H   H130      1.0  0.03650  0.32898  0.44872  1.0000
  C   C89       1.0  0.27929  0.16170  0.33913  1.0000
  H   H131      1.0  0.25072  0.12006  0.36415  1.0000
  C   C90       1.0  0.04502  0.39613  0.38763  1.0000
  H   H132      1.0  0.28310  0.11846  0.35699  1.0000
  H   H133      1.0  0.28519  0.03559  0.29979  1.0000
  N   N9        1.0  0.19191  0.39093  0.38333  1.0000
  H   H134      1.0  0.15791  0.41109  0.37610  1.0000
  H   H135      1.0  0.17295  0.42727  0.38721  1.0000
  H   H136      1.0  0.28322  0.17372  0.34702  1.0000
  H   H137      1.0  0.27473  0.17396  0.32896  1.0000
  C   C91       1.0  0.21628  0.39642  0.38633  1.0000
  H   H138      1.0  0.07138  0.36621  0.35548  1.0000
  H   H139      1.0  0.02840  0.33271  0.33049  1.0000
  N   N10       1.0  0.03715  0.33667  0.42530  1.0000
  C   C92       1.0  0.05566  0.33973  0.41212  1.0000
  H   H140      1.0  0.07015  0.32312  0.41148  1.0000
  C   C93       1.0  0.05000  0.33174  0.43863  1.0000
  H   H141      1.0  0.04660  0.34284  0.40186  1.0000
  H   H142      1.0  0.14612  0.43800  0.23481  1.0000
  H   H143      1.0  0.03643  0.39180  0.34388  1.0000
  H   H144      1.0  0.14015  0.47878  0.42352  1.0000
  H   H145      1.0  0.04065  0.48952  0.43020  1.0000
  H   H146      1.0  0.05728  0.36169  0.31796  1.0000
  H   H147      1.0  0.06008  0.34746  0.43973  1.0000
  H   H148      1.0  0.05342  0.31427  0.33921  1.0000
  C   C94       1.0  0.20027  0.34417  0.24036  1.0000
  H   H149      1.0  0.01467  0.31818  0.41423  1.0000
  H   H150      1.0  0.00593  0.32449  0.29868  1.0000
  H   H151      1.0  0.00868  0.31336  0.43389  1.0000
  H   H152      1.0  0.01331  0.49767  0.41028  1.0000
  H   H153      1.0  0.06565  0.50065  0.41756  1.0000
  S   S39       1.0  0.00589  0.37235  0.38455  1.0000
  H   H154      1.0  0.00479  0.35808  0.43570  1.0000
  H   H155      1.0  0.19410  0.43949  0.47983  1.0000
  H   H156      1.0  0.03558  0.39342  0.48048  1.0000
  C   C95       1.0  0.20559  0.50070  0.41641  1.0000
  C   C96       1.0  0.11023  0.38832  0.48114  1.0000
  Fe  Fe21      1.0  0.10908  0.40627  0.55692  1.0000
  S   S40       1.0  0.12679  0.36803  0.55242  1.0000
  S   S41       1.0  0.06791  0.41893  0.55956  1.0000
  Fe  Fe22      1.0  0.15845  0.42422  0.55709  1.0000
  S   S42       1.0  0.18051  0.38725  0.55281  1.0000
  S   S43       1.0  0.17700  0.45856  0.55562  1.0000
  Fe  Fe23      1.0  0.15395  0.38770  0.53634  1.0000
  S   S44       1.0  0.16813  0.37875  0.51345  1.0000
  Fe  Fe24      1.0  0.15125  0.37094  0.56947  1.0000
  S   S45       1.0  0.15582  0.33525  0.58510  1.0000
  S   S46       1.0  0.13411  0.42578  0.53941  1.0000
  S   S47       1.0  0.13137  0.40804  0.57518  1.0000
  Fe  Fe25      1.0  0.29981  0.12572  0.68142  1.0000
  H   H157      1.0  0.18390  0.48760  0.50555  1.0000
  S   S48       1.0  0.27946  0.16517  0.67802  1.0000
  Fe  Fe26      1.0  0.30678  0.06910  0.68827  1.0000
  C   C97       1.0  0.22234  0.19169  0.71659  1.0000
  H   H158      1.0  0.24225  0.19016  0.71847  1.0000
  C   C98       1.0  0.10242  0.38947  0.49614  1.0000
  H   H159      1.0  0.20859  0.46699  0.71710  1.0000
  C   C99       1.0  0.02532  0.36047  0.54797  1.0000
  S   S49       1.0  0.29952  0.10011  0.70279  1.0000
  S   S50       1.0  0.30411  0.09480  0.66702  1.0000
  Fe  Fe27      1.0  0.10229  0.28291  0.68782  1.0000
  S   S51       1.0  0.12421  0.31380  0.68984  1.0000
  S   S52       1.0  0.06006  0.29368  0.69123  1.0000
  Fe  Fe28      1.0  0.14993  0.24704  0.68093  1.0000
  S   S53       1.0  0.17511  0.27541  0.68193  1.0000
  S   S54       1.0  0.16391  0.20629  0.67854  1.0000
  Fe  Fe29      1.0  0.14978  0.28496  0.70215  1.0000
  S   S55       1.0  0.16937  0.28655  0.72205  1.0000
  Fe  Fe30      1.0  0.14769  0.30219  0.66944  1.0000
  S   S56       1.0  0.15963  0.33451  0.65325  1.0000
  S   S57       1.0  0.12596  0.25479  0.70204  1.0000
  S   S58       1.0  0.12438  0.27307  0.66656  1.0000
  H   H160      1.0  0.23468  0.32536  0.66638  1.0000
  C   C100      1.0  0.19932  0.43281  0.49104  1.0000
  C   C101      1.0  0.12005  0.38680  0.50614  1.0000
  H   H161      1.0  0.16042  0.37738  0.72354  1.0000
  H   H162      1.0  0.22660  0.48530  0.72509  1.0000
  H   H163      1.0  0.15167  0.33942  0.71424  1.0000
  H   H164      1.0  0.18400  0.45149  0.52500  1.0000
  H   H165      1.0  0.01650  0.38503  0.52069  1.0000
  H   H166      1.0  0.21375  0.17661  0.72401  1.0000
  H   H167      1.0  0.20404  0.31613  0.66852  1.0000
  H   H168      1.0  0.05646  0.36100  0.49788  1.0000
  C   C102      1.0  0.24732  0.17556  0.67722  1.0000
  C   C103      1.0  0.23971  0.20125  0.67405  1.0000
  C   C104      1.0  0.21428  0.21076  0.67409  1.0000
  C   C105      1.0  0.19613  0.19467  0.67740  1.0000
  C   C106      1.0  0.20370  0.16890  0.68033  1.0000
  C   C107      1.0  0.22922  0.15933  0.68028  1.0000
  H   H169      1.0  0.25362  0.21388  0.67153  1.0000
  H   H170      1.0  0.20872  0.23054  0.67148  1.0000
  H   H171      1.0  0.18975  0.15631  0.68281  1.0000
  H   H172      1.0  0.23485  0.13951  0.68273  1.0000
  C   C108      1.0  0.15761  0.48375  0.56280  1.0000
  C   C109      1.0  0.13776  0.47979  0.57380  1.0000
  C   C110      1.0  0.33717  0.03257  0.65721  1.0000
  H   H173      1.0  0.01798  0.48769  0.56796  1.0000
  C   C111      1.0  0.01818  0.38467  0.48397  1.0000
  C   C112      1.0  0.17374  0.31404  0.72883  1.0000
  H   H174      1.0  0.13445  0.46102  0.57814  1.0000
  H   H175      1.0  0.31990  0.03780  0.66463  1.0000
  C   C113      1.0  0.22103  0.23589  0.70898  1.0000
  H   H176      1.0  0.22118  0.23341  0.69729  1.0000
  C   C114      1.0  0.14558  0.38256  0.50119  1.0000
  C   C115      1.0  0.01406  0.29006  0.68371  1.0000
  H   H177      1.0  0.21378  0.47466  0.49715  1.0000
  H   H178      1.0  0.20967  0.34508  0.65801  1.0000
  C   C116      1.0  0.15610  0.33568  0.60406  1.0000
  C   C117      1.0  0.15467  0.31343  0.61359  1.0000
  C   C118      1.0  0.15504  0.31299  0.62875  1.0000
  C   C119      1.0  0.15733  0.33475  0.63444  1.0000
  C   C120      1.0  0.15871  0.35703  0.62492  1.0000
  C   C121      1.0  0.15783  0.35758  0.60978  1.0000
  H   H179      1.0  0.15350  0.29638  0.60921  1.0000
  H   H180      1.0  0.15415  0.29569  0.63598  1.0000
  H   H181      1.0  0.16052  0.37393  0.62925  1.0000
  H   H182      1.0  0.15904  0.37479  0.60251  1.0000
  H   H183      1.0  0.04131  0.46322  0.57446  1.0000
  C   C122      1.0  0.03820  0.27761  0.68534  1.0000
  C   C123      1.0  0.04370  0.25247  0.68321  1.0000
  H   H184      1.0  0.21408  0.43872  0.51679  1.0000
  H   H185      1.0  0.06221  0.24270  0.68446  1.0000
  C   C124      1.0  0.05065  0.36029  0.54276  1.0000
  C   C125      1.0  0.06353  0.37894  0.54574  1.0000
  C   C126      1.0  0.05139  0.39722  0.55436  1.0000
  C   C127      1.0  0.16841  0.35914  0.72819  1.0000
  H   H186      1.0  0.00978  0.30958  0.68519  1.0000
  H   H187      1.0  0.06018  0.34607  0.53618  1.0000
  H   H188      1.0  0.08268  0.37942  0.54109  1.0000
  H   H189      1.0  0.19330  0.49337  0.72595  1.0000
  N   N11       1.0  0.33167  0.03231  0.64209  1.0000
  H   H190      1.0  0.14862  0.46261  0.51022  1.0000
  N   N12       1.0  0.18633  0.44935  0.50183  1.0000
  H   H191      1.0  0.01640  0.41189  0.56589  1.0000
  C   C128      1.0  0.03832  0.35361  0.50134  1.0000
  H   H192      1.0  0.33720  0.14773  0.71755  1.0000
  H   H193      1.0  0.15286  0.45733  0.49122  1.0000
  S   S59       1.0  0.29159  0.03203  0.69538  1.0000
  C   C129      1.0  0.02601  0.39762  0.55936  1.0000
  H   H194      1.0  0.30027  0.06122  0.64353  1.0000
  C   C130      1.0  0.19364  0.43960  0.51655  1.0000
  H   H195      1.0  0.23357  0.31920  0.69340  1.0000
  H   H196      1.0  0.19449  0.41351  0.49398  1.0000
  H   H197      1.0  0.32978  0.07209  0.63714  1.0000
  H   H198      1.0  0.22223  0.18776  0.70516  1.0000
  H   H199      1.0  0.18882  0.42043  0.52013  1.0000
  H   H200      1.0  0.03647  0.46778  0.55553  1.0000
  H   H201      1.0  0.08274  0.39256  0.50004  1.0000
  H   H202      1.0  0.17310  0.37848  0.48231  1.0000
  C   C131      1.0  0.19328  0.47471  0.49756  1.0000
  C   C132      1.0  0.15903  0.45032  0.50218  1.0000
  H   H203      1.0  0.02927  0.22019  0.67856  1.0000
  C   C133      1.0  0.03707  0.47775  0.56512  1.0000
  H   H204      1.0  0.10771  0.49703  0.58827  1.0000
  N   N13       1.0  0.20863  0.21656  0.71890  1.0000
  H   H205      1.0  0.21996  0.43156  0.49049  1.0000
  C   C134      1.0  0.31853  0.05689  0.63674  1.0000
  N   N14       1.0  0.01692  0.37342  0.49948  1.0000
  H   H206      1.0  0.15315  0.43150  0.50545  1.0000
  H   H207      1.0  0.24076  0.23529  0.71098  1.0000
  H   H208      1.0  0.03560  0.40110  0.50618  1.0000
  H   H209      1.0  0.31478  0.05771  0.62517  1.0000
  C   C135      1.0  0.02496  0.23975  0.67992  1.0000
  N   N15       1.0  0.07893  0.33489  0.58808  1.0000
  C   C136      1.0  0.05163  0.33650  0.58808  1.0000
  C   C137      1.0  0.08658  0.31929  0.60150  1.0000
  C   C138      1.0  0.08566  0.36017  0.58767  1.0000
  C   C139      1.0  0.09191  0.32363  0.57503  1.0000
  H   H210      1.0  0.04120  0.34482  0.59781  1.0000
  H   H211      1.0  0.04586  0.31779  0.58823  1.0000
  H   H212      1.0  0.04537  0.34832  0.57810  1.0000
  H   H213      1.0  0.10717  0.31759  0.60165  1.0000
  H   H214      1.0  0.07753  0.32740  0.61160  1.0000
  H   H215      1.0  0.08167  0.30009  0.60228  1.0000
  H   H216      1.0  0.08068  0.37231  0.57756  1.0000
  H   H217      1.0  0.10607  0.35964  0.58789  1.0000
  H   H218      1.0  0.07593  0.36940  0.59723  1.0000
  H   H219      1.0  0.11258  0.32231  0.57459  1.0000
  H   H220      1.0  0.08653  0.33486  0.56469  1.0000
  H   H221      1.0  0.08741  0.30446  0.57503  1.0000
  N   N16       1.0  0.20747  0.34491  0.68139  1.0000
  C   C140      1.0  0.22155  0.36630  0.68019  1.0000
  C   C141      1.0  0.18041  0.35392  0.68294  1.0000
  C   C142      1.0  0.21349  0.32715  0.69440  1.0000
  C   C143      1.0  0.21439  0.33232  0.66802  1.0000
  H   H222      1.0  0.21671  0.37624  0.69011  1.0000
  H   H223      1.0  0.21733  0.38002  0.67048  1.0000
  H   H224      1.0  0.24206  0.36019  0.67901  1.0000
  H   H225      1.0  0.16924  0.33820  0.68407  1.0000
  H   H226      1.0  0.17452  0.36390  0.69276  1.0000
  H   H227      1.0  0.17499  0.36680  0.67313  1.0000
  H   H228      1.0  0.20230  0.31133  0.69601  1.0000
  H   H229      1.0  0.20936  0.33628  0.70463  1.0000
  C   C144      1.0  0.01296  0.37937  0.55608  1.0000
  H   H230      1.0  0.03818  0.34515  0.51302  1.0000
  H   H231      1.0  0.21122  0.25489  0.71046  1.0000
  H   H232      1.0  0.17294  0.20294  0.72255  1.0000
  H   H233      1.0  0.17149  0.23602  0.71778  1.0000
  C   C145      1.0  0.01784  0.39283  0.50890  1.0000
  H   H234      1.0  0.18197  0.21570  0.70404  1.0000
  C   C146      1.0  0.16349  0.33769  0.72287  1.0000
  H   H235      1.0  0.25219  0.02425  0.67969  1.0000
  H   H236      1.0  0.11392  0.38765  0.51768  1.0000
  H   H237      1.0  0.03791  0.33836  0.49467  1.0000
  C   C147      1.0  0.12267  0.50017  0.57953  1.0000
  C   C148      1.0  0.15338  0.38171  0.48620  1.0000
  C   C149      1.0  0.18265  0.21784  0.71570  1.0000
  S   S60       1.0  0.00876  0.33813  0.54353  1.0000
  H   H238      1.0  0.08630  0.46704  0.56766  1.0000
  C   C150      1.0  0.26699  0.00879  0.67859  1.0000
  C   C151      1.0  0.28955  0.00914  0.68404  1.0000
  C   C152      1.0  0.20861  0.47744  0.72656  1.0000
  H   H239      1.0  0.29772  0.01621  0.64924  1.0000
  C   C153      1.0  0.31568  0.01280  0.64200  1.0000
  H   H240      1.0  0.08156  0.47080  0.54875  1.0000
  H   H241      1.0  0.31107  0.01205  0.63076  1.0000
  C   C154      1.0  0.08096  0.48114  0.55833  1.0000
  H   H242      1.0  0.06104  0.49461  0.58453  1.0000
  N   N17       1.0  0.05596  0.49515  0.56190  1.0000
  H   H243      1.0  0.09563  0.49375  0.55570  1.0000
  H   H244      1.0  0.18794  0.48272  0.48652  1.0000
  Fe  Fe31      1.0  0.20724  0.38160  0.76698  1.0000
  S   S61       1.0  0.24861  0.38036  0.76657  1.0000
  S   S62       1.0  0.18942  0.38439  0.74592  1.0000
  Fe  Fe32      1.0  0.19769  0.38748  0.80004  1.0000
  S   S63       1.0  0.23835  0.38742  0.80193  1.0000
  S   S64       1.0  0.16450  0.39042  0.81757  1.0000
  Fe  Fe33      1.0  0.23870  0.41228  0.78025  1.0000
  S   S65       1.0  0.25596  0.44778  0.77182  1.0000
  Fe  Fe34      1.0  0.24449  0.35564  0.78812  1.0000
  S   S66       1.0  0.26289  0.31608  0.79422  1.0000
  S   S67       1.0  0.19756  0.41463  0.77957  1.0000
  S   S68       1.0  0.20353  0.35461  0.78744  1.0000
  H   H245      1.0  0.23392  0.28566  0.81852  1.0000
  Fe  Fe35      1.0  0.09903  0.37089  0.92407  1.0000
  S   S69       1.0  0.13953  0.37320  0.92518  1.0000
  S   S70       1.0  0.08059  0.33817  0.93546  1.0000
  Fe  Fe36      1.0  0.09043  0.42160  0.90730  1.0000
  S   S71       1.0  0.12956  0.42904  0.90706  1.0000
  S   S72       1.0  0.06153  0.45132  0.89872  1.0000
  Fe  Fe37      1.0  0.14017  0.38996  0.90153  1.0000
  S   S73       1.0  0.17482  0.38267  0.88540  1.0000
  Fe  Fe38      1.0  0.12589  0.41197  0.93057  1.0000
  S   S74       1.0  0.13856  0.43101  0.94778  1.0000
  S   S75       1.0  0.10086  0.38376  0.89989  1.0000
  S   S76       1.0  0.08542  0.40829  0.93134  1.0000
  C   C155      1.0  0.06079  0.47435  0.91010  1.0000
  C   C156      1.0  0.22862  0.32993  0.82851  1.0000
  H   H246      1.0  0.21372  0.48563  0.89518  1.0000
  H   H247      1.0  0.09730  0.48344  0.90107  1.0000
  H   H248      1.0  0.11204  0.47156  0.96462  1.0000
  C   C157      1.0  0.04011  0.47922  0.92050  1.0000
  H   H249      1.0  0.31802  0.14995  0.78405  1.0000
  C   C158      1.0  0.04910  0.40973  0.87421  1.0000
  H   H250      1.0  0.18085  0.43951  0.73325  1.0000
  H   H251      1.0  0.02428  0.46914  0.92130  1.0000
  C   C159      1.0  0.24904  0.47390  0.78167  1.0000
  C   C160      1.0  0.23792  0.47175  0.79623  1.0000
  C   C161      1.0  0.19357  0.48973  0.89369  1.0000
  H   H252      1.0  0.20456  0.33154  0.75460  1.0000
  H   H253      1.0  0.20346  0.44931  0.91344  1.0000
  H   H254      1.0  0.22531  0.34214  0.81814  1.0000
  H   H255      1.0  0.23300  0.45394  0.80158  1.0000
  H   H256      1.0  0.22682  0.34208  0.83736  1.0000
  H   H257      1.0  0.19067  0.48016  0.88436  1.0000
  H   H258      1.0  0.22653  0.42868  0.73203  1.0000
  C   C162      1.0  0.16781  0.38968  0.83627  1.0000
  C   C163      1.0  0.19130  0.38723  0.84112  1.0000
  C   C164      1.0  0.19325  0.38510  0.85623  1.0000
  C   C165      1.0  0.17173  0.38590  0.86653  1.0000
  C   C166      1.0  0.14825  0.38880  0.86163  1.0000
  C   C167      1.0  0.14633  0.39054  0.84656  1.0000
  H   H259      1.0  0.20790  0.38694  0.83324  1.0000
  H   H260      1.0  0.21145  0.38303  0.85996  1.0000
  H   H261      1.0  0.13160  0.38944  0.86947  1.0000
  H   H262      1.0  0.12812  0.39245  0.84285  1.0000
  H   H263      1.0  0.20241  0.28167  0.84881  1.0000
  H   H264      1.0  0.17841  0.43862  0.75267  1.0000
  C   C168      1.0  0.04014  0.49677  0.93012  1.0000
  C   C169      1.0  0.31297  0.32163  0.79296  1.0000
  C   C170      1.0  0.29529  0.30544  0.79334  1.0000
  C   C171      1.0  0.30327  0.27972  0.79379  1.0000
  C   C172      1.0  0.21545  0.29589  0.84591  1.0000
  H   H265      1.0  0.30702  0.34145  0.79271  1.0000
  H   H266      1.0  0.28970  0.26708  0.79411  1.0000
  C   C173      1.0  0.00778  0.40138  0.87182  1.0000
  N   N18       1.0  0.20543  0.46114  0.74065  1.0000
  H   H267      1.0  0.01756  0.36356  0.89293  1.0000
  H   H268      1.0  0.06370  0.40859  0.88159  1.0000
  H   H269      1.0  0.16995  0.48926  0.92966  1.0000
  H   H270      1.0  0.10370  0.35811  0.96774  1.0000
  C   C174      1.0  0.20555  0.47576  0.75288  1.0000
  H   H271      1.0  0.14503  0.37720  0.95501  1.0000
  H   H272      1.0  0.19828  0.23964  0.73628  1.0000
  C   C175      1.0  0.03418  0.35812  0.92698  1.0000
  C   C176      1.0  0.05000  0.33681  0.93196  1.0000
  C   C177      1.0  0.04116  0.31372  0.93466  1.0000
  H   H273      1.0  0.18111  0.33683  0.82288  1.0000
  C   C178      1.0  0.14270  0.41144  0.96433  1.0000
  H   H274      1.0  0.04084  0.37609  0.92509  1.0000
  H   H275      1.0  0.05327  0.29722  0.93850  1.0000
  C   C179      1.0  0.18142  0.45103  0.74215  1.0000
  C   C180      1.0  0.22619  0.44036  0.74096  1.0000
  C   C181      1.0  0.03400  0.37227  0.88713  1.0000
  H   H276      1.0  0.18158  0.33655  0.84219  1.0000
  C   C182      1.0  0.14333  0.42193  0.97719  1.0000
  C   C183      1.0  0.14494  0.38553  0.96489  1.0000
  H   H277      1.0  0.01472  0.39125  0.86216  1.0000
  C   C184      1.0  0.00953  0.35612  0.92475  1.0000
  C   C185      1.0  0.21446  0.29550  0.81996  1.0000
  H   H278      1.0  0.23487  0.28591  0.84529  1.0000
  C   C186      1.0  0.18503  0.32451  0.83319  1.0000
  C   C187      1.0  0.18192  0.49485  0.91931  1.0000
  H   H279      1.0  0.20145  0.28124  0.82208  1.0000
  H   H280      1.0  0.21126  0.30678  0.80923  1.0000
  H   H281      1.0  0.32424  0.10544  0.79491  1.0000
  H   H282      1.0  0.24834  0.32080  0.82699  1.0000
  H   H283      1.0  0.05756  0.39997  0.86460  1.0000
  H   H284      1.0  0.20171  0.49077  0.92157  1.0000
  H   H285      1.0  0.17170  0.44765  0.92131  1.0000
  C   C188      1.0  0.18318  0.35706  0.73969  1.0000
  H   H286      1.0  0.19644  0.29379  0.74503  1.0000
  H   H287      1.0  0.21286  0.30746  0.85511  1.0000
  H   H288      1.0  0.22350  0.48349  0.75215  1.0000
  H   H289      1.0  0.20343  0.46404  0.76371  1.0000
  N   N19       1.0  0.17757  0.48167  0.90724  1.0000
  H   H290      1.0  0.04202  0.36153  0.87785  1.0000
  C   C189      1.0  0.19313  0.33338  0.74576  1.0000
  C   C190      1.0  0.18369  0.45448  0.91124  1.0000
  H   H291      1.0  0.22585  0.49044  0.81546  1.0000
  H   H292      1.0  0.22442  0.42778  0.75144  1.0000
  N   N20       1.0  0.21087  0.31143  0.83190  1.0000
  H   H293      1.0  0.14224  0.44183  0.97681  1.0000
  H   H294      1.0  0.18096  0.44391  0.90229  1.0000
  C   C191      1.0  0.20846  0.22090  0.73428  1.0000
  H   H295      1.0  0.17104  0.31121  0.83551  1.0000
  C   C192      1.0  0.15105  0.48767  0.90474  1.0000
  H   H296      1.0  0.01203  0.43274  0.89123  1.0000
  N   N21       1.0  0.02690  0.39892  0.88195  1.0000
  H   H297      1.0  0.07341  0.36902  0.96220  1.0000
  C   C193      1.0  0.08361  0.35577  0.97031  1.0000
  C   C194      1.0  0.18850  0.31200  0.74031  1.0000
  C   C195      1.0  0.23386  0.49249  0.80406  1.0000
  H   H298      1.0  0.13846  0.48137  0.91467  1.0000
  H   H299      1.0  0.14715  0.47853  0.89548  1.0000
  H   H300      1.0  0.04822  0.36974  0.89493  1.0000
  H   H301      1.0  0.24463  0.44720  0.74002  1.0000
  C   C196      1.0  0.01665  0.41239  0.89467  1.0000
  C   C197      1.0  0.08135  0.48725  0.90915  1.0000
  H   H302      1.0  0.16529  0.46611  0.74190  1.0000
  H   H303      1.0  0.14727  0.48521  0.97474  1.0000
  H   H304      1.0  0.08189  0.33659  0.96820  1.0000
  H   H305      1.0  0.04432  0.42986  0.87023  1.0000
  H   H306      1.0  0.19013  0.49158  0.75306  1.0000
  C   C198      1.0  0.32869  0.27017  0.79384  1.0000
  C   C199      1.0  0.01691  0.31167  0.93214  1.0000
  H   H307      1.0  0.19902  0.20681  0.74207  1.0000
  H   H308      1.0  0.03024  0.41027  0.90281  1.0000
  H   H309      1.0  0.01046  0.29358  0.93405  1.0000
  H   H310      1.0  0.32618  0.13882  0.81020  1.0000
  H   H311      1.0  0.22777  0.22004  0.73710  1.0000
  C   C200      1.0  0.10274  0.49114  0.96436  1.0000
  H   H312      1.0  0.08223  0.49079  0.96526  1.0000
  C   C201      1.0  0.25538  0.49718  0.77489  1.0000
  C   C202      1.0  0.14739  0.37023  0.97826  1.0000
  H   H313      1.0  0.33456  0.25033  0.79422  1.0000
  H   H314      1.0  0.26404  0.49897  0.76362  1.0000
  H   H315      1.0  0.14930  0.35018  0.97859  1.0000
  H   H316      1.0  0.06598  0.39975  0.98019  1.0000
  H   H317      1.0  0.02415  0.50042  0.93823  1.0000
  H   H318      1.0  0.10830  0.50098  0.95330  1.0000
  H   H319      1.0  0.03595  0.36962  0.98084  1.0000
  Fe  Fe39      1.0  0.25805  0.58745  0.17159  1.0000
  S   S77       1.0  0.21791  0.59180  0.18112  1.0000
  S   S78       1.0  0.27538  0.55032  0.16371  1.0000
  Fe  Fe40      1.0  0.26111  0.64379  0.17004  1.0000
  S   S79       1.0  0.22045  0.65146  0.17917  1.0000
  S   S80       1.0  0.27869  0.67966  0.16234  1.0000
  Fe  Fe41      1.0  0.22878  0.61759  0.19525  1.0000
  S   S81       1.0  0.21320  0.61378  0.21936  1.0000
  Fe  Fe42      1.0  0.21351  0.62510  0.16415  1.0000
  S   S82       1.0  0.17996  0.62990  0.15163  1.0000
  S   S83       1.0  0.26992  0.61084  0.18703  1.0000
  S   S84       1.0  0.25312  0.61987  0.15378  1.0000
  Fe  Fe43      1.0  0.16695  0.57037  0.05939  1.0000
  S   S85       1.0  0.18066  0.60618  0.04962  1.0000
  H   H320      1.0  0.21271  0.51912  0.15537  1.0000
  Fe  Fe44      1.0  0.11650  0.59579  0.07130  1.0000
  S   S86       1.0  0.12621  0.63414  0.06264  1.0000
  S   S87       1.0  0.07987  0.58504  0.08284  1.0000
  Fe  Fe45      1.0  0.14264  0.61672  0.04213  1.0000
  S   S88       1.0  0.13758  0.63469  0.01891  1.0000
  Fe  Fe46      1.0  0.16329  0.61964  0.07103  1.0000
  S   S89       1.0  0.18834  0.63837  0.08227  1.0000
  S   S90       1.0  0.13021  0.57964  0.05038  1.0000
  S   S91       1.0  0.15214  0.58270  0.08127  1.0000
  C   C203      1.0  0.18299  0.63013  0.13240  1.0000
  C   C204      1.0  0.16161  0.63017  0.12557  1.0000
  C   C205      1.0  0.16324  0.63142  0.11021  1.0000
  C   C206      1.0  0.18620  0.63330  0.10158  1.0000
  C   C207      1.0  0.20768  0.63269  0.10844  1.0000
  C   C208      1.0  0.20615  0.63061  0.12382  1.0000
  H   H321      1.0  0.14362  0.62963  0.13214  1.0000
  H   H322      1.0  0.14658  0.63196  0.10501  1.0000
  H   H323      1.0  0.22553  0.63386  0.10180  1.0000
  H   H324      1.0  0.22280  0.62971  0.12900  1.0000
  C   C209      1.0  0.33648  0.71892  0.16220  1.0000
  C   C210      1.0  0.20587  0.66424  0.22199  1.0000
  C   C211      1.0  0.19789  0.60008  0.01076  1.0000
  H   H325      1.0  0.32391  0.84832  0.17553  1.0000
  H   H326      1.0  0.21317  0.66712  0.21052  1.0000
  H   H327      1.0  0.23052  0.59469  0.98660  1.0000
  H   H328      1.0  0.20243  0.71371  0.11877  1.0000
  C   C212      1.0  0.31113  0.74933  0.21331  1.0000
  H   H329      1.0  0.29896  0.72583  0.15629  1.0000
  C   C213      1.0  0.33173  0.82529  0.23002  1.0000
  C   C214      1.0  0.13613  0.61628  0.00488  1.0000
  H   H330      1.0  0.13844  0.58125  0.01880  1.0000
  C   C215      1.0  0.13952  0.58729  0.98158  1.0000
  H   H331      1.0  0.17944  0.55438  0.16033  1.0000
  C   C216      1.0  0.25676  0.67649  0.12493  1.0000
  H   H332      1.0  0.24222  0.53620  0.19010  1.0000
  H   H333      1.0  0.31849  0.69654  0.19683  1.0000
  C   C217      1.0  0.03936  0.61635  0.04992  1.0000
  C   C218      1.0  0.05877  0.60991  0.05879  1.0000
  C   C219      1.0  0.05596  0.59293  0.07149  1.0000
  C   C220      1.0  0.03402  0.58184  0.07506  1.0000
  H   H334      1.0  0.16515  0.54910  0.14487  1.0000
  H   H335      1.0  0.04144  0.62987  0.04025  1.0000
  H   H336      1.0  0.07573  0.61844  0.05589  1.0000
  H   H337      1.0  0.03183  0.56856  0.08483  1.0000
  H   H338      1.0  0.13360  0.64782  0.98807  1.0000
  H   H339      1.0  0.16415  0.54939  0.03333  1.0000
  H   H340      1.0  0.19772  0.57952  0.12167  1.0000
  H   H341      1.0  0.11413  0.53912  0.07627  1.0000
  N   N22       1.0  0.32371  0.72466  0.20972  1.0000
  H   H342      1.0  0.26854  0.68319  0.11478  1.0000
  C   C221      1.0  0.13790  0.59030  0.00771  1.0000
  C   C222      1.0  0.24626  0.52071  0.18369  1.0000
  C   C223      1.0  0.31321  0.71195  0.16069  1.0000
  H   H343      1.0  0.22767  0.73302  0.13335  1.0000
  H   H344      1.0  0.14208  0.55579  0.99833  1.0000
  H   H345      1.0  0.20715  0.61323  0.01559  1.0000
  H   H346      1.0  0.23668  0.54676  0.01935  1.0000
  C   C224      1.0  0.13503  0.62773  0.99038  1.0000
  H   H347      1.0  0.22230  0.55461  0.11802  1.0000
  H   H348      1.0  0.25100  0.65861  0.12318  1.0000
  H   H349      1.0  0.20337  0.69906  0.14524  1.0000
  C   C225      1.0  0.20403  0.64006  0.22895  1.0000
  H   H350      1.0  0.19885  0.51416  0.13971  1.0000
  H   H351      1.0  0.21378  0.66774  0.14147  1.0000
  C   C226      1.0  0.24362  0.71861  0.13042  1.0000
  N   N23       1.0  0.23489  0.69510  0.12852  1.0000
  H   H352      1.0  0.25582  0.71565  0.13940  1.0000
  C   C227      1.0  0.32697  0.66947  0.17037  1.0000
  H   H353      1.0  0.19021  0.54927  0.12016  1.0000
  H   H354      1.0  0.27881  0.50393  0.15183  1.0000
  H   H355      1.0  0.21437  0.54368  0.99822  1.0000
  H   H356      1.0  0.23156  0.68264  0.15163  1.0000
  H   H357      1.0  0.21178  0.68225  0.11496  1.0000
  C   C228      1.0  0.21899  0.69959  0.11648  1.0000
  C   C229      1.0  0.30829  0.68722  0.16477  1.0000
  H   H358      1.0  0.23099  0.51929  0.13774  1.0000
  N   N24       1.0  0.09488  0.51437  0.06727  1.0000
  N   N25       1.0  0.20440  0.55214  0.14030  1.0000
  C   C230      1.0  0.01495  0.58770  0.06594  1.0000
  C   C231      1.0  0.21202  0.52498  0.14340  1.0000
  C   C232      1.0  0.22260  0.56551  0.14529  1.0000
  C   C233      1.0  0.17940  0.55898  0.14824  1.0000
  H   H359      1.0  0.24175  0.56103  0.13954  1.0000
  H   H360      1.0  0.07227  0.52874  0.04991  1.0000
  C   C234      1.0  0.20195  0.56094  0.00089  1.0000
  H   H361      1.0  0.29177  0.74831  0.21881  1.0000
  C   C235      1.0  0.07350  0.51592  0.07896  1.0000
  C   C236      1.0  0.26178  0.52279  0.17036  1.0000
  H   H362      1.0  0.20808  0.55888  0.02941  1.0000
  C   C237      1.0  0.20364  0.55916  0.12435  1.0000
  S   S92       1.0  0.19178  0.53412  0.05786  1.0000
  C   C238      1.0  0.01736  0.60537  0.05352  1.0000
  H   H363      1.0  0.18167  0.59534  0.01881  1.0000
  C   C239      1.0  0.17961  0.51698  0.04674  1.0000
  H   H364      1.0  0.22948  0.70630  0.10584  1.0000
  H   H365      1.0  0.25468  0.72634  0.12025  1.0000
  H   H366      1.0  0.32354  0.65034  0.17348  1.0000
  H   H367      1.0  0.19467  0.57046  0.99058  1.0000
  C   C240      1.0  0.16549  0.52943  0.03579  1.0000
  H   H368      1.0  0.12366  0.70246  0.22361  1.0000
  H   H369      1.0  0.21731  0.58603  0.14342  1.0000
  H   H370      1.0  0.26886  0.67224  0.13395  1.0000
  C   C241      1.0  0.32552  0.70724  0.22338  1.0000
  C   C242      1.0  0.22396  0.56422  0.02125  1.0000
  H   H371      1.0  0.14098  0.52585  0.02015  1.0000
  H   H372      1.0  0.31724  0.88980  0.18423  1.0000
  C   C243      1.0  0.19838  0.68474  0.22994  1.0000
  C   C244      1.0  0.15269  0.51610  0.02821  1.0000
  H   H373      1.0  0.10095  0.53949  0.98401  1.0000
  C   C245      1.0  0.13985  0.57589  0.99610  1.0000
  C   C246      1.0  0.22026  0.68574  0.14229  1.0000
  N   N26       1.0  0.21513  0.57745  0.00749  1.0000
  H   H374      1.0  0.31009  0.76311  0.20325  1.0000
  H   H375      1.0  0.19026  0.61034  0.00074  1.0000
  H   H376      1.0  0.11769  0.73499  0.22612  1.0000
  H   H377      1.0  0.14221  0.51363  0.98298  1.0000
  H   H378      1.0  0.10483  0.53200  0.04542  1.0000
  H   H379      1.0  0.18568  0.55505  0.00849  1.0000
  H   H380      1.0  0.17308  0.57936  0.14608  1.0000
  H   H381      1.0  0.29009  0.71220  0.20548  1.0000
  H   H382      1.0  0.08502  0.55192  0.05733  1.0000
  H   H383      1.0  0.07719  0.50227  0.08877  1.0000
  H   H384      1.0  0.30671  0.70497  0.22943  1.0000
  H   H385      1.0  0.23402  0.57608  0.02656  1.0000
  H   H386      1.0  0.22376  0.56041  0.15724  1.0000
  H   H387      1.0  0.19995  0.70338  0.22447  1.0000
  C   C247      1.0  0.26698  0.50239  0.16222  1.0000
  H   H388      1.0  0.24698  0.59719  0.00169  1.0000
  H   H389      1.0  0.31769  0.88648  0.15761  1.0000
  H   H390      1.0  0.13366  0.51944  0.06419  1.0000
  C   C248      1.0  0.11725  0.52012  0.07278  1.0000
  H   H391      1.0  0.12251  0.50663  0.08236  1.0000
  C   C249      1.0  0.23667  0.58464  0.99707  1.0000
  C   C250      1.0  0.30919  0.71488  0.20004  1.0000
  C   C251      1.0  0.08899  0.53253  0.05441  1.0000
  H   H392      1.0  0.30711  0.72778  0.18974  1.0000
  H   H393      1.0  0.32146  0.75713  0.22075  1.0000
  H   H394      1.0  0.06963  0.53479  0.08263  1.0000
  H   H395      1.0  0.05616  0.51220  0.07510  1.0000
  H   H396      1.0  0.25009  0.56800  0.99437  1.0000
  H   H397      1.0  0.33484  0.68842  0.22101  1.0000
  H   H398      1.0  0.33655  0.71398  0.23088  1.0000
  H   H399      1.0  0.07622  0.69010  0.28364  1.0000
  Fe  Fe47      1.0  0.16384  0.73639  0.30374  1.0000
  S   S93       1.0  0.18452  0.69977  0.29777  1.0000
  S   S94       1.0  0.18303  0.76078  0.31547  1.0000
  Fe  Fe48      1.0  0.11396  0.72364  0.29595  1.0000
  S   S95       1.0  0.13152  0.68650  0.28945  1.0000
  S   S96       1.0  0.07240  0.73691  0.29628  1.0000
  Fe  Fe49      1.0  0.15082  0.68323  0.30975  1.0000
  S   S97       1.0  0.15338  0.64814  0.32607  1.0000
  Fe  Fe50      1.0  0.16316  0.70695  0.27817  1.0000
  S   S98       1.0  0.17939  0.70776  0.25421  1.0000
  S   S99       1.0  0.13137  0.71926  0.31686  1.0000
  S   S100      1.0  0.14425  0.74480  0.28350  1.0000
  S   S101      1.0  0.28998  0.89270  0.27295  1.0000
  S   S102      1.0  0.28972  0.87593  0.30850  1.0000
  Fe  Fe51      1.0  0.28558  0.85774  0.28871  1.0000
  S   S103      1.0  0.25615  0.83708  0.28237  1.0000
  Fe  Fe52      1.0  0.29738  0.90965  0.29234  1.0000
  S   S104      1.0  0.27919  0.94688  0.29947  1.0000
  Fe  Fe53      1.0  0.10188  0.58826  0.43681  1.0000
  S   S105      1.0  0.10265  0.62931  0.43419  1.0000
  S   S106      1.0  0.06700  0.57258  0.44724  1.0000
  Fe  Fe54      1.0  0.15601  0.57767  0.42551  1.0000
  S   S107      1.0  0.16163  0.61823  0.42206  1.0000
  Fe  Fe55      1.0  0.13859  0.61995  0.44407  1.0000
  S   S108      1.0  0.14116  0.64498  0.46111  1.0000
  Fe  Fe56      1.0  0.12536  0.62418  0.41240  1.0000
  S   S109      1.0  0.11589  0.65421  0.39369  1.0000
  S   S110      1.0  0.13613  0.57899  0.44836  1.0000
  S   S111      1.0  0.12136  0.58347  0.41420  1.0000
  C   C252      1.0  0.14265  0.64950  0.34490  1.0000
  C   C253      1.0  0.14864  0.62893  0.35531  1.0000
  C   C254      1.0  0.14061  0.62993  0.37038  1.0000
  C   C255      1.0  0.12632  0.65148  0.37505  1.0000
  C   C256      1.0  0.12014  0.67188  0.36462  1.0000
  C   C257      1.0  0.12835  0.67093  0.34966  1.0000
  H   H400      1.0  0.15970  0.61221  0.35175  1.0000
  H   H401      1.0  0.14546  0.61407  0.37836  1.0000
  H   H402      1.0  0.10908  0.68858  0.36819  1.0000
  H   H403      1.0  0.12353  0.68681  0.34186  1.0000
  C   C258      1.0  0.20408  0.78122  0.30614  1.0000
  C   C259      1.0  0.21808  0.79261  0.31429  1.0000
  C   C260      1.0  0.23464  0.80931  0.30722  1.0000
  C   C261      1.0  0.23703  0.81502  0.29194  1.0000
  C   C262      1.0  0.22295  0.80369  0.28384  1.0000
  C   C263      1.0  0.20673  0.78673  0.29086  1.0000
  H   H404      1.0  0.21614  0.78846  0.32612  1.0000
  H   H405      1.0  0.24537  0.81785  0.31360  1.0000
  H   H406      1.0  0.22464  0.80801  0.27201  1.0000
  H   H407      1.0  0.19605  0.77815  0.28446  1.0000
  H   H408      1.0  0.03452  0.69077  0.31684  1.0000
  H   H409      1.0  0.31967  0.92080  0.31883  1.0000
  H   H410      1.0  0.18010  0.65420  0.26339  1.0000
  H   H411      1.0  0.02016  0.68082  0.33488  1.0000
  C   C264      1.0  0.18451  0.51787  0.41973  1.0000
  H   H412      1.0  0.30419  0.94792  0.32670  1.0000
  N   N27       1.0  0.03091  0.52524  0.41789  1.0000
  C   C265      1.0  0.03654  0.67650  0.32659  1.0000
  H   H413      1.0  0.13573  0.68340  0.25504  1.0000
  H   H414      1.0  0.07987  0.65689  0.35029  1.0000
  H   H415      1.0  0.14446  0.52316  0.42490  1.0000
  H   H416      1.0  0.04566  0.70659  0.34515  1.0000
  C   C266      1.0  0.04293  0.54756  0.41171  1.0000
  H   H417      1.0  0.10147  0.74747  0.25088  1.0000
  H   H418      1.0  0.03522  0.65815  0.32311  1.0000
  C   C267      1.0  0.33363  0.84239  0.23966  1.0000
  C   C268      1.0  0.29208  0.97483  0.29294  1.0000
  C   C269      1.0  0.04908  0.50661  0.42536  1.0000
  H   H419      1.0  0.32907  0.97414  0.33733  1.0000
  H   H420      1.0  0.06023  0.71600  0.32702  1.0000
  H   H421      1.0  0.10435  0.67899  0.26239  1.0000
  H   H422      1.0  0.19461  0.70984  0.32775  1.0000
  C   C270      1.0  0.32041  0.93292  0.32739  1.0000
  C   C271      1.0  0.04363  0.60772  0.42772  1.0000
  C   C272      1.0  0.04085  0.58994  0.44005  1.0000
  H   H423      1.0  0.05891  0.54306  0.40322  1.0000
  C   C273      1.0  0.19458  0.63660  0.24390  1.0000
  C   C274      1.0  0.18714  0.65711  0.25187  1.0000
  H   H424      1.0  0.06204  0.61136  0.42270  1.0000
  H   H425      1.0  0.00870  0.52808  0.40014  1.0000
  C   C275      1.0  0.01336  0.69718  0.28144  1.0000
  C   C276      1.0  0.11644  0.68455  0.25214  1.0000
  C   C277      1.0  0.03866  0.68675  0.27996  1.0000
  C   C278      1.0  0.05694  0.69848  0.28463  1.0000
  C   C279      1.0  0.05014  0.72105  0.29054  1.0000
  C   C280      1.0  0.02486  0.73132  0.29212  1.0000
  H   H426      1.0  0.12786  0.72826  0.25784  1.0000
  H   H427      1.0  0.04407  0.66947  0.27524  1.0000
  H   H428      1.0  0.31958  0.88423  0.36351  1.0000
  H   H429      1.0  0.20759  0.66924  0.36223  1.0000
  H   H430      1.0  0.04816  0.62107  0.48006  1.0000
  C   C281      1.0  0.10843  0.72818  0.25551  1.0000
  H   H431      1.0  0.07908  0.70199  0.34116  1.0000
  H   H432      1.0  0.09687  0.72399  0.26622  1.0000
  N   N28       1.0  0.21060  0.89965  0.29585  1.0000
  C   C282      1.0  0.21489  0.89331  0.28064  1.0000
  C   C283      1.0  0.22572  0.91937  0.29706  1.0000
  C   C284      1.0  0.21797  0.87726  0.30607  1.0000
  C   C285      1.0  0.18385  0.90862  0.29964  1.0000
  H   H433      1.0  0.20501  0.87742  0.27949  1.0000
  H   H434      1.0  0.23506  0.88757  0.27720  1.0000
  H   H435      1.0  0.20857  0.90943  0.27267  1.0000
  H   H436      1.0  0.24599  0.91314  0.29425  1.0000
  H   H437      1.0  0.22087  0.93657  0.28947  1.0000
  H   H438      1.0  0.22324  0.92462  0.30838  1.0000
  H   H439      1.0  0.21482  0.88122  0.31768  1.0000
  H   H440      1.0  0.23810  0.87015  0.30362  1.0000
  H   H441      1.0  0.20738  0.86174  0.30522  1.0000
  H   H442      1.0  0.17766  0.92557  0.29218  1.0000
  H   H443      1.0  0.17996  0.91348  0.31107  1.0000
  H   H444      1.0  0.17198  0.89413  0.29877  1.0000
  N   N29       1.0  0.19087  0.70392  0.35132  1.0000
  C   C286      1.0  0.19020  0.68278  0.36320  1.0000
  C   C287      1.0  0.21246  0.71701  0.35186  1.0000
  C   C288      1.0  0.16758  0.72149  0.35321  1.0000
  C   C289      1.0  0.19326  0.69449  0.33696  1.0000
  H   H445      1.0  0.17435  0.67228  0.36291  1.0000
  H   H446      1.0  0.18792  0.68917  0.37424  1.0000
  H   H447      1.0  0.21329  0.73313  0.34302  1.0000
  H   H448      1.0  0.21138  0.72434  0.36256  1.0000
  H   H449      1.0  0.23040  0.70439  0.35032  1.0000
  H   H450      1.0  0.16517  0.72899  0.36393  1.0000
  H   H451      1.0  0.15090  0.71232  0.35281  1.0000
  H   H452      1.0  0.16741  0.73761  0.34439  1.0000
  H   H453      1.0  0.21017  0.68052  0.33533  1.0000
  H   H454      1.0  0.17690  0.68533  0.33590  1.0000
  C   C290      1.0  0.18910  0.68126  0.24489  1.0000
  H   H455      1.0  0.04650  0.66158  0.35440  1.0000
  C   C291      1.0  0.08149  0.71090  0.24227  1.0000
  H   H456      1.0  0.01937  0.74872  0.29673  1.0000
  C   C292      1.0  0.06690  0.61013  0.47785  1.0000
  H   H457      1.0  0.08001  0.69715  0.23478  1.0000
  H   H458      1.0  0.02472  0.63417  0.41200  1.0000
  H   H459      1.0  0.08110  0.65189  0.31754  1.0000
  N   N30       1.0  0.10750  0.70989  0.24536  1.0000
  H   H460      1.0  0.31930  0.95918  0.27643  1.0000
  C   C293      1.0  0.08148  0.67033  0.32118  1.0000
  N   N31       1.0  0.06036  0.67641  0.33251  1.0000
  H   H461      1.0  0.05047  0.55536  0.42036  1.0000
  H   H462      1.0  0.31992  0.87079  0.33892  1.0000
  C   C294      1.0  0.02252  0.51454  0.40596  1.0000
  S   S112      1.0  0.32630  0.84248  0.28523  1.0000
  H   H463      1.0  0.06138  0.63851  0.34283  1.0000
  H   H464      1.0  0.01481  0.57150  0.45594  1.0000
  H   H465      1.0  0.09977  0.66956  0.32534  1.0000
  H   H466      1.0  0.33142  0.97517  0.31048  1.0000
  H   H467      1.0  0.11644  0.60262  0.47637  1.0000
  H   H468      1.0  0.07422  0.72972  0.23706  1.0000
  S   S113      1.0  0.18900  0.54886  0.42051  1.0000
  H   H469      1.0  0.02951  0.56258  0.40661  1.0000
  C   C295      1.0  0.06137  0.70132  0.33666  1.0000
  H   H470      1.0  0.06875  0.70675  0.25254  1.0000
  H   H471      1.0  0.11694  0.67037  0.24457  1.0000
  Fe  Fe57      1.0  0.33098  0.86376  0.30355  1.0000
  H   H472      1.0  0.31761  0.92145  0.33826  1.0000
  C   C296      1.0  0.02250  0.62050  0.42159  1.0000
  H   H473      1.0  0.03848  0.50866  0.39776  1.0000
  C   C297      1.0  0.00654  0.71939  0.28770  1.0000
  H   H474      1.0  0.19320  0.61792  0.24936  1.0000
  C   C298      1.0  0.31186  0.97570  0.28161  1.0000
  C   C299      1.0  0.06206  0.65753  0.34557  1.0000
  H   H475      1.0  0.17284  0.59946  0.47152  1.0000
  C   C300      1.0  0.15203  0.63357  0.47814  1.0000
  H   H476      1.0  0.22391  0.50670  0.41441  1.0000
  C   C301      1.0  0.16082  0.50995  0.42233  1.0000
  Fe  Fe58      1.0  0.33080  0.87807  0.27056  1.0000
  C   C302      1.0  0.01699  0.58509  0.44631  1.0000
  H   H477      1.0  0.31961  0.84475  0.24903  1.0000
  C   C303      1.0  0.16705  0.61058  0.48047  1.0000
  H   H478      1.0  0.33719  0.98691  0.44845  1.0000
  H   H479      1.0  0.08114  0.68457  0.31135  1.0000
  H   H480      1.0  0.05599  0.51418  0.43434  1.0000
  C   C304      1.0  0.32192  0.99813  0.27683  1.0000
  H   H481      1.0  0.14348  0.71530  0.23354  1.0000
  H   H482      1.0  0.01486  0.53934  0.43805  1.0000
  C   C305      1.0  0.00910  0.53223  0.42858  1.0000
  C   C306      1.0  0.28258  0.99653  0.29949  1.0000
  H   H483      1.0  0.31617  0.81461  0.23204  1.0000
  H   H484      1.0  0.06409  0.59135  0.47561  1.0000
  H   H485      1.0  0.07648  0.61932  0.46752  1.0000
  H   H486      1.0  0.33707  0.99872  0.26795  1.0000
  H   H487      1.0  0.26727  0.99605  0.30826  1.0000
  C   C307      1.0  0.33704  0.87695  0.35756  1.0000
  C   C308      1.0  0.33719  0.86938  0.34363  1.0000
  C   C309      1.0  0.12371  0.71595  0.23153  1.0000
  C   C310      1.0  0.09744  0.68205  0.64544  1.0000
  Fe  Fe59      1.0  0.11365  0.70123  0.67980  1.0000
  S   S114      1.0  0.14205  0.66744  0.67680  1.0000
  S   S115      1.0  0.07443  0.69053  0.68666  1.0000
  Fe  Fe60      1.0  0.15432  0.73565  0.67350  1.0000
  S   S116      1.0  0.18498  0.70425  0.66958  1.0000
  S   S117      1.0  0.16186  0.77523  0.67461  1.0000
  Fe  Fe61      1.0  0.15857  0.69049  0.65692  1.0000
  S   S118      1.0  0.17245  0.66811  0.63782  1.0000
  Fe  Fe62      1.0  0.16594  0.68368  0.68974  1.0000
  S   S119      1.0  0.19215  0.65987  0.70486  1.0000
  S   S120      1.0  0.12895  0.72374  0.65911  1.0000
  S   S121      1.0  0.13641  0.71574  0.69447  1.0000
  Fe  Fe63      1.0  0.28581  0.84404  0.66985  1.0000
  S   S122      1.0  0.26991  0.81082  0.66401  1.0000
  Fe  Fe64      1.0  0.29204  0.89951  0.67036  1.0000
  S   S123      1.0  0.27240  0.93938  0.66699  1.0000
  S   S124      1.0  0.29786  0.87453  0.65246  1.0000
  S   S125      1.0  0.27592  0.87014  0.68711  1.0000
  Fe  Fe65      1.0  0.08993  0.62551  0.54618  1.0000
  S   S126      1.0  0.12106  0.64868  0.54284  1.0000
  S   S127      1.0  0.05701  0.63319  0.53353  1.0000
  Fe  Fe66      1.0  0.11499  0.58620  0.56754  1.0000
  S   S128      1.0  0.14907  0.60544  0.56610  1.0000
  Fe  Fe67      1.0  0.12147  0.64040  0.56733  1.0000
  S   S129      1.0  0.12206  0.67346  0.57949  1.0000
  Fe  Fe68      1.0  0.14587  0.61226  0.54180  1.0000
  S   S130      1.0  0.17711  0.60604  0.52350  1.0000
  S   S131      1.0  0.08760  0.62058  0.57073  1.0000
  S   S132      1.0  0.11460  0.58972  0.54326  1.0000
  C   C311      1.0  0.15834  0.67007  0.62161  1.0000
  C   C312      1.0  0.14282  0.69141  0.61658  1.0000
  C   C313      1.0  0.13188  0.69217  0.60362  1.0000
  C   C314      1.0  0.13612  0.67154  0.59571  1.0000
  C   C315      1.0  0.15157  0.65017  0.60075  1.0000
  C   C316      1.0  0.16285  0.64958  0.61357  1.0000
  H   H488      1.0  0.13960  0.70746  0.62253  1.0000
  H   H489      1.0  0.12012  0.70886  0.59969  1.0000
  H   H490      1.0  0.15499  0.63419  0.59475  1.0000
  H   H491      1.0  0.17495  0.63305  0.61738  1.0000
  C   C317      1.0  0.19190  0.78513  0.67144  1.0000
  C   C318      1.0  0.19521  0.80765  0.67612  1.0000
  C   C319      1.0  0.21893  0.81585  0.67403  1.0000
  C   C320      1.0  0.23956  0.80163  0.66712  1.0000
  C   C321      1.0  0.23620  0.77916  0.66240  1.0000
  C   C322      1.0  0.21253  0.77096  0.66452  1.0000
  H   H492      1.0  0.17932  0.81883  0.68140  1.0000
  H   H493      1.0  0.22119  0.83323  0.67766  1.0000
  H   H494      1.0  0.25198  0.76808  0.65696  1.0000
  H   H495      1.0  0.21018  0.75386  0.66061  1.0000
  H   H496      1.0  0.25125  0.71380  0.69242  1.0000
  H   H497      1.0  0.06962  0.52171  0.57274  1.0000
  H   H498      1.0  0.27851  0.96893  0.71185  1.0000
  H   H499      1.0  0.08062  0.62517  0.65905  1.0000
  C   C323      1.0  0.32325  0.79587  0.61315  1.0000
  C   C324      1.0  0.17499  0.60223  0.49438  1.0000
  C   C325      1.0  0.18030  0.66669  0.55798  1.0000
  H   H500      1.0  0.31191  0.85713  0.61799  1.0000
  H   H501      1.0  0.22498  0.69703  0.69372  1.0000
  C   C326      1.0  0.28080  0.96666  0.67222  1.0000
  C   C327      1.0  0.30403  0.96747  0.67685  1.0000
  H   H502      1.0  0.04997  0.60646  0.50673  1.0000
  H   H503      1.0  0.29494  0.92353  0.69466  1.0000
  H   H504      1.0  0.01045  0.62692  0.56682  1.0000
  C   C328      1.0  0.20910  0.63350  0.54796  1.0000
  H   H505      1.0  0.31837  0.95154  0.67625  1.0000
  H   H506      1.0  0.21792  0.76289  0.71471  1.0000
  C   C329      1.0  0.28752  0.81766  0.62670  1.0000
  C   C330      1.0  0.04521  0.59199  0.55196  1.0000
  C   C331      1.0  0.03824  0.60994  0.54040  1.0000
  C   C332      1.0  0.26592  0.95442  0.71256  1.0000
  C   C333      1.0  0.31855  0.84064  0.61200  1.0000
  N   N32       1.0  0.19957  0.66038  0.54571  1.0000
  H   H507      1.0  0.06260  0.59171  0.55624  1.0000
  H   H508      1.0  0.03405  0.56202  0.56795  1.0000
  H   H509      1.0  0.20234  0.66116  0.52223  1.0000
  H   H510      1.0  0.07935  0.59435  0.51317  1.0000
  C   C334      1.0  0.16724  0.61644  0.50608  1.0000
  H   H511      1.0  0.25907  0.95611  0.70164  1.0000
  C   C335      1.0  0.04691  0.70114  0.67824  1.0000
  C   C336      1.0  0.04360  0.72396  0.66931  1.0000
  H   H512      1.0  0.13335  0.66580  0.48800  1.0000
  H   H513      1.0  0.09463  0.64384  0.48285  1.0000
  C   C337      1.0  0.16216  0.50813  0.55748  1.0000
  H   H514      1.0  0.05846  0.73553  0.66705  1.0000
  H   H515      1.0  0.05775  0.67820  0.63211  1.0000
  C   C338      1.0  0.08494  0.63372  0.49279  1.0000
  H   H516      1.0  0.09185  0.62879  0.63198  1.0000
  H   H517      1.0  0.08798  0.69231  0.65465  1.0000
  H   H518      1.0  0.01786  0.75039  0.65728  1.0000
  H   H519      1.0  0.07788  0.65214  0.66846  1.0000
  C   C339      1.0  0.09993  0.64593  0.63284  1.0000
  H   H520      1.0  0.23521  0.67077  0.53597  1.0000
  C   C340      1.0  0.22035  0.67509  0.54513  1.0000
  C   C341      1.0  0.15194  0.63920  0.50374  1.0000
  H   H521      1.0  0.30845  0.84314  0.60216  1.0000
  H   H522      1.0  0.18150  0.73996  0.71624  1.0000
  H   H523      1.0  0.22337  0.62794  0.53878  1.0000
  H   H524      1.0  0.10810  0.63806  0.66131  1.0000
  H   H525      1.0  0.16433  0.65600  0.55870  1.0000
  H   H526      1.0  0.15031  0.54727  0.55874  1.0000
  H   H527      1.0  0.21700  0.72096  0.72971  1.0000
  H   H528      1.0  0.17273  0.65551  0.53186  1.0000
  S   S133      1.0  0.33099  0.89009  0.67643  1.0000
  C   C342      1.0  0.18927  0.65839  0.72420  1.0000
  H   H529      1.0  0.18695  0.58466  0.49609  1.0000
  H   H530      1.0  0.17247  0.68678  0.55669  1.0000
  H   H531      1.0  0.02992  0.66858  0.68785  1.0000
  C   C343      1.0  0.30822  0.98849  0.68297  1.0000
  C   C344      1.0  0.00635  0.57519  0.55322  1.0000
  H   H532      1.0  0.21758  0.62830  0.55840  1.0000
  H   H533      1.0  0.27621  0.81986  0.61740  1.0000
  H   H534      1.0  0.11995  0.64020  0.63443  1.0000
  H   H535      1.0  0.14603  0.65044  0.51257  1.0000
  H   H536      1.0  0.24706  0.75221  0.70431  1.0000
  N   N33       1.0  0.08633  0.65921  0.64501  1.0000
  H   H537      1.0  0.05061  0.64927  0.64257  1.0000
  C   C345      1.0  0.02740  0.68640  0.68109  1.0000
  C   C346      1.0  0.02056  0.73235  0.66380  1.0000
  C   C347      1.0  0.23053  0.71594  0.69325  1.0000
  Fe  Fe69      1.0  0.31549  0.85937  0.69239  1.0000
  C   C348      1.0  0.30080  0.92395  0.70561  1.0000
  C   C349      1.0  0.04981  0.51373  0.54928  1.0000
  H   H538      1.0  0.04914  0.67653  0.65156  1.0000
  H   H539      1.0  0.31364  0.93826  0.70451  1.0000
  C   C350      1.0  0.18852  0.66621  0.53173  1.0000
  C   C351      1.0  0.08829  0.64288  0.65906  1.0000
  N   N34       1.0  0.21866  0.72817  0.70618  1.0000
  H   H540      1.0  0.06668  0.64506  0.49576  1.0000
  S   S134      1.0  0.32447  0.83153  0.67621  1.0000
  H   H541      1.0  0.32051  0.77789  0.62008  1.0000
  H   H542      1.0  0.09600  0.69505  0.63512  1.0000
  H   H543      1.0  0.10475  0.57459  0.48489  1.0000
  C   C352      1.0  0.05977  0.66605  0.64270  1.0000
  C   C353      1.0  0.19122  0.73063  0.70671  1.0000
  H   H544      1.0  0.32551  0.98829  0.68747  1.0000
  H   H545      1.0  0.31183  0.90558  0.70864  1.0000
  C   C354      1.0  0.12699  0.52456  0.57403  1.0000
  H   H546      1.0  0.22292  0.63233  0.72577  1.0000
  C   C355      1.0  0.14482  0.64793  0.48977  1.0000
  H   H547      1.0  0.18476  0.74176  0.69661  1.0000
  H   H548      1.0  0.11850  0.59292  0.49551  1.0000
  H   H549      1.0  0.11758  0.67760  0.64694  1.0000
  N   N35       1.0  0.08170  0.60841  0.49023  1.0000
  C   C356      1.0  0.26170  0.91057  0.71684  1.0000
  H   H550      1.0  0.19389  0.62187  0.54844  1.0000
  C   C357      1.0  0.02914  0.57486  0.55849  1.0000
  H   H551      1.0  0.27117  0.89120  0.71942  1.0000
  S   S135      1.0  0.10736  0.54991  0.58087  1.0000
  H   H552      1.0  0.18777  0.66239  0.56877  1.0000
  H   H553      1.0  0.22492  0.72686  0.68289  1.0000
  C   C358      1.0  0.32855  0.81472  0.63430  1.0000
  H   H554      1.0  0.25477  0.91169  0.70598  1.0000
  S   S136      1.0  0.31719  0.85447  0.71710  1.0000
  H   H555      1.0  0.06309  0.52779  0.54690  1.0000
  N   N36       1.0  0.27891  0.92911  0.71657  1.0000
  H   H556      1.0  0.22045  0.76527  0.69513  1.0000
  H   H557      1.0  0.24477  0.98745  0.66904  1.0000
  H   H558      1.0  0.03068  0.52397  0.55143  1.0000
  Fe  Fe70      1.0  0.33591  0.86323  0.65957  1.0000
  H   H559      1.0  0.17758  0.51127  0.54904  1.0000
  H   H560      1.0  0.09622  0.63306  0.50200  1.0000
  H   H561      1.0  0.01610  0.64655  0.57954  1.0000
  C   C359      1.0  0.01580  0.60975  0.53480  1.0000
  C   C360      1.0  0.22641  0.75320  0.70508  1.0000
  H   H562      1.0  0.28042  0.83336  0.63329  1.0000
  C   C361      1.0  0.26273  0.98779  0.67264  1.0000
  H   H563      1.0  0.21376  0.69546  0.54344  1.0000
  H   H564      1.0  0.18118  0.68633  0.52957  1.0000
  H   H565      1.0  0.22907  0.67112  0.55552  1.0000
  C   C362      1.0  0.14671  0.52851  0.56296  1.0000
  H   H566      1.0  0.09945  0.65792  0.62209  1.0000
  C   C363      1.0  0.10642  0.59393  0.48665  1.0000
  H   H567      1.0  0.03719  0.51838  0.57804  1.0000
  C   C364      1.0  0.22638  0.71287  0.71967  1.0000
  H   H568      1.0  0.18473  0.71210  0.70764  1.0000
  H   H569      1.0  0.06570  0.57673  0.50214  1.0000
  C   C365      1.0  0.06860  0.59585  0.50364  1.0000
  H   H570      1.0  0.24513  0.91352  0.72517  1.0000
  H   H571      1.0  0.22141  0.69367  0.72054  1.0000
  H   H572      1.0  0.24692  0.71109  0.71983  1.0000
  H   H573      1.0  0.15545  0.68424  0.72635  1.0000
  H   H574      1.0  0.32278  0.83070  0.64073  1.0000
  H   H575      1.0  0.24947  0.95918  0.72068  1.0000
  C   C366      1.0  0.00746  0.62975  0.57863  1.0000
  N   N37       1.0  0.31446  0.81722  0.62154  1.0000
  H   H576      1.0  0.28365  0.80021  0.63389  1.0000
  H   H577      1.0  0.31299  0.79714  0.60345  1.0000
  H   H578      1.0  0.32495  0.99398  0.64603  1.0000
  C   C367      1.0  0.05592  0.50803  0.57488  1.0000
  H   H579      1.0  0.33180  0.99557  0.53812  1.0000
  H   H580      1.0  0.01800  0.61337  0.58468  1.0000
  H   H581      1.0  0.01042  0.62345  0.52578  1.0000
  H   H582      1.0  0.32541  0.79759  0.64198  1.0000
  H   H583      1.0  0.33195  0.90784  0.60155  1.0000
  H   H584      1.0  0.33475  0.89345  0.62795  1.0000
  H   H585      1.0  0.05041  0.50470  0.53919  1.0000
  C   C368      1.0  0.00458  0.69456  0.67535  1.0000
  Fe  Fe71      1.0  0.23712  0.58203  0.80227  1.0000
  S   S137      1.0  0.20057  0.60612  0.80703  1.0000
  S   S138      1.0  0.23711  0.54025  0.80831  1.0000
  Fe  Fe72      1.0  0.26654  0.62672  0.79727  1.0000
  S   S139      1.0  0.23210  0.65388  0.80193  1.0000
  Fe  Fe73      1.0  0.22090  0.62505  0.82059  1.0000
  S   S140      1.0  0.20257  0.63687  0.84244  1.0000
  Fe  Fe74      1.0  0.21430  0.63287  0.78794  1.0000
  C   C369      1.0  0.20777  0.64331  0.73178  1.0000
  S   S141      1.0  0.25676  0.59960  0.81712  1.0000
  S   S142      1.0  0.24953  0.60718  0.78191  1.0000
  Fe  Fe75      1.0  0.09577  0.61081  0.92467  1.0000
  S   S143      1.0  0.13754  0.60427  0.92511  1.0000
  S   S144      1.0  0.07278  0.64720  0.91808  1.0000
  Fe  Fe76      1.0  0.08939  0.55709  0.93358  1.0000
  S   S145      1.0  0.13024  0.54539  0.93420  1.0000
  H   H586      1.0  0.00614  0.60033  0.91141  1.0000
  Fe  Fe77      1.0  0.12856  0.57887  0.94604  1.0000
  S   S146      1.0  0.14596  0.56828  0.96727  1.0000
  Fe  Fe78      1.0  0.13560  0.57153  0.91333  1.0000
  S   S147      1.0  0.16211  0.55784  0.89417  1.0000
  S   S148      1.0  0.08711  0.58885  0.94658  1.0000
  S   S149      1.0  0.09451  0.57973  0.91159  1.0000
  C   C370      1.0  0.30031  0.56112  0.79132  1.0000
  H   H587      1.0  0.27135  0.93116  0.73978  1.0000
  N   N38       1.0  0.10939  0.50359  0.97615  1.0000
  H   H588      1.0  0.03747  0.57938  0.89050  1.0000
  C   C371      1.0  0.01284  0.65538  0.94795  1.0000
  H   H589      1.0  0.13641  0.62229  0.96759  1.0000
  C   C372      1.0  0.19127  0.61460  0.85662  1.0000
  C   C373      1.0  0.17717  0.62277  0.86932  1.0000
  C   C374      1.0  0.16781  0.60559  0.88079  1.0000
  C   C375      1.0  0.17272  0.58002  0.87970  1.0000
  C   C376      1.0  0.18664  0.57185  0.86693  1.0000
  C   C377      1.0  0.19575  0.58907  0.85538  1.0000
  H   H590      1.0  0.17361  0.64248  0.87038  1.0000
  H   H591      1.0  0.15713  0.61212  0.89056  1.0000
  H   H592      1.0  0.19047  0.55213  0.86596  1.0000
  H   H593      1.0  0.20652  0.58254  0.84561  1.0000
  H   H594      1.0  0.18940  0.51015  0.89032  1.0000
  C   C378      1.0  0.06060  0.50983  0.92911  1.0000
  H   H595      1.0  0.09690  0.51544  0.91771  1.0000
  C   C379      1.0  0.31024  0.51731  0.79966  1.0000
  H   H596      1.0  0.15368  0.68244  0.75342  1.0000
  H   H597      1.0  0.28167  0.67499  0.80863  1.0000
  C   C380      1.0  0.02396  0.57294  0.88439  1.0000
  H   H598      1.0  0.03079  0.57616  0.87249  1.0000
  C   C381      1.0  0.30953  0.94131  0.92911  1.0000
  C   C382      1.0  0.03597  0.62033  0.91414  1.0000
  C   C383      1.0  0.04669  0.64244  0.91021  1.0000
  C   C384      1.0  0.03593  0.66133  0.90030  1.0000
  H   H599      1.0  0.17759  0.51545  0.91658  1.0000
  H   H600      1.0  0.28356  0.54571  0.81927  1.0000
  H   H601      1.0  0.04398  0.60580  0.92198  1.0000
  H   H602      1.0  0.30220  0.58062  0.79276  1.0000
  H   H603      1.0  0.32732  0.96961  0.94572  1.0000
  H   H604      1.0  0.13013  0.68353  0.83614  1.0000
  H   H605      1.0  0.31189  0.95323  0.91835  1.0000
  C   C385      1.0  0.31686  0.66180  0.79680  1.0000
  H   H606      1.0  0.00922  0.52356  0.90905  1.0000
  H   H607      1.0  0.22113  0.63053  0.75281  1.0000
  C   C386      1.0  0.25077  0.51813  0.78264  1.0000
  S   S150      1.0  0.30648  0.63576  0.79117  1.0000
  N   N39       1.0  0.13670  0.65068  0.82509  1.0000
  C   C387      1.0  0.15649  0.66025  0.81411  1.0000
  C   C388      1.0  0.04548  0.53092  0.88654  1.0000
  C   C389      1.0  0.33466  0.70286  0.80559  1.0000
  H   H608      1.0  0.14571  0.50812  0.90199  1.0000
  C   C390      1.0  0.18732  0.65635  0.75498  1.0000
  H   H609      1.0  0.09727  0.64898  0.82687  1.0000
  H   H610      1.0  0.12869  0.61563  0.83727  1.0000
  H   H611      1.0  0.12010  0.65606  0.84709  1.0000
  H   H612      1.0  0.32310  0.76791  0.76828  1.0000
  H   H613      1.0  0.32593  0.76338  0.74211  1.0000
  H   H614      1.0  0.30704  0.73164  0.76098  1.0000
  H   H615      1.0  0.10733  0.67646  0.81603  1.0000
  C   C391      1.0  0.32937  0.91969  0.94992  1.0000
  S   S151      1.0  0.18530  0.65555  0.77427  1.0000
  H   H616      1.0  0.02169  0.64893  0.95818  1.0000
  H   H617      1.0  0.32068  0.50292  0.80708  1.0000
  H   H618      1.0  0.30740  0.55844  0.77973  1.0000
  C   C392      1.0  0.01489  0.65799  0.89408  1.0000
  H   H619      1.0  0.05341  0.53355  0.87480  1.0000
  C   C393      1.0  0.24026  0.51573  0.79735  1.0000
  H   H620      1.0  0.29721  0.71083  0.81641  1.0000
  C   C394      1.0  0.30389  0.54740  0.81695  1.0000
  H   H621      1.0  0.02537  0.64698  0.93891  1.0000
  S   S152      1.0  0.06014  0.53194  0.94105  1.0000
  H   H622      1.0  0.29452  0.95137  0.93636  1.0000
  C   C395      1.0  0.09622  0.52934  0.97539  1.0000
  C   C396      1.0  0.13665  0.50427  0.97426  1.0000
  H   H623      1.0  0.30022  0.77315  0.84819  1.0000
  C   C397      1.0  0.16887  0.67153  0.74739  1.0000
  H   H624      1.0  0.32631  0.71138  0.77302  1.0000
  C   C398      1.0  0.30976  0.69848  0.80971  1.0000
  H   H625      1.0  0.10149  0.54026  0.96464  1.0000
  H   H626      1.0  0.11365  0.64717  0.80872  1.0000
  H   H627      1.0  0.32407  0.79868  0.86002  1.0000
  H   H628      1.0  0.17492  0.65670  0.81839  1.0000
  H   H629      1.0  0.01263  0.67592  0.94556  1.0000
  C   C399      1.0  0.14293  0.62345  0.82880  1.0000
  N   N40       1.0  0.02110  0.54650  0.88923  1.0000
  H   H630      1.0  0.28005  0.55941  0.79288  1.0000
  H   H631      1.0  0.00684  0.67259  0.88628  1.0000
  C   C400      1.0  0.30087  0.67815  0.80531  1.0000
  C   C401      1.0  0.20684  0.64229  0.74710  1.0000
  H   H632      1.0  0.05933  0.53545  0.89317  1.0000
  H   H633      1.0  0.29725  0.90841  0.73443  1.0000
  H   H634      1.0  0.32351  0.84395  0.74760  1.0000
  H   H635      1.0  0.16118  0.61869  0.83327  1.0000
  C   C402      1.0  0.01441  0.61731  0.90825  1.0000
  H   H636      1.0  0.04368  0.51078  0.88950  1.0000
  C   C403      1.0  0.01198  0.54326  0.90507  1.0000
  C   C404      1.0  0.13653  0.61331  0.97876  1.0000
  H   H637      1.0  0.33682  0.77119  0.87107  1.0000
  C   C405      1.0  0.08113  0.50527  0.91854  1.0000
  H   H638      1.0  0.25585  0.53589  0.77735  1.0000
  C   C406      1.0  0.11263  0.65606  0.81892  1.0000
  C   C407      1.0  0.13471  0.66296  0.83850  1.0000
  H   H639      1.0  0.14440  0.61352  0.81897  1.0000
  H   H640      1.0  0.30287  0.92394  0.92716  1.0000
  H   H641      1.0  0.15260  0.65926  0.84341  1.0000
  H   H642      1.0  0.15239  0.68069  0.81092  1.0000
  H   H643      1.0  0.30623  0.56647  0.81895  1.0000
  H   H644      1.0  0.14291  0.51482  0.96354  1.0000
  H   H645      1.0  0.04409  0.67847  0.89729  1.0000
  H   H646      1.0  0.15870  0.65120  0.80389  1.0000
  N   N41       1.0  0.31379  0.54279  0.80176  1.0000
  H   H647      1.0  0.29018  0.51457  0.80209  1.0000
  H   H648      1.0  0.31258  0.74568  0.85940  1.0000
  H   H649      1.0  0.02534  0.54846  0.91179  1.0000
  H   H650      1.0  0.31347  0.53381  0.82515  1.0000
  N   N42       1.0  0.33317  0.93567  0.93573  1.0000
  C   C408      1.0  0.16982  0.67259  0.73206  1.0000
  H   H651      1.0  0.31651  0.51344  0.78817  1.0000
  C   C409      1.0  0.31624  0.75798  0.84891  1.0000
  C   C410      1.0  0.32606  0.72113  0.76164  1.0000
  H   H652      1.0  0.31638  0.74666  0.83979  1.0000
  H   H653      1.0  0.07559  0.52967  0.97665  1.0000
  H   H654      1.0  0.00919  0.54101  0.86891  1.0000
  H   H655      1.0  0.31496  0.92894  0.95783  1.0000
  H   H656      1.0  0.32876  0.70651  0.75414  1.0000
  H   H657      1.0  0.00583  0.58518  0.88619  1.0000
  H   H658      1.0  0.32907  0.80049  0.83299  1.0000
  H   H659      1.0  0.32343  0.90166  0.94847  1.0000
  C   C411      1.0  0.28735  0.92738  0.73119  1.0000
  H   H660      1.0  0.33704  0.84859  0.97088  1.0000
  H   H661      1.0  0.30054  0.94102  0.73128  1.0000
  H   H662      1.0  0.42623  0.03725  0.99198  1.0000
  Fe  Fe79      1.0  0.61460  0.22391  0.18459  1.0000
  S   S153      1.0  0.62742  0.18297  0.18518  1.0000
  S   S154      1.0  0.57481  0.23628  0.19424  1.0000
  C   C412      1.0  0.63822  0.16756  0.12818  1.0000
  Fe  Fe80      1.0  0.66409  0.23783  0.16808  1.0000
  H   H663      1.0  0.53136  0.15938  0.20811  1.0000
  H   H664      1.0  0.51128  0.10468  0.98872  1.0000
  S   S155      1.0  0.62737  0.23354  0.16060  1.0000
  Fe  Fe81      1.0  0.63176  0.12155  0.04020  1.0000
  S   S156      1.0  0.59225  0.11448  0.04678  1.0000
  C   C413      1.0  0.39983  0.08890  0.98592  1.0000
  Fe  Fe82      1.0  0.63251  0.14675  0.06757  1.0000
  S   S157      1.0  0.59294  0.14146  0.07625  1.0000
  H   H665      1.0  0.52606  0.13086  0.99082  1.0000
  Fe  Fe83      1.0  0.60314  0.10318  0.06929  1.0000
  Fe  Fe84      1.0  0.58575  0.15332  0.05298  1.0000
  S   S158      1.0  0.55093  0.17866  0.04818  1.0000
  S   S159      1.0  0.62441  0.16155  0.04455  1.0000
  Fe  Fe85      1.0  0.45063  0.21095  0.16399  1.0000
  S   S160      1.0  0.45182  0.16953  0.16815  1.0000
  S   S161      1.0  0.48950  0.22243  0.15720  1.0000
  Fe  Fe86      1.0  0.39346  0.21942  0.16714  1.0000
  S   S162      1.0  0.39171  0.17799  0.17106  1.0000
  C   C414      1.0  0.36893  0.13975  0.03458  1.0000
  Fe  Fe87      1.0  0.42055  0.17654  0.18611  1.0000
  S   S163      1.0  0.42040  0.14936  0.20704  1.0000
  Fe  Fe88      1.0  0.42292  0.17436  0.15265  1.0000
  S   S164      1.0  0.42707  0.14313  0.13823  1.0000
  S   S165      1.0  0.42124  0.21793  0.18331  1.0000
  S   S166      1.0  0.42286  0.21580  0.14740  1.0000
  Fe  Fe89      1.0  0.42256  0.08788  0.03273  1.0000
  S   S167      1.0  0.45721  0.06037  0.03235  1.0000
  S   S168      1.0  0.39672  0.08650  0.01603  1.0000
  Fe  Fe90      1.0  0.43699  0.11342  0.05715  1.0000
  S   S169      1.0  0.47308  0.08785  0.05844  1.0000
  S   S170      1.0  0.42734  0.14764  0.06917  1.0000
  Fe  Fe91      1.0  0.47639  0.09282  0.03390  1.0000
  S   S171      1.0  0.51254  0.09796  0.02009  1.0000
  Fe  Fe92      1.0  0.45024  0.05781  0.05679  1.0000
  S   S172      1.0  0.45864  0.01946  0.06854  1.0000
  S   S173      1.0  0.44229  0.12090  0.03244  1.0000
  S   S174      1.0  0.41346  0.08283  0.05735  1.0000
  C   C415      1.0  0.42732  0.14510  0.11897  1.0000
  C   C416      1.0  0.43054  0.12289  0.11252  1.0000
  C   C417      1.0  0.43070  0.12339  0.09729  1.0000
  C   C418      1.0  0.42755  0.14619  0.08835  1.0000
  C   C419      1.0  0.42449  0.16843  0.09475  1.0000
  C   C420      1.0  0.42445  0.16792  0.11000  1.0000
  H   H666      1.0  0.43268  0.10516  0.11941  1.0000
  H   H667      1.0  0.43291  0.10613  0.09253  1.0000
  H   H668      1.0  0.42206  0.18617  0.08791  1.0000
  H   H669      1.0  0.42194  0.18514  0.11484  1.0000
  H   H670      1.0  0.38099  0.08418  0.98772  1.0000
  H   H671      1.0  0.34232  0.45332  0.16209  1.0000
  H   H672      1.0  0.65560  0.19238  0.22552  1.0000
  S   S175      1.0  0.58642  0.06992  0.08164  1.0000
  H   H673      1.0  0.57817  0.01878  0.09013  1.0000
  H   H674      1.0  0.36939  0.14871  0.02300  1.0000
  C   C421      1.0  0.47455  0.18945  0.20047  1.0000
  H   H675      1.0  0.39929  0.19465  0.21995  1.0000
  H   H676      1.0  0.66140  0.19682  0.12550  1.0000
  C   C422      1.0  0.43627  0.09741  0.99548  1.0000
  C   C423      1.0  0.41189  0.09140  0.99794  1.0000
  H   H677      1.0  0.44588  0.09919  0.00461  1.0000
  C   C424      1.0  0.53811  0.16254  0.03680  1.0000
  C   C425      1.0  0.55395  0.14949  0.02644  1.0000
  C   C426      1.0  0.54568  0.13049  0.02051  1.0000
  C   C427      1.0  0.52154  0.12462  0.02505  1.0000
  C   C428      1.0  0.50513  0.13900  0.03454  1.0000
  C   C429      1.0  0.51330  0.15825  0.04024  1.0000
  H   H678      1.0  0.57308  0.15311  0.02366  1.0000
  H   H679      1.0  0.55846  0.11951  0.01314  1.0000
  H   H680      1.0  0.48645  0.13476  0.03805  1.0000
  H   H681      1.0  0.50090  0.16859  0.04807  1.0000
  C   C430      1.0  0.34453  0.31550  0.16078  1.0000
  H   H682      1.0  0.38299  0.00388  0.05066  1.0000
  C   C431      1.0  0.51196  0.22342  0.16909  1.0000
  C   C432      1.0  0.53654  0.21214  0.16559  1.0000
  C   C433      1.0  0.55580  0.21559  0.17341  1.0000
  C   C434      1.0  0.55064  0.23039  0.18486  1.0000
  C   C435      1.0  0.52584  0.24082  0.18881  1.0000
  C   C436      1.0  0.50657  0.23744  0.18092  1.0000
  H   H683      1.0  0.54074  0.20074  0.15674  1.0000
  H   H684      1.0  0.57473  0.20698  0.17051  1.0000
  H   H685      1.0  0.52171  0.25231  0.19765  1.0000
  H   H686      1.0  0.48780  0.24663  0.18356  1.0000
  C   C437      1.0  0.62829  0.15113  0.12097  1.0000
  C   C438      1.0  0.64906  0.16766  0.09752  1.0000
  H   H687      1.0  0.62603  0.13828  0.10033  1.0000
  S   S176      1.0  0.65003  0.23197  0.19212  1.0000
  C   C439      1.0  0.59479  0.01905  0.08226  1.0000
  H   H688      1.0  0.51138  0.04532  0.03866  1.0000
  C   C440      1.0  0.39299  0.17884  0.22713  1.0000
  C   C441      1.0  0.51759  0.12227  0.98285  1.0000
  H   H689      1.0  0.61332  0.14378  0.01048  1.0000
  C   C442      1.0  0.64080  0.11416  0.00321  1.0000
  C   C443      1.0  0.62099  0.13335  0.00145  1.0000
  H   H690      1.0  0.49849  0.15335  0.18481  1.0000
  C   C444      1.0  0.65090  0.10102  0.99131  1.0000
  H   H691      1.0  0.63108  0.05944  0.06152  1.0000
  H   H692      1.0  0.52424  0.18130  0.19248  1.0000
  H   H693      1.0  0.58372  0.02154  0.05224  1.0000
  C   C445      1.0  0.49253  0.14745  0.19663  1.0000
  C   C446      1.0  0.34385  0.16343  0.20848  1.0000
  C   C447      1.0  0.63359  0.15123  0.10571  1.0000
  H   H694      1.0  0.44134  0.04230  0.00699  1.0000
  N   N43       1.0  0.42689  0.00729  0.00977  1.0000
  H   H695      1.0  0.48337  0.17421  0.22821  1.0000
  C   C448      1.0  0.40279  0.01751  0.01753  1.0000
  C   C449      1.0  0.63837  0.01957  0.06244  1.0000
  Fe  Fe93      1.0  0.64171  0.19273  0.16145  1.0000
  C   C450      1.0  0.65913  0.18408  0.10471  1.0000
  H   H696      1.0  0.45678  0.02094  0.99451  1.0000
  H   H697      1.0  0.55881  0.07002  0.03668  1.0000
  N   N44       1.0  0.54638  0.03576  0.04751  1.0000
  C   C451      1.0  0.61162  0.13961  0.98782  1.0000
  H   H698      1.0  0.36330  0.20525  0.19811  1.0000
  H   H699      1.0  0.47904  0.19545  0.18853  1.0000
  H   H700      1.0  0.56746  0.10950  0.98169  1.0000
  H   H701      1.0  0.54616  0.02702  0.07087  1.0000
  S   S177      1.0  0.62995  0.16718  0.14726  1.0000
  H   H702      1.0  0.35346  0.12809  0.03676  1.0000
  H   H703      1.0  0.65530  0.01987  0.05481  1.0000
  H   H704      1.0  0.52704  0.01475  0.03592  1.0000
  C   C452      1.0  0.51754  0.17512  0.20414  1.0000
  H   H705      1.0  0.50554  0.13071  0.20023  1.0000
  S   S178      1.0  0.65585  0.16808  0.07833  1.0000
  H   H706      1.0  0.47485  0.20574  0.20636  1.0000
  C   C453      1.0  0.57086  0.02070  0.04408  1.0000
  C   C454      1.0  0.34221  0.17494  0.04381  1.0000
  C   C455      1.0  0.62472  0.04202  0.06630  1.0000
  H   H707      1.0  0.44654  0.00807  0.02827  1.0000
  S   S179      1.0  0.65395  0.10692  0.01993  1.0000
  C   C456      1.0  0.65362  0.18414  0.12002  1.0000
  C   C457      1.0  0.53005  0.03434  0.03630  1.0000
  C   C458      1.0  0.60317  0.04183  0.07642  1.0000
  H   H708      1.0  0.38582  0.18716  0.04947  1.0000
  H   H709      1.0  0.56231  0.06374  0.05588  1.0000
  H   H710      1.0  0.39299  0.00242  0.02413  1.0000
  C   C459      1.0  0.38699  0.17335  0.04157  1.0000
  H   H711      1.0  0.51576  0.03649  0.06491  1.0000
  C   C460      1.0  0.41607  0.01080  0.05877  1.0000
  C   C461      1.0  0.43838  0.02777  0.00039  1.0000
  N   N45       1.0  0.36606  0.15835  0.04502  1.0000
  H   H712      1.0  0.38362  0.13236  0.06137  1.0000
  H   H713      1.0  0.36179  0.16071  0.20113  1.0000
  H   H714      1.0  0.34883  0.40214  0.18100  1.0000
  H   H715      1.0  0.59660  0.15481  0.98649  1.0000
  H   H716      1.0  0.37563  0.28570  0.16025  1.0000
  N   N46       1.0  0.57397  0.22286  0.12209  1.0000
  C   C462      1.0  0.58600  0.21684  0.13571  1.0000
  C   C463      1.0  0.58460  0.20435  0.11195  1.0000
  C   C464      1.0  0.57863  0.24801  0.11508  1.0000
  C   C465      1.0  0.54676  0.22227  0.12563  1.0000
  H   H717      1.0  0.57869  0.23052  0.14360  1.0000
  H   H718      1.0  0.60660  0.21682  0.13343  1.0000
  H   H719      1.0  0.58289  0.19799  0.14137  1.0000
  H   H720      1.0  0.58212  0.18506  0.11708  1.0000
  H   H721      1.0  0.57572  0.20794  0.10162  1.0000
  H   H722      1.0  0.60504  0.20465  0.10884  1.0000
  H   H723      1.0  0.59903  0.24909  0.11241  1.0000
  H   H724      1.0  0.57074  0.26241  0.12245  1.0000
  H   H725      1.0  0.57004  0.25313  0.10468  1.0000
  H   H726      1.0  0.53820  0.23543  0.13366  1.0000
  H   H727      1.0  0.54254  0.20338  0.13059  1.0000
  H   H728      1.0  0.53693  0.22743  0.11568  1.0000
  N   N47       1.0  0.51144  0.12928  0.08544  1.0000
  C   C466      1.0  0.52784  0.13639  0.09510  1.0000
  C   C467      1.0  0.49424  0.15144  0.08038  1.0000
  C   C468      1.0  0.49680  0.11002  0.09367  1.0000
  C   C469      1.0  0.52692  0.11933  0.07263  1.0000
  H   H729      1.0  0.54160  0.12024  0.09874  1.0000
  H   H730      1.0  0.51683  0.14339  0.10508  1.0000
  H   H731      1.0  0.53862  0.15140  0.08930  1.0000
  H   H732      1.0  0.48173  0.14681  0.07293  1.0000
  H   H733      1.0  0.48200  0.15925  0.08976  1.0000
  H   H734      1.0  0.50469  0.16646  0.07424  1.0000
  H   H735      1.0  0.48504  0.11691  0.10348  1.0000
  H   H736      1.0  0.50918  0.09294  0.09755  1.0000
  H   H737      1.0  0.48397  0.10449  0.08676  1.0000
  H   H738      1.0  0.51521  0.11447  0.06484  1.0000
  H   H739      1.0  0.53982  0.10232  0.07601  1.0000
  H   H740      1.0  0.53865  0.13322  0.06641  1.0000
  S   S180      1.0  0.64366  0.10729  0.06253  1.0000
  H   H741      1.0  0.53192  0.07394  0.05001  1.0000
  Fe  Fe94      1.0  0.66388  0.19151  0.19044  1.0000
  H   H742      1.0  0.35617  0.32998  0.15684  1.0000
  C   C470      1.0  0.34356  0.40368  0.16971  1.0000
  C   C471      1.0  0.35564  0.29039  0.16269  1.0000
  H   H743      1.0  0.61648  0.13818  0.12725  1.0000
  H   H744      1.0  0.41015  0.03057  0.05845  1.0000
  C   C472      1.0  0.53455  0.02594  0.06209  1.0000
  H   H745      1.0  0.53815  0.04192  0.02516  1.0000
  C   C473      1.0  0.40052  0.15477  0.22335  1.0000
  H   H746      1.0  0.35995  0.40848  0.16180  1.0000
  S   S181      1.0  0.35344  0.23943  0.17024  1.0000
  H   H747      1.0  0.58022  0.02743  0.03310  1.0000
  H   H748      1.0  0.40545  0.03067  0.02513  1.0000
  C   C474      1.0  0.36610  0.14539  0.06015  1.0000
  C   C475      1.0  0.55001  0.06200  0.04755  1.0000
  C   C476      1.0  0.48412  0.15920  0.22115  1.0000
  H   H749      1.0  0.34011  0.38479  0.16795  1.0000
  H   H750      1.0  0.35040  0.20741  0.21688  1.0000
  C   C477      1.0  0.34077  0.27144  0.16764  1.0000
  C   C478      1.0  0.34553  0.20777  0.20560  1.0000
  H   H751      1.0  0.40529  0.16141  0.04224  1.0000
  H   H752      1.0  0.45509  0.18493  0.20223  1.0000
  H   H753      1.0  0.39007  0.02806  0.00972  1.0000
  N   N48       1.0  0.49222  0.16780  0.20561  1.0000
  H   H754      1.0  0.38746  0.18362  0.03030  1.0000
  H   H755      1.0  0.53184  0.00605  0.06243  1.0000
  H   H756      1.0  0.51796  0.19091  0.21043  1.0000
  H   H757      1.0  0.46506  0.15344  0.22254  1.0000
  H   H758      1.0  0.47364  0.14160  0.19739  1.0000
  H   H759      1.0  0.38661  0.12678  0.03531  1.0000
  H   H760      1.0  0.36487  0.15876  0.06832  1.0000
  H   H761      1.0  0.34853  0.16067  0.21996  1.0000
  H   H762      1.0  0.49699  0.14287  0.22546  1.0000
  H   H763      1.0  0.34156  0.18501  0.03252  1.0000
  H   H764      1.0  0.33949  0.18919  0.05156  1.0000
  H   H765      1.0  0.66628  0.08619  0.99258  1.0000
  H   H766      1.0  0.39846  0.11566  0.23012  1.0000
  H   H767      1.0  0.35029  0.13426  0.06329  1.0000
  H   H768      1.0  0.33910  0.18826  0.18161  1.0000
  H   H769      1.0  0.38377  0.05745  0.37703  1.0000
  S   S182      1.0  0.60896  0.07696  0.41821  1.0000
  C   C479      1.0  0.38111  0.02174  0.40648  1.0000
  Fe  Fe95      1.0  0.62162  0.11319  0.44888  1.0000
  S   S183      1.0  0.58508  0.09885  0.44948  1.0000
  C   C480      1.0  0.63468  0.05112  0.38537  1.0000
  Fe  Fe96      1.0  0.60878  0.06456  0.44233  1.0000
  C   C481      1.0  0.66253  0.12635  0.36613  1.0000
  Fe  Fe97      1.0  0.58845  0.11274  0.42541  1.0000
  S   S184      1.0  0.55590  0.13426  0.41475  1.0000
  H   H770      1.0  0.64710  0.17337  0.29937  1.0000
  S   S185      1.0  0.62325  0.13019  0.42523  1.0000
  H   H771      1.0  0.42563  0.05015  0.33494  1.0000
  H   H772      1.0  0.43142  0.02339  0.36561  1.0000
  Fe  Fe98      1.0  0.43363  0.08825  0.41174  1.0000
  S   S186      1.0  0.42068  0.12904  0.41209  1.0000
  S   S187      1.0  0.47288  0.06816  0.40975  1.0000
  Fe  Fe99      1.0  0.38080  0.07540  0.41647  1.0000
  S   S188      1.0  0.36308  0.11497  0.41760  1.0000
  S   S189      1.0  0.36032  0.04296  0.41618  1.0000
  Fe  Fe100     1.0  0.39149  0.12368  0.39822  1.0000
  S   S190      1.0  0.38341  0.14712  0.37679  1.0000
  Fe  Fe101     1.0  0.39358  0.11659  0.43147  1.0000
  S   S191      1.0  0.39003  0.13651  0.45171  1.0000
  S   S192      1.0  0.40710  0.08406  0.39627  1.0000
  S   S193      1.0  0.40863  0.07605  0.43193  1.0000
  C   C482      1.0  0.66098  0.11586  0.38093  1.0000
  H   H773      1.0  0.38765  0.08401  0.46233  1.0000
  C   C483      1.0  0.36571  0.13482  0.36567  1.0000
  H   H774      1.0  0.62371  0.21419  0.30510  1.0000
  H   H775      1.0  0.35183  0.14226  0.33027  1.0000
  C   C484      1.0  0.36949  0.16208  0.24991  1.0000
  C   C485      1.0  0.40796  0.08308  0.35398  1.0000
  C   C486      1.0  0.37687  0.13802  0.24606  1.0000
  H   H776      1.0  0.65661  0.00435  0.41054  1.0000
  H   H777      1.0  0.66667  0.12660  0.44265  1.0000
  C   C487      1.0  0.39075  0.11914  0.46931  1.0000
  S   S194      1.0  0.35037  0.16758  0.26650  1.0000
  C   C488      1.0  0.49510  0.11875  0.44843  1.0000
  C   C489      1.0  0.39259  0.13438  0.23292  1.0000
  H   H778      1.0  0.35311  0.10678  0.38265  1.0000
  H   H779      1.0  0.43618  0.10554  0.44885  1.0000
  H   H780      1.0  0.57064  0.03974  0.42989  1.0000
  C   C490      1.0  0.53387  0.11556  0.41210  1.0000
  C   C491      1.0  0.51174  0.12664  0.40647  1.0000
  C   C492      1.0  0.49305  0.11212  0.40546  1.0000
  C   C493      1.0  0.49657  0.08647  0.40997  1.0000
  C   C494      1.0  0.51899  0.07528  0.41521  1.0000
  C   C495      1.0  0.53752  0.08985  0.41638  1.0000
  H   H781      1.0  0.50890  0.14653  0.40309  1.0000
  H   H782      1.0  0.47597  0.12077  0.40116  1.0000
  H   H783      1.0  0.52179  0.05542  0.41870  1.0000
  H   H784      1.0  0.55439  0.08127  0.42088  1.0000
  H   H785      1.0  0.50113  0.10429  0.45740  1.0000
  S   S195      1.0  0.60376  0.02562  0.45229  1.0000
  H   H786      1.0  0.62710  0.02376  0.41145  1.0000
  H   H787      1.0  0.36817  0.05776  0.36121  1.0000
  C   C496      1.0  0.64686  0.02287  0.40643  1.0000
  H   H788      1.0  0.56371  0.01803  0.40931  1.0000
  N   N49       1.0  0.46760  0.12451  0.44957  1.0000
  C   C497      1.0  0.45787  0.13264  0.46406  1.0000
  H   H789      1.0  0.37488  0.16063  0.34652  1.0000
  C   C498      1.0  0.45689  0.10198  0.44787  1.0000
  H   H790      1.0  0.64747  0.13998  0.36242  1.0000
  H   H791      1.0  0.38517  0.02936  0.36893  1.0000
  C   C499      1.0  0.38973  0.09348  0.47145  1.0000
  C   C500      1.0  0.35188  0.13463  0.34170  1.0000
  H   H792      1.0  0.40677  0.09134  0.36440  1.0000
  H   H793      1.0  0.44796  0.04863  0.35693  1.0000
  C   C501      1.0  0.37770  0.18244  0.24042  1.0000
  H   H794      1.0  0.66459  0.21210  0.28928  1.0000
  H   H795      1.0  0.46124  0.11736  0.47315  1.0000
  H   H796      1.0  0.64579  0.16263  0.31879  1.0000
  H   H797      1.0  0.40882  0.02540  0.34420  1.0000
  H   H798      1.0  0.65520  0.03738  0.41067  1.0000
  H   H799      1.0  0.41390  0.03488  0.41148  1.0000
  H   H800      1.0  0.43980  0.14947  0.43850  1.0000
  C   C502      1.0  0.35282  0.11462  0.37127  1.0000
  H   H801      1.0  0.50279  0.11147  0.43791  1.0000
  N   N50       1.0  0.40811  0.05576  0.35668  1.0000
  C   C503      1.0  0.43041  0.04408  0.36375  1.0000
  C   C504      1.0  0.40871  0.04599  0.34256  1.0000
  H   H802      1.0  0.64206  0.06660  0.38922  1.0000
  C   C505      1.0  0.38532  0.04983  0.36638  1.0000
  Fe  Fe102     1.0  0.64363  0.09309  0.41988  1.0000
  H   H803      1.0  0.39207  0.05445  0.33696  1.0000
  H   H804      1.0  0.39170  0.09238  0.34833  1.0000
  C   C506      1.0  0.40683  0.02220  0.40566  1.0000
  H   H805      1.0  0.42513  0.08828  0.34699  1.0000
  H   H806      1.0  0.35230  0.00409  0.40007  1.0000
  S   S196      1.0  0.62837  0.13484  0.46662  1.0000
  H   H807      1.0  0.46348  0.09561  0.43692  1.0000
  C   C507      1.0  0.57656  0.00906  0.41696  1.0000
  H   H808      1.0  0.62257  0.20346  0.32439  1.0000
  C   C508      1.0  0.63781  0.00671  0.38515  1.0000
  H   H809      1.0  0.37075  0.12219  0.25331  1.0000
  H   H810      1.0  0.39360  0.15114  0.47983  1.0000
  H   H811      1.0  0.50407  0.13559  0.44881  1.0000
  C   C509      1.0  0.58049  0.02137  0.42857  1.0000
  H   H812      1.0  0.63524  0.23178  0.31706  1.0000
  H   H813      1.0  0.64478  0.12139  0.38850  1.0000
  C   C510      1.0  0.36496  0.14498  0.35091  1.0000
  H   H814      1.0  0.37226  0.20109  0.24341  1.0000
  H   H815      1.0  0.43022  0.05050  0.37463  1.0000
  S   S197      1.0  0.34655  0.10119  0.29316  1.0000
  H   H816      1.0  0.63954  0.00845  0.37296  1.0000
  H   H817      1.0  0.46735  0.13926  0.42683  1.0000
  C   C511      1.0  0.46049  0.14472  0.43792  1.0000
  S   S198      1.0  0.64521  0.07766  0.44357  1.0000
  H   H818      1.0  0.63551  0.08167  0.47581  1.0000
  H   H819      1.0  0.36233  0.00516  0.44238  1.0000
  N   N51       1.0  0.65909  0.19817  0.31224  1.0000
  H   H820      1.0  0.66177  0.18668  0.33522  1.0000
  H   H821      1.0  0.46201  0.08622  0.45636  1.0000
  H   H822      1.0  0.46831  0.16201  0.43880  1.0000
  H   H823      1.0  0.61451  0.05216  0.38976  1.0000
  C   C512      1.0  0.63403  0.21258  0.31481  1.0000
  H   H824      1.0  0.61757  0.00738  0.38924  1.0000
  C   C513      1.0  0.59706  0.00980  0.43851  1.0000
  H   H825      1.0  0.46659  0.14879  0.46603  1.0000
  N   N52       1.0  0.64865  0.02668  0.39023  1.0000
  H   H826      1.0  0.63596  0.05485  0.37319  1.0000
  H   H827      1.0  0.43738  0.13862  0.46484  1.0000
  C   C514      1.0  0.37219  0.00446  0.39946  1.0000
  H   H828      1.0  0.65558  0.19323  0.25225  1.0000
  H   H829      1.0  0.44351  0.00647  0.39687  1.0000
  C   C515      1.0  0.65651  0.17288  0.30933  1.0000
  C   C516      1.0  0.42363  0.00593  0.39751  1.0000
  C   C517      1.0  0.33928  0.11423  0.34730  1.0000
  C   C518      1.0  0.33947  0.10456  0.36215  1.0000
  H   H830      1.0  0.66351  0.10126  0.27141  1.0000
  H   H831      1.0  0.65308  0.07641  0.26407  1.0000
  H   H832      1.0  0.66058  0.09855  0.23887  1.0000
  C   C519      1.0  0.66983  0.08339  0.26672  1.0000
  N   N53       1.0  0.55844  0.09826  0.51960  1.0000
  S   S199      1.0  0.60773  0.09003  0.59201  1.0000
  C   C520      1.0  0.35535  0.02707  0.63245  1.0000
  Fe  Fe103     1.0  0.63119  0.08434  0.55052  1.0000
  S   S200      1.0  0.59163  0.08139  0.56022  1.0000
  H   H833      1.0  0.40312  0.02126  0.52788  1.0000
  Fe  Fe104     1.0  0.59480  0.11357  0.57185  1.0000
  S   S201      1.0  0.56381  0.14567  0.57270  1.0000
  Fe  Fe105     1.0  0.60837  0.05812  0.57913  1.0000
  H   H834      1.0  0.56556  0.05869  0.51857  1.0000
  S   S202      1.0  0.63333  0.11897  0.56055  1.0000
  C   C521      1.0  0.60507  0.01566  0.55777  1.0000
  Fe  Fe106     1.0  0.34540  0.09479  0.66679  1.0000
  Fe  Fe107     1.0  0.44857  0.11267  0.54428  1.0000
  S   S203      1.0  0.40803  0.12445  0.54146  1.0000
  S   S204      1.0  0.47532  0.14054  0.53647  1.0000
  Fe  Fe108     1.0  0.44023  0.06077  0.55766  1.0000
  S   S205      1.0  0.39914  0.06835  0.55633  1.0000
  C   C522      1.0  0.35136  0.14632  0.72483  1.0000
  Fe  Fe109     1.0  0.40983  0.08716  0.53360  1.0000
  S   S206      1.0  0.39354  0.07467  0.51509  1.0000
  Fe  Fe110     1.0  0.40130  0.10455  0.56438  1.0000
  S   S207      1.0  0.37244  0.12215  0.58121  1.0000
  S   S208      1.0  0.45104  0.07717  0.53450  1.0000
  S   S209      1.0  0.44177  0.09538  0.56766  1.0000
  C   C523      1.0  0.39334  0.09213  0.49753  1.0000
  H   H835      1.0  0.62948  0.14952  0.49515  1.0000
  S   S210      1.0  0.37767  0.08675  0.64913  1.0000
  C   C524      1.0  0.39472  0.11773  0.49538  1.0000
  H   H836      1.0  0.39638  0.12724  0.50459  1.0000
  C   C525      1.0  0.37362  0.11162  0.60004  1.0000
  C   C526      1.0  0.39329  0.09424  0.60481  1.0000
  C   C527      1.0  0.39432  0.08691  0.61989  1.0000
  H   H837      1.0  0.40778  0.08650  0.59687  1.0000
  H   H838      1.0  0.40969  0.07356  0.62347  1.0000
  C   C528      1.0  0.53099  0.09904  0.52171  1.0000
  C   C529      1.0  0.56557  0.11650  0.52804  1.0000
  C   C530      1.0  0.65467  0.10702  0.61769  1.0000
  S   S211      1.0  0.45478  0.02199  0.56678  1.0000
  C   C531      1.0  0.53919  0.14335  0.56289  1.0000
  C   C532      1.0  0.53121  0.16355  0.55284  1.0000
  C   C533      1.0  0.51177  0.16225  0.54473  1.0000
  C   C534      1.0  0.49960  0.14107  0.54694  1.0000
  C   C535      1.0  0.50714  0.12092  0.55721  1.0000
  C   C536      1.0  0.52717  0.12195  0.56507  1.0000
  H   H839      1.0  0.54040  0.18011  0.55116  1.0000
  H   H840      1.0  0.50603  0.17785  0.53680  1.0000
  H   H841      1.0  0.49783  0.10445  0.55895  1.0000
  H   H842      1.0  0.53321  0.10634  0.57292  1.0000
  C   C537      1.0  0.63846  0.08943  0.51138  1.0000
  H   H843      1.0  0.43289  0.14964  0.56014  1.0000
  H   H844      1.0  0.64614  0.03448  0.65360  1.0000
  H   H845      1.0  0.52143  0.11808  0.51836  1.0000
  S   S212      1.0  0.36813  0.09942  0.71648  1.0000
  H   H846      1.0  0.37385  0.02873  0.50925  1.0000
  H   H847      1.0  0.63561  0.11540  0.63879  1.0000
  H   H848      1.0  0.63764  0.10845  0.61272  1.0000
  H   H849      1.0  0.58761  0.10422  0.50193  1.0000
  H   H850      1.0  0.61327  0.03270  0.55630  1.0000
  N   N54       1.0  0.41891  0.11679  0.67961  1.0000
  C   C538      1.0  0.41230  0.12709  0.66481  1.0000
  C   C539      1.0  0.44635  0.11323  0.67937  1.0000
  C   C540      1.0  0.40954  0.09253  0.68400  1.0000
  C   C541      1.0  0.40747  0.13419  0.69027  1.0000
  H   H851      1.0  0.39172  0.12991  0.66459  1.0000
  H   H852      1.0  0.42029  0.11421  0.65654  1.0000
  H   H853      1.0  0.41907  0.14540  0.66107  1.0000
  H   H854      1.0  0.45189  0.10540  0.69038  1.0000
  H   H855      1.0  0.45553  0.10013  0.67146  1.0000
  H   H856      1.0  0.45409  0.13119  0.67611  1.0000
  H   H857      1.0  0.41405  0.08412  0.69514  1.0000
  H   H858      1.0  0.41730  0.07898  0.67609  1.0000
  H   H859      1.0  0.38892  0.09471  0.68446  1.0000
  H   H860      1.0  0.41192  0.12685  0.70158  1.0000
  H   H861      1.0  0.38672  0.13711  0.69089  1.0000
  H   H862      1.0  0.41397  0.15278  0.68734  1.0000
  S   S213      1.0  0.64266  0.07099  0.52825  1.0000
  H   H863      1.0  0.52394  0.09380  0.53343  1.0000
  H   H864      1.0  0.55862  0.12362  0.49959  1.0000
  C   C542      1.0  0.63196  0.12936  0.49621  1.0000
  H   H865      1.0  0.44254  0.17960  0.55447  1.0000
  C   C543      1.0  0.41855  0.15559  0.58851  1.0000
  H   H866      1.0  0.41034  0.17682  0.56142  1.0000
  H   H867      1.0  0.55717  0.13586  0.52441  1.0000
  C   C544      1.0  0.63486  0.11549  0.51002  1.0000
  H   H868      1.0  0.41244  0.20491  0.57998  1.0000
  H   H869      1.0  0.35047  0.04364  0.52178  1.0000
  H   H870      1.0  0.46350  0.02555  0.53535  1.0000
  C   C545      1.0  0.43201  0.19604  0.58094  1.0000
  H   H871      1.0  0.37951  0.03630  0.54025  1.0000
  C   C546      1.0  0.43006  0.16906  0.56284  1.0000
  H   H872      1.0  0.64159  0.05723  0.49996  1.0000
  H   H873      1.0  0.47515  0.16896  0.57135  1.0000
  C   C547      1.0  0.35486  0.12137  0.61048  1.0000
  Fe  Fe111     1.0  0.64616  0.09315  0.58011  1.0000
  H   H874      1.0  0.56409  0.06756  0.53664  1.0000
  C   C548      1.0  0.35572  0.11382  0.62559  1.0000
  C   C549      1.0  0.65357  0.11100  0.63245  1.0000
  S   S214      1.0  0.59603  0.02076  0.58711  1.0000
  H   H875      1.0  0.34373  0.01804  0.51341  1.0000
  H   H876      1.0  0.43605  0.19738  0.59221  1.0000
  H   H877      1.0  0.36776  0.04156  0.63232  1.0000
  C   C550      1.0  0.36861  0.12475  0.72635  1.0000
  C   C551      1.0  0.63541  0.09121  0.48526  1.0000
  H   H878      1.0  0.58620  0.11615  0.52689  1.0000
  C   C552      1.0  0.57023  0.07296  0.52479  1.0000
  H   H879      1.0  0.52484  0.08597  0.51523  1.0000
  H   H880      1.0  0.46669  0.15897  0.59047  1.0000
  H   H881      1.0  0.46507  0.13901  0.57697  1.0000
  C   C553      1.0  0.56702  0.10458  0.50385  1.0000
  C   C554      1.0  0.46175  0.15875  0.57926  1.0000
  H   H882      1.0  0.42091  0.13571  0.58658  1.0000
  H   H883      1.0  0.38956  0.06033  0.48710  1.0000
  S   S215      1.0  0.64777  0.05904  0.56895  1.0000
  N   N55       1.0  0.43560  0.16986  0.57790  1.0000
  H   H884      1.0  0.42191  0.15591  0.60003  1.0000
  C   C555      1.0  0.37555  0.09663  0.63032  1.0000
  H   H885      1.0  0.44458  0.20730  0.57307  1.0000
  H   H886      1.0  0.39859  0.16308  0.58759  1.0000
  H   H887      1.0  0.59096  0.07178  0.52353  1.0000
  C   C556      1.0  0.38702  0.01799  0.53640  1.0000
  H   H888      1.0  0.55918  0.11245  0.53993  1.0000
  H   H889      1.0  0.56219  0.09116  0.49709  1.0000
  C   C557      1.0  0.63878  0.07739  0.49896  1.0000
  C   C558      1.0  0.39076  0.08010  0.48552  1.0000
  H   H890      1.0  0.35009  0.04627  0.65761  1.0000
  C   C559      1.0  0.45524  0.00883  0.53946  1.0000
  C   C560      1.0  0.35842  0.02517  0.51819  1.0000
  C   C561      1.0  0.59507  0.00575  0.57174  1.0000
  S   S216      1.0  0.34815  0.06719  0.68701  1.0000
  N   N56       1.0  0.36766  0.00752  0.53048  1.0000
  H   H891      1.0  0.63478  0.12490  0.51953  1.0000
  H   H892      1.0  0.35198  0.02683  0.62091  1.0000
  Fe  Fe112     1.0  0.34114  0.10007  0.69972  1.0000
  C   C562      1.0  0.63221  0.11724  0.48380  1.0000
  H   H893      1.0  0.60490  0.00356  0.48474  1.0000
  S   S217      1.0  0.34121  0.12743  0.67937  1.0000
  H   H894      1.0  0.65837  0.04054  0.66960  1.0000
  C   C563      1.0  0.39305  0.13124  0.48136  1.0000
  H   H895      1.0  0.61372  0.01059  0.53492  1.0000
  H   H896      1.0  0.33834  0.02121  0.54651  1.0000
  H   H897      1.0  0.36584  0.00871  0.63619  1.0000
  C   C564      1.0  0.60549  0.00300  0.54562  1.0000
  C   C565      1.0  0.66121  0.04268  0.65738  1.0000
  H   H898      1.0  0.65865  0.06306  0.65356  1.0000
  C   C566      1.0  0.44948  0.00238  0.55456  1.0000
  H   H899      1.0  0.34608  0.01403  0.66190  1.0000
  C   C567      1.0  0.34681  0.00344  0.54219  1.0000
  H   H900      1.0  0.34120  0.12151  0.63353  1.0000
  H   H901      1.0  0.33961  0.13487  0.60687  1.0000
  H   H902      1.0  0.66715  0.18730  0.72611  1.0000
  H   H903      1.0  0.39438  0.00544  0.54580  1.0000
  Fe  Fe113     1.0  0.60835  0.21337  0.80275  1.0000
  S   S218      1.0  0.63274  0.17748  0.79881  1.0000
  S   S219      1.0  0.56738  0.21063  0.81042  1.0000
  H   H904      1.0  0.61362  0.13192  0.76626  1.0000
  Fe  Fe114     1.0  0.65340  0.20067  0.78036  1.0000
  H   H905      1.0  0.45823  0.27710  0.77123  1.0000
  H   H906      1.0  0.38451  0.12301  0.77553  1.0000
  C   C568      1.0  0.61542  0.15206  0.76336  1.0000
  H   H907      1.0  0.57445  0.14017  0.75442  1.0000
  H   H908      1.0  0.39036  0.11591  0.79446  1.0000
  S   S220      1.0  0.62733  0.23611  0.78359  1.0000
  S   S221      1.0  0.63205  0.22355  0.81836  1.0000
  Fe  Fe115     1.0  0.61111  0.11038  0.90852  1.0000
  S   S222      1.0  0.62024  0.06887  0.91013  1.0000
  H   H909      1.0  0.58811  0.16262  0.74076  1.0000
  Fe  Fe116     1.0  0.61958  0.11108  0.94058  1.0000
  S   S223      1.0  0.63077  0.06976  0.94454  1.0000
  S   S224      1.0  0.61005  0.13566  0.95882  1.0000
  H   H910      1.0  0.46696  0.10652  0.97932  1.0000
  N   N57       1.0  0.35221  0.13013  0.79131  1.0000
  Fe  Fe117     1.0  0.59877  0.06767  0.93249  1.0000
  S   S225      1.0  0.57308  0.03987  0.94182  1.0000
  C   C569      1.0  0.46223  0.30889  0.79025  1.0000
  S   S226      1.0  0.58576  0.10855  0.92983  1.0000
  Fe  Fe118     1.0  0.44322  0.20826  0.77823  1.0000
  S   S227      1.0  0.42792  0.17230  0.77806  1.0000
  S   S228      1.0  0.48215  0.21754  0.76925  1.0000
  Fe  Fe119     1.0  0.39311  0.23514  0.79018  1.0000
  S   S229      1.0  0.37352  0.20152  0.79164  1.0000
  S   S230      1.0  0.37825  0.27467  0.79478  1.0000
  Fe  Fe120     1.0  0.40795  0.17985  0.80033  1.0000
  S   S231      1.0  0.40446  0.14594  0.81725  1.0000
  Fe  Fe121     1.0  0.39434  0.19578  0.76940  1.0000
  S   S232      1.0  0.37007  0.18991  0.75243  1.0000
  S   S233      1.0  0.42581  0.21399  0.80111  1.0000
  S   S234      1.0  0.41149  0.23114  0.76734  1.0000
  Fe  Fe122     1.0  0.40806  0.06473  0.91721  1.0000
  S   S235      1.0  0.38271  0.03529  0.92424  1.0000
  Fe  Fe123     1.0  0.46138  0.07013  0.90493  1.0000
  S   S236      1.0  0.45744  0.10931  0.90974  1.0000
  S   S237      1.0  0.49869  0.05409  0.89439  1.0000
  Fe  Fe124     1.0  0.43717  0.09582  0.93145  1.0000
  H   H911      1.0  0.54103  0.10889  0.86243  1.0000
  Fe  Fe125     1.0  0.42099  0.11368  0.90054  1.0000
  S   S238      1.0  0.41443  0.14886  0.88459  1.0000
  S   S239      1.0  0.44382  0.05596  0.92722  1.0000
  S   S240      1.0  0.42639  0.07484  0.89429  1.0000
  C   C570      1.0  0.43622  0.09931  0.96907  1.0000
  H   H912      1.0  0.50661  0.11765  0.95605  1.0000
  C   C571      1.0  0.64832  0.07999  0.86647  1.0000
  C   C572      1.0  0.40796  0.14705  0.83583  1.0000
  C   C573      1.0  0.40962  0.16944  0.84104  1.0000
  C   C574      1.0  0.41166  0.16971  0.85600  1.0000
  C   C575      1.0  0.41227  0.14761  0.86583  1.0000
  C   C576      1.0  0.41087  0.12520  0.86057  1.0000
  C   C577      1.0  0.40862  0.12495  0.84565  1.0000
  H   H913      1.0  0.40899  0.18660  0.83362  1.0000
  H   H914      1.0  0.41110  0.10812  0.86802  1.0000
  H   H915      1.0  0.40728  0.10757  0.84173  1.0000
  H   H916      1.0  0.52671  0.15458  0.95872  1.0000
  C   C578      1.0  0.41203  0.09269  0.97149  1.0000
  H   H917      1.0  0.35678  0.12443  0.81431  1.0000
  H   H918      1.0  0.40044  0.10668  0.73700  1.0000
  C   C579      1.0  0.37052  0.16465  0.74235  1.0000
  H   H919      1.0  0.60638  0.19723  0.74858  1.0000
  C   C580      1.0  0.61008  0.15161  0.85922  1.0000
  H   H920      1.0  0.64007  0.06878  0.85976  1.0000
  H   H921      1.0  0.40230  0.14198  0.75089  1.0000
  C   C581      1.0  0.37932  0.12898  0.78666  1.0000
  C   C582      1.0  0.55228  0.04207  0.92890  1.0000
  C   C583      1.0  0.52747  0.05227  0.93232  1.0000
  C   C584      1.0  0.51119  0.05624  0.92161  1.0000
  C   C585      1.0  0.51942  0.04933  0.90761  1.0000
  C   C586      1.0  0.54427  0.03904  0.90418  1.0000
  C   C587      1.0  0.56082  0.03569  0.91480  1.0000
  H   H922      1.0  0.52098  0.05777  0.94310  1.0000
  H   H923      1.0  0.49242  0.06517  0.92420  1.0000
  H   H924      1.0  0.53444  0.08741  0.87859  1.0000
  H   H925      1.0  0.58016  0.02810  0.91211  1.0000
  H   H926      1.0  0.42540  0.26712  0.80902  1.0000
  Fe  Fe126     1.0  0.65392  0.24265  0.79874  1.0000
  H   H927      1.0  0.62614  0.15745  0.77149  1.0000
  H   H928      1.0  0.62711  0.15431  0.75251  1.0000
  S   S241      1.0  0.64425  0.11617  0.91891  1.0000
  H   H929      1.0  0.47338  0.01532  0.91145  1.0000
  C   C588      1.0  0.54410  0.21258  0.79872  1.0000
  C   C589      1.0  0.54713  0.22386  0.78419  1.0000
  C   C590      1.0  0.52810  0.22498  0.77521  1.0000
  C   C591      1.0  0.50590  0.21496  0.78071  1.0000
  C   C592      1.0  0.50286  0.20378  0.79526  1.0000
  C   C593      1.0  0.52184  0.20273  0.80423  1.0000
  H   H930      1.0  0.56399  0.23200  0.77997  1.0000
  H   H931      1.0  0.53042  0.23394  0.76401  1.0000
  H   H932      1.0  0.48585  0.19599  0.79962  1.0000
  H   H933      1.0  0.51931  0.19410  0.81549  1.0000
  C   C594      1.0  0.65223  0.15776  0.84828  1.0000
  H   H934      1.0  0.65017  0.09841  0.85986  1.0000
  C   C595      1.0  0.64403  0.14109  0.87413  1.0000
  C   C596      1.0  0.61867  0.14211  0.87276  1.0000
  C   C597      1.0  0.38796  0.14317  0.74377  1.0000
  C   C598      1.0  0.62676  0.15953  0.84704  1.0000
  H   H935      1.0  0.48220  0.13921  0.88174  1.0000
  C   C599      1.0  0.35228  0.16610  0.73284  1.0000
  H   H936      1.0  0.64435  0.00327  0.95937  1.0000
  C   C600      1.0  0.62179  0.12657  0.97589  1.0000
  H   H937      1.0  0.64938  0.09697  0.96860  1.0000
  C   C601      1.0  0.47390  0.26508  0.79786  1.0000
  S   S242      1.0  0.39974  0.10412  0.92294  1.0000
  H   H938      1.0  0.44695  0.32381  0.78710  1.0000
  H   H939      1.0  0.59048  0.15268  0.85807  1.0000
  C   C602      1.0  0.59432  0.19406  0.75923  1.0000
  H   H940      1.0  0.55665  0.13862  0.95229  1.0000
  H   H941      1.0  0.55675  0.17442  0.77756  1.0000
  C   C603      1.0  0.39056  0.00986  0.91418  1.0000
  C   C604      1.0  0.66923  0.22047  0.85254  1.0000
  H   H942      1.0  0.46966  0.31413  0.79980  1.0000
  H   H943      1.0  0.41686  0.29956  0.80349  1.0000
  H   H944      1.0  0.65555  0.21687  0.84551  1.0000
  H   H945      1.0  0.51143  0.00203  0.89499  1.0000
  H   H946      1.0  0.64672  0.02265  0.91945  1.0000
  H   H947      1.0  0.46762  0.24635  0.80051  1.0000
  S   S243      1.0  0.66510  0.28092  0.79952  1.0000
  H   H948      1.0  0.60360  0.20058  0.76766  1.0000
  Fe  Fe127     1.0  0.65170  0.07416  0.92193  1.0000
  C   C605      1.0  0.64130  0.10705  0.97773  1.0000
  C   C606      1.0  0.39301  0.01334  0.89884  1.0000
  H   H949      1.0  0.63457  0.08338  0.87631  1.0000
  H   H950      1.0  0.35192  0.32456  0.79328  1.0000
  Fe  Fe128     1.0  0.65759  0.18910  0.81329  1.0000
  H   H951      1.0  0.57393  0.14407  0.78121  1.0000
  C   C607      1.0  0.54304  0.14143  0.96222  1.0000
  H   H952      1.0  0.66222  0.25734  0.83027  1.0000
  H   H953      1.0  0.55872  0.17146  0.75139  1.0000
  S   S244      1.0  0.45200  0.10555  0.95127  1.0000
  C   C608      1.0  0.43293  0.28526  0.80620  1.0000
  H   H954      1.0  0.43656  0.25986  0.78313  1.0000
  H   H955      1.0  0.47749  0.30880  0.78091  1.0000
  H   H956      1.0  0.39060  0.03201  0.89304  1.0000
  H   H957      1.0  0.50063  0.13504  0.97992  1.0000
  H   H958      1.0  0.62628  0.00858  0.94418  1.0000
  N   N58       1.0  0.52160  0.12588  0.88107  1.0000
  C   C609      1.0  0.52944  0.15059  0.87562  1.0000
  C   C610      1.0  0.49661  0.12502  0.87683  1.0000
  C   C611      1.0  0.52064  0.12156  0.89723  1.0000
  C   C612      1.0  0.53979  0.10630  0.87461  1.0000
  H   H959      1.0  0.51601  0.16578  0.88024  1.0000
  H   H960      1.0  0.53067  0.15440  0.86344  1.0000
  H   H961      1.0  0.54815  0.15193  0.87874  1.0000
  H   H962      1.0  0.55076  0.03384  0.89332  1.0000
  H   H963      1.0  0.49653  0.12857  0.86472  1.0000
  H   H964      1.0  0.49030  0.10646  0.88055  1.0000
  H   H965      1.0  0.51486  0.10303  0.90169  1.0000
  H   H966      1.0  0.50702  0.13587  0.90254  1.0000
  H   H967      1.0  0.53926  0.12203  0.90076  1.0000
  H   H968      1.0  0.61161  0.01512  0.96193  1.0000
  H   H969      1.0  0.55883  0.10645  0.87762  1.0000
  N   N59       1.0  0.45314  0.28438  0.79379  1.0000
  H   H970      1.0  0.41261  0.18714  0.85999  1.0000
  C   C613      1.0  0.57593  0.16403  0.77763  1.0000
  C   C614      1.0  0.44349  0.27822  0.78081  1.0000
  H   H971      1.0  0.55241  0.15070  0.96948  1.0000
  N   N60       1.0  0.59077  0.16755  0.76304  1.0000
  H   H972      1.0  0.53659  0.10159  0.94968  1.0000
  H   H973      1.0  0.61990  0.16663  0.83664  1.0000
  H   H974      1.0  0.58468  0.17083  0.78620  1.0000
  N   N61       1.0  0.53552  0.11754  0.96973  1.0000
  H   H975      1.0  0.48943  0.26379  0.78871  1.0000
  H   H976      1.0  0.51756  0.08760  0.96505  1.0000
  C   C615      1.0  0.57743  0.16010  0.75190  1.0000
  H   H977      1.0  0.42748  0.29211  0.77752  1.0000
  C   C616      1.0  0.38693  0.12327  0.73583  1.0000
  H   H978      1.0  0.40258  0.09101  0.96224  1.0000
  S   S245      1.0  0.59738  0.13081  0.88749  1.0000
  H   H979      1.0  0.43950  0.28965  0.81624  1.0000
  H   H980      1.0  0.48173  0.26895  0.80762  1.0000
  H   H981      1.0  0.47232  0.01914  0.88447  1.0000
  H   H982      1.0  0.44677  0.00130  0.88720  1.0000
  H   H983      1.0  0.38545  0.14752  0.78626  1.0000
  H   H984      1.0  0.35474  0.09101  0.79904  1.0000
  C   C617      1.0  0.34634  0.28625  0.79375  1.0000
  C   C618      1.0  0.66078  0.14870  0.86189  1.0000
  H   H985      1.0  0.57621  0.20626  0.75832  1.0000
  H   H986      1.0  0.65074  0.13425  0.88459  1.0000
  H   H987      1.0  0.35219  0.15629  0.80659  1.0000
  C   C619      1.0  0.55785  0.10089  0.97424  1.0000
  H   H988      1.0  0.57179  0.09691  0.96459  1.0000
  C   C620      1.0  0.66354  0.01119  0.91562  1.0000
  C   C621      1.0  0.52358  0.10562  0.95968  1.0000
  H   H989      1.0  0.66259  0.03051  0.87154  1.0000
  H   H990      1.0  0.65853  0.23018  0.86169  1.0000
  H   H991      1.0  0.34274  0.14353  0.76953  1.0000
  C   C622      1.0  0.34647  0.13771  0.80624  1.0000
  H   H992      1.0  0.66852  0.08492  0.89037  1.0000
  C   C623      1.0  0.34461  0.10531  0.79139  1.0000
  H   H993      1.0  0.66525  0.27045  0.84648  1.0000
  H   H994      1.0  0.34394  0.16746  0.78055  1.0000
  H   H995      1.0  0.65628  0.04337  0.88864  1.0000
  C   C624      1.0  0.33839  0.31200  0.79331  1.0000
  H   H996      1.0  0.34870  0.09912  0.78026  1.0000
  C   C625      1.0  0.33857  0.14851  0.78094  1.0000
  S   S246      1.0  0.65871  0.19525  0.75621  1.0000
  C   C626      1.0  0.62579  0.00186  0.95611  1.0000
  C   C627      1.0  0.44828  0.10150  0.98112  1.0000
  H   H997      1.0  0.55290  0.08277  0.98010  1.0000
  C   C628      1.0  0.66967  0.04226  0.87847  1.0000
  H   H998      1.0  0.33874  0.18268  0.73166  1.0000
  Fe  Fe129     1.0  0.64213  0.80011  0.19439  1.0000
  S   S247      1.0  0.64537  0.76028  0.18982  1.0000
  Fe  Fe130     1.0  0.63528  0.82029  0.16230  1.0000
  S   S248      1.0  0.63951  0.78206  0.15543  1.0000
  H   H999      1.0  0.56920  0.85477  0.13077  1.0000
  Fe  Fe131     1.0  0.61368  0.77345  0.17619  1.0000
  S   S249      1.0  0.58300  0.75030  0.17452  1.0000
  S   S250      1.0  0.60798  0.81227  0.18249  1.0000
  Fe  Fe132     1.0  0.57449  0.93861  0.04845  1.0000
  S   S251      1.0  0.53695  0.96038  0.04546  1.0000
  S   S252      1.0  0.58867  0.93379  0.07036  1.0000
  S   S253      1.0  0.60888  0.95146  0.03547  1.0000
  Fe  Fe133     1.0  0.43220  0.78067  0.17532  1.0000
  S   S254      1.0  0.40365  0.81495  0.17415  1.0000
  S   S255      1.0  0.46706  0.79230  0.18196  1.0000
  Fe  Fe134     1.0  0.39390  0.74852  0.16922  1.0000
  S   S256      1.0  0.36361  0.78089  0.16743  1.0000
  S   S257      1.0  0.38507  0.70896  0.16949  1.0000
  Fe  Fe135     1.0  0.39341  0.80185  0.15423  1.0000
  S   S258      1.0  0.38297  0.83221  0.13579  1.0000
  Fe  Fe136     1.0  0.37660  0.79125  0.18737  1.0000
  N   N62       1.0  0.55293  0.82487  0.14443  1.0000
  S   S259      1.0  0.42344  0.76870  0.15444  1.0000
  S   S260      1.0  0.40540  0.75774  0.19006  1.0000
  Fe  Fe137     1.0  0.40879  0.91472  0.04103  1.0000
  S   S261      1.0  0.39107  0.87975  0.04782  1.0000
  S   S262      1.0  0.39043  0.95241  0.04662  1.0000
  Fe  Fe138     1.0  0.45322  0.88905  0.02357  1.0000
  S   S263      1.0  0.44031  0.85154  0.02887  1.0000
  S   S264      1.0  0.48930  0.89540  0.00972  1.0000
  Fe  Fe139     1.0  0.40294  0.87229  0.02441  1.0000
  S   S265      1.0  0.37654  0.85444  0.01391  1.0000
  Fe  Fe140     1.0  0.42951  0.86147  0.05187  1.0000
  S   S266      1.0  0.43911  0.83195  0.07074  1.0000
  S   S267      1.0  0.41675  0.90917  0.01720  1.0000
  S   S268      1.0  0.44640  0.89695  0.04694  1.0000
  C   C629      1.0  0.39901  0.83207  0.11780  1.0000
  C   C630      1.0  0.41798  0.81291  0.11420  1.0000
  C   C631      1.0  0.43023  0.81327  0.09977  1.0000
  C   C632      1.0  0.42370  0.83277  0.08882  1.0000
  C   C633      1.0  0.40478  0.85199  0.09241  1.0000
  C   C634      1.0  0.39246  0.85159  0.10684  1.0000
  H   H1000     1.0  0.42318  0.79777  0.12252  1.0000
  H   H1001     1.0  0.44481  0.79829  0.09709  1.0000
  H   H1002     1.0  0.39960  0.86717  0.08410  1.0000
  H   H1003     1.0  0.37783  0.86651  0.10953  1.0000
  H   H1004     1.0  0.50996  0.92511  0.06539  1.0000
  H   H1005     1.0  0.38815  0.80503  0.07923  1.0000
  C   C635      1.0  0.34907  0.72721  0.20215  1.0000
  H   H1006     1.0  0.56503  0.82970  0.12123  1.0000
  H   H1007     1.0  0.54222  0.79511  0.13483  1.0000
  H   H1008     1.0  0.38079  0.89612  0.16455  1.0000
  S   S269      1.0  0.66871  0.81151  0.17479  1.0000
  C   C636      1.0  0.53516  0.80742  0.14351  1.0000
  H   H1009     1.0  0.65929  0.87668  0.10417  1.0000
  H   H1010     1.0  0.36486  0.66243  0.17582  1.0000
  H   H1011     1.0  0.41544  0.79426  0.05676  1.0000
  H   H1012     1.0  0.60966  0.89704  0.12659  1.0000
  H   H1013     1.0  0.53209  0.79506  0.15400  1.0000
  H   H1014     1.0  0.43607  0.97888  0.02743  1.0000
  C   C637      1.0  0.55654  0.84087  0.13026  1.0000
  H   H1015     1.0  0.34151  0.90671  0.15319  1.0000
  H   H1016     1.0  0.35550  0.81602  0.07850  1.0000
  C   C638      1.0  0.42255  0.98878  0.00058  1.0000
  H   H1017     1.0  0.61859  0.82015  0.10276  1.0000
  H   H1018     1.0  0.59084  0.82311  0.14880  1.0000
  C   C639      1.0  0.40841  0.97007  0.05435  1.0000
  H   H1019     1.0  0.63716  0.92505  0.08634  1.0000
  H   H1020     1.0  0.38361  0.76737  0.06829  1.0000
  H   H1021     1.0  0.48753  0.86855  0.08718  1.0000
  C   C640      1.0  0.44605  0.97455  0.06444  1.0000
  C   C641      1.0  0.43096  0.95948  0.05961  1.0000
  C   C642      1.0  0.60803  0.99657  0.07802  1.0000
  H   H1022     1.0  0.41135  0.87170  0.98829  1.0000
  H   H1023     1.0  0.49104  0.91365  0.08163  1.0000
  H   H1024     1.0  0.43671  0.93975  0.06007  1.0000
  C   C643      1.0  0.52358  0.94675  0.03307  1.0000
  C   C644      1.0  0.49761  0.94870  0.03382  1.0000
  C   C645      1.0  0.48693  0.93402  0.02585  1.0000
  C   C646      1.0  0.50224  0.91743  0.01716  1.0000
  C   C647      1.0  0.52816  0.91694  0.01555  1.0000
  C   C648      1.0  0.53881  0.93167  0.02350  1.0000
  H   H1025     1.0  0.48580  0.96062  0.04109  1.0000
  H   H1026     1.0  0.46685  0.93508  0.02671  1.0000
  H   H1027     1.0  0.54007  0.90429  0.00878  1.0000
  H   H1028     1.0  0.55886  0.93076  0.02262  1.0000
  C   C649      1.0  0.55061  0.76107  0.17752  1.0000
  C   C650      1.0  0.53346  0.74842  0.17250  1.0000
  C   C651      1.0  0.50770  0.75742  0.17392  1.0000
  C   C652      1.0  0.49888  0.77904  0.18052  1.0000
  C   C653      1.0  0.51599  0.79133  0.18582  1.0000
  C   C654      1.0  0.54171  0.78245  0.18431  1.0000
  H   H1029     1.0  0.54019  0.73177  0.16730  1.0000
  H   H1030     1.0  0.49473  0.74772  0.16985  1.0000
  H   H1031     1.0  0.50930  0.80793  0.19107  1.0000
  H   H1032     1.0  0.55464  0.79214  0.18842  1.0000
  H   H1033     1.0  0.38392  0.83332  0.20605  1.0000
  H   H1034     1.0  0.58545  0.79851  0.13916  1.0000
  C   C655      1.0  0.36979  0.83589  0.21532  1.0000
  H   H1035     1.0  0.60161  0.97905  0.08266  1.0000
  C   C656      1.0  0.37435  0.81579  0.07211  1.0000
  C   C657      1.0  0.51828  0.88224  0.05313  1.0000
  H   H1036     1.0  0.36091  0.83982  0.04645  1.0000
  H   H1037     1.0  0.51655  0.81744  0.14117  1.0000
  C   C658      1.0  0.53309  0.88130  0.07655  1.0000
  C   C659      1.0  0.49377  0.86683  0.07538  1.0000
  C   C660      1.0  0.37154  0.85320  0.22489  1.0000
  H   H1038     1.0  0.46248  0.98796  0.01519  1.0000
  H   H1039     1.0  0.54604  0.89516  0.07197  1.0000
  S   S270      1.0  0.59885  0.86077  0.08263  1.0000
  S   S271      1.0  0.64798  0.80388  0.21786  1.0000
  S   S272      1.0  0.58515  0.89841  0.04482  1.0000
  H   H1040     1.0  0.63689  0.92083  0.10594  1.0000
  C   C661      1.0  0.34980  0.82192  0.21786  1.0000
  H   H1041     1.0  0.52813  0.88310  0.08843  1.0000
  H   H1042     1.0  0.54023  0.82912  0.16704  1.0000
  H   H1043     1.0  0.46359  0.96638  0.06837  1.0000
  H   H1044     1.0  0.44036  0.98055  0.99463  1.0000
  H   H1045     1.0  0.57505  0.79825  0.15835  1.0000
  C   C662      1.0  0.37000  0.77915  0.06143  1.0000
  H   H1046     1.0  0.52847  0.86335  0.05173  1.0000
  S   S273      1.0  0.62759  0.85649  0.14712  1.0000
  H   H1047     1.0  0.38558  0.86596  0.15833  1.0000
  H   H1048     1.0  0.50300  0.84739  0.07458  1.0000
  C   C663      1.0  0.54072  0.86111  0.98301  1.0000
  C   C664      1.0  0.35502  0.85161  0.98962  1.0000
  N   N63       1.0  0.37562  0.80509  0.05821  1.0000
  C   C665      1.0  0.62728  0.89939  0.99656  1.0000
  S   S274      1.0  0.34647  0.80040  0.20598  1.0000
  N   N64       1.0  0.51065  0.88527  0.06877  1.0000
  H   H1049     1.0  0.59015  0.90801  0.00740  1.0000
  C   C666      1.0  0.49757  0.91077  0.07001  1.0000
  H   H1050     1.0  0.48098  0.91477  0.06390  1.0000
  Fe  Fe141     1.0  0.60270  0.89467  0.06575  1.0000
  H   H1051     1.0  0.60376  0.98053  0.98164  1.0000
  S   S275      1.0  0.64779  0.96893  0.06353  1.0000
  H   H1052     1.0  0.50191  0.88507  0.04685  1.0000
  H   H1053     1.0  0.53081  0.89602  0.04782  1.0000
  H   H1054     1.0  0.54386  0.86248  0.07558  1.0000
  H   H1055     1.0  0.66680  0.84934  0.20267  1.0000
  H   H1056     1.0  0.47666  0.86923  0.06978  1.0000
  S   S276      1.0  0.64246  0.89920  0.01218  1.0000
  C   C667      1.0  0.57712  0.81058  0.14778  1.0000
  Fe  Fe142     1.0  0.62429  0.94312  0.05703  1.0000
  C   C668      1.0  0.62083  0.85732  0.12896  1.0000
  C   C669      1.0  0.35530  0.70113  0.16763  1.0000
  C   C670      1.0  0.37580  0.85814  0.99469  1.0000
  C   C671      1.0  0.44377  0.99506  0.02062  1.0000
  H   H1057     1.0  0.54525  0.84077  0.98639  1.0000
  C   C672      1.0  0.43882  0.00030  0.06376  1.0000
  S   S277      1.0  0.63974  0.90358  0.05401  1.0000
  H   H1058     1.0  0.35815  0.81292  0.03829  1.0000
  C   C673      1.0  0.61677  0.83701  0.10790  1.0000
  C   C674      1.0  0.60804  0.85998  0.10022  1.0000
  H   H1059     1.0  0.37872  0.83531  0.07008  1.0000
  H   H1060     1.0  0.55609  0.85390  0.15718  1.0000
  H   H1061     1.0  0.52462  0.85155  0.15415  1.0000
  H   H1062     1.0  0.40581  0.82459  0.04785  1.0000
  C   C675      1.0  0.40069  0.99565  0.05436  1.0000
  C   C676      1.0  0.66589  0.82495  0.22306  1.0000
  C   C677      1.0  0.61198  0.88029  0.12130  1.0000
  C   C678      1.0  0.60568  0.88165  0.10697  1.0000
  Fe  Fe143     1.0  0.62101  0.91094  0.03337  1.0000
  C   C679      1.0  0.60128  0.90435  0.99717  1.0000
  C   C680      1.0  0.62337  0.83569  0.12216  1.0000
  H   H1063     1.0  0.59850  0.89937  0.10126  1.0000
  C   C681      1.0  0.40099  0.80534  0.05021  1.0000
  C   C682      1.0  0.54299  0.84061  0.15619  1.0000
  H   H1064     1.0  0.53285  0.86992  0.99307  1.0000
  H   H1065     1.0  0.35947  0.70887  0.19959  1.0000
  H   H1066     1.0  0.63035  0.81792  0.12788  1.0000
  H   H1067     1.0  0.53855  0.85137  0.12718  1.0000
  H   H1068     1.0  0.37088  0.77055  0.05115  1.0000
  H   H1069     1.0  0.34841  0.73955  0.19154  1.0000
  H   H1070     1.0  0.35234  0.83853  0.16437  1.0000
  C   C683      1.0  0.35040  0.67638  0.17168  1.0000
  H   H1071     1.0  0.65784  0.88272  0.08476  1.0000
  C   C684      1.0  0.39518  0.86668  0.98446  1.0000
  H   H1072     1.0  0.38532  0.86854  0.17747  1.0000
  C   C685      1.0  0.35727  0.82009  0.04905  1.0000
  H   H1073     1.0  0.41376  0.97314  0.00738  1.0000
  H   H1074     1.0  0.49067  0.86339  0.98780  1.0000
  C   C686      1.0  0.58973  0.90434  0.98453  1.0000
  C   C687      1.0  0.63005  0.99683  0.06825  1.0000
  H   H1075     1.0  0.65020  0.94645  0.09497  1.0000
  C   C688      1.0  0.37640  0.87668  0.16745  1.0000
  C   C689      1.0  0.64815  0.92639  0.09537  1.0000
  H   H1076     1.0  0.56962  0.90836  0.98508  1.0000
  H   H1077     1.0  0.40266  0.79791  0.03949  1.0000
  H   H1078     1.0  0.35099  0.77824  0.06750  1.0000
  H   H1079     1.0  0.34562  0.88175  0.19253  1.0000
  H   H1080     1.0  0.35254  0.84069  0.18350  1.0000
  H   H1081     1.0  0.38704  0.86396  0.22289  1.0000
  H   H1082     1.0  0.36031  0.73538  0.20890  1.0000
  N   N65       1.0  0.34915  0.87587  0.16984  1.0000
  H   H1083     1.0  0.34659  0.87660  0.14686  1.0000
  C   C690      1.0  0.66914  0.88451  0.09358  1.0000
  C   C691      1.0  0.34426  0.84972  0.17345  1.0000
  C   C692      1.0  0.64162  0.89453  0.98322  1.0000
  H   H1084     1.0  0.66175  0.89057  0.98272  1.0000
  H   H1085     1.0  0.40989  0.99737  0.99226  1.0000
  H   H1086     1.0  0.34002  0.73796  0.15890  1.0000
  H   H1087     1.0  0.34002  0.84498  0.99739  1.0000
  H   H1088     1.0  0.34129  0.90977  0.17989  1.0000
  H   H1089     1.0  0.56886  0.00072  0.04412  1.0000
  C   C693      1.0  0.33781  0.88997  0.18214  1.0000
  C   C694      1.0  0.33820  0.88696  0.15629  1.0000
  Fe  Fe144     1.0  0.67066  0.77217  0.16971  1.0000
  H   H1090     1.0  0.33784  0.82023  0.05462  1.0000
  Fe  Fe145     1.0  0.59971  0.87768  0.41410  1.0000
  S   S278      1.0  0.56996  0.85362  0.42327  1.0000
  S   S279      1.0  0.59755  0.91013  0.42659  1.0000
  S   S280      1.0  0.60455  0.89978  0.39176  1.0000
  H   H1091     1.0  0.41062  0.79303  0.28881  1.0000
  S   S281      1.0  0.35676  0.87763  0.24922  1.0000
  C   C695      1.0  0.39443  0.87308  0.46102  1.0000
  C   C696      1.0  0.38185  0.85726  0.34243  1.0000
  H   H1092     1.0  0.37146  0.80149  0.27729  1.0000
  H   H1093     1.0  0.36278  0.95942  0.46610  1.0000
  Fe  Fe146     1.0  0.41822  0.89498  0.41741  1.0000
  S   S282      1.0  0.45227  0.90621  0.40310  1.0000
  S   S283      1.0  0.42422  0.90139  0.44033  1.0000
  Fe  Fe147     1.0  0.39420  0.88925  0.39013  1.0000
  S   S284      1.0  0.42678  0.90017  0.37420  1.0000
  S   S285      1.0  0.35837  0.88495  0.38136  1.0000
  Fe  Fe148     1.0  0.44983  0.87560  0.39023  1.0000
  S   S286      1.0  0.48675  0.85502  0.38191  1.0000
  Fe  Fe149     1.0  0.42668  0.92969  0.38851  1.0000
  S   S287      1.0  0.43598  0.96818  0.38060  1.0000
  S   S288      1.0  0.41740  0.86195  0.40540  1.0000
  S   S289      1.0  0.39244  0.92113  0.40349  1.0000
  H   H1094     1.0  0.64425  0.94900  0.47005  1.0000
  H   H1095     1.0  0.40336  0.98576  0.43312  1.0000
  C   C697      1.0  0.38176  0.86524  0.35622  1.0000
  C   C698      1.0  0.35932  0.87499  0.36391  1.0000
  H   H1096     1.0  0.66675  0.83160  0.43969  1.0000
  C   C699      1.0  0.38509  0.86502  0.47562  1.0000
  H   H1097     1.0  0.39927  0.84942  0.33669  1.0000
  H   H1098     1.0  0.39900  0.86341  0.36103  1.0000
  H   H1099     1.0  0.64701  0.98786  0.38918  1.0000
  C   C700      1.0  0.64785  0.82273  0.46785  1.0000
  C   C701      1.0  0.64725  0.89383  0.46343  1.0000
  H   H1100     1.0  0.61126  0.79480  0.46810  1.0000
  H   H1101     1.0  0.40907  0.84933  0.28376  1.0000
  C   C702      1.0  0.35350  0.85647  0.23710  1.0000
  N   N66       1.0  0.37288  0.96554  0.44273  1.0000
  H   H1102     1.0  0.38830  0.79613  0.25963  1.0000
  C   C703      1.0  0.37944  0.96185  0.45788  1.0000
  H   H1103     1.0  0.63679  0.98238  0.46757  1.0000
  S   S290      1.0  0.58543  0.96987  0.40058  1.0000
  H   H1104     1.0  0.38862  0.86579  0.45197  1.0000
  S   S291      1.0  0.65901  0.90417  0.44528  1.0000
  H   H1105     1.0  0.66175  0.83452  0.27475  1.0000
  H   H1106     1.0  0.38784  0.97796  0.46023  1.0000
  H   H1107     1.0  0.60409  0.89597  0.27992  1.0000
  C   C704      1.0  0.65098  0.89161  0.35269  1.0000
  H   H1108     1.0  0.54358  0.95735  0.38521  1.0000
  H   H1109     1.0  0.34475  0.94090  0.44783  1.0000
  H   H1110     1.0  0.53084  0.91077  0.41769  1.0000
  H   H1111     1.0  0.60905  0.84677  0.26622  1.0000
  H   H1112     1.0  0.60278  0.84040  0.45961  1.0000
  H   H1113     1.0  0.42766  0.78671  0.27137  1.0000
  H   H1114     1.0  0.60937  0.83297  0.44110  1.0000
  C   C705      1.0  0.54688  0.85465  0.41166  1.0000
  C   C706      1.0  0.52206  0.85323  0.41776  1.0000
  C   C707      1.0  0.50345  0.85366  0.40865  1.0000
  C   C708      1.0  0.50976  0.85470  0.39344  1.0000
  C   C709      1.0  0.53460  0.85604  0.38735  1.0000
  C   C710      1.0  0.55307  0.85645  0.39642  1.0000
  H   H1115     1.0  0.51718  0.85185  0.42953  1.0000
  H   H1116     1.0  0.48430  0.85263  0.41341  1.0000
  H   H1117     1.0  0.53952  0.85687  0.37559  1.0000
  H   H1118     1.0  0.57223  0.85728  0.39165  1.0000
  C   C711      1.0  0.41156  0.89029  0.45823  1.0000
  C   C712      1.0  0.49347  0.94666  0.41033  1.0000
  S   S292      1.0  0.33870  0.89832  0.28854  1.0000
  C   C713      1.0  0.61407  0.87846  0.28520  1.0000
  C   C714      1.0  0.53643  0.92793  0.41080  1.0000
  H   H1119     1.0  0.40420  0.84776  0.25126  1.0000
  Fe  Fe150     1.0  0.63885  0.90079  0.42606  1.0000
  H   H1120     1.0  0.62289  0.97713  0.44427  1.0000
  N   N67       1.0  0.63761  0.81683  0.45500  1.0000
  H   H1121     1.0  0.42390  0.81875  0.24947  1.0000
  H   H1122     1.0  0.60030  0.94417  0.47094  1.0000
  C   C715      1.0  0.34670  0.95918  0.31099  1.0000
  H   H1123     1.0  0.50741  0.90444  0.39794  1.0000
  C   C716      1.0  0.51361  0.92160  0.39147  1.0000
  H   H1124     1.0  0.64301  0.90167  0.26283  1.0000
  C   C717      1.0  0.60963  0.98598  0.43687  1.0000
  N   N68       1.0  0.51728  0.93956  0.40121  1.0000
  H   H1125     1.0  0.38223  0.97439  0.38608  1.0000
  H   H1126     1.0  0.66257  0.80774  0.47161  1.0000
  H   H1127     1.0  0.43651  0.80940  0.28122  1.0000
  S   S293      1.0  0.64752  0.92464  0.40467  1.0000
  C   C718      1.0  0.58933  0.98525  0.41529  1.0000
  H   H1128     1.0  0.36467  0.96708  0.30885  1.0000
  C   C719      1.0  0.66891  0.88351  0.32790  1.0000
  H   H1129     1.0  0.66031  0.89009  0.27805  1.0000
  H   H1130     1.0  0.39330  0.94491  0.45971  1.0000
  H   H1131     1.0  0.53121  0.91568  0.38447  1.0000
  H   H1132     1.0  0.36480  0.91140  0.33657  1.0000
  H   H1133     1.0  0.51153  0.97133  0.38490  1.0000
  H   H1134     1.0  0.37216  0.85138  0.47776  1.0000
  H   H1135     1.0  0.43214  0.91296  0.46801  1.0000
  H   H1136     1.0  0.55456  0.92238  0.40423  1.0000
  C   C720      1.0  0.38908  0.98776  0.39154  1.0000
  C   C721      1.0  0.59505  0.96088  0.47689  1.0000
  Fe  Fe151     1.0  0.64569  0.89091  0.39384  1.0000
  H   H1137     1.0  0.34299  0.94703  0.34820  1.0000
  S   S294      1.0  0.64073  0.86613  0.41535  1.0000
  C   C722      1.0  0.39567  0.96836  0.43228  1.0000
  C   C723      1.0  0.65787  0.81420  0.44271  1.0000
  H   H1138     1.0  0.62586  0.85495  0.44694  1.0000
  H   H1139     1.0  0.61023  0.89125  0.45879  1.0000
  H   H1140     1.0  0.38091  0.85617  0.27522  1.0000
  H   H1141     1.0  0.34914  0.99150  0.42936  1.0000
  H   H1142     1.0  0.36845  0.82489  0.26182  1.0000
  C   C724      1.0  0.60592  0.97387  0.42523  1.0000
  C   C725      1.0  0.35963  0.85940  0.33604  1.0000
  H   H1143     1.0  0.38301  0.83301  0.29094  1.0000
  C   C726      1.0  0.52562  0.96204  0.39222  1.0000
  Fe  Fe152     1.0  0.60608  0.93139  0.40446  1.0000
  C   C727      1.0  0.62292  0.88787  0.46704  1.0000
  C   C728      1.0  0.42026  0.80176  0.27837  1.0000
  H   H1144     1.0  0.63553  0.89927  0.36008  1.0000
  N   N69       1.0  0.34430  0.94336  0.32530  1.0000
  H   H1145     1.0  0.65071  0.81034  0.43270  1.0000
  H   H1146     1.0  0.64086  0.77749  0.46230  1.0000
  H   H1147     1.0  0.63169  0.90202  0.33347  1.0000
  H   H1148     1.0  0.62211  0.88329  0.29469  1.0000
  H   H1149     1.0  0.52886  0.97590  0.39922  1.0000
  H   H1150     1.0  0.61638  0.95586  0.42388  1.0000
  H   H1151     1.0  0.63306  0.82518  0.47732  1.0000
  C   C729      1.0  0.38196  0.81044  0.26725  1.0000
  C   C730      1.0  0.41891  0.89962  0.47007  1.0000
  H   H1152     1.0  0.43273  0.84133  0.25944  1.0000
  C   C731      1.0  0.39365  0.84082  0.28060  1.0000
  H   H1153     1.0  0.47841  0.95491  0.40340  1.0000
  H   H1154     1.0  0.49913  0.92956  0.38411  1.0000
  H   H1155     1.0  0.41064  0.95250  0.43423  1.0000
  H   H1156     1.0  0.36251  0.96666  0.33602  1.0000
  N   N70       1.0  0.40314  0.82145  0.27084  1.0000
  H   H1157     1.0  0.66857  0.80450  0.24457  1.0000
  C   C732      1.0  0.41665  0.83277  0.25716  1.0000
  C   C733      1.0  0.66318  0.89040  0.47439  1.0000
  H   H1158     1.0  0.48691  0.93019  0.41750  1.0000
  C   C734      1.0  0.64885  0.89314  0.33761  1.0000
  N   N71       1.0  0.63379  0.86678  0.27472  1.0000
  C   C735      1.0  0.65189  0.88443  0.26900  1.0000
  C   C736      1.0  0.62664  0.79331  0.45888  1.0000
  S   S295      1.0  0.66638  0.88692  0.30892  1.0000
  C   C737      1.0  0.62250  0.86041  0.26238  1.0000
  H   H1159     1.0  0.61239  0.87722  0.25647  1.0000
  H   H1160     1.0  0.49544  0.96064  0.41756  1.0000
  H   H1161     1.0  0.35664  0.94596  0.42871  1.0000
  H   H1162     1.0  0.63368  0.83022  0.28691  1.0000
  H   H1163     1.0  0.53991  0.94099  0.41823  1.0000
  C   C738      1.0  0.61804  0.83715  0.45050  1.0000
  H   H1164     1.0  0.61867  0.78842  0.44940  1.0000
  C   C739      1.0  0.41477  0.98870  0.39048  1.0000
  H   H1165     1.0  0.38367  0.92995  0.32340  1.0000
  C   C740      1.0  0.63849  0.96569  0.47599  1.0000
  H   H1166     1.0  0.46458  0.83616  0.48043  1.0000
  H   H1167     1.0  0.34577  0.94843  0.30179  1.0000
  C   C741      1.0  0.64678  0.84390  0.28232  1.0000
  C   C742      1.0  0.35456  0.98822  0.44068  1.0000
  S   S296      1.0  0.36075  0.84948  0.31857  1.0000
  H   H1168     1.0  0.37519  0.92631  0.44138  1.0000
  H   H1169     1.0  0.60002  0.86571  0.28973  1.0000
  C   C743      1.0  0.36184  0.94375  0.44006  1.0000
  H   H1170     1.0  0.59166  0.97737  0.46853  1.0000
  H   H1171     1.0  0.39192  0.96893  0.42079  1.0000
  H   H1172     1.0  0.65572  0.84814  0.29162  1.0000
  C   C744      1.0  0.36530  0.92283  0.32563  1.0000
  H   H1173     1.0  0.66745  0.87602  0.26140  1.0000
  H   H1174     1.0  0.36476  0.91005  0.31736  1.0000
  H   H1175     1.0  0.65641  0.84032  0.46524  1.0000
  H   H1176     1.0  0.63699  0.85197  0.25416  1.0000
  C   C745      1.0  0.34474  0.95851  0.33723  1.0000
  Fe  Fe153     1.0  0.59110  0.87751  0.55846  1.0000
  S   S297      1.0  0.55864  0.86724  0.57469  1.0000
  C   C746      1.0  0.58623  0.97021  0.56140  1.0000
  S   S298      1.0  0.58663  0.89522  0.53556  1.0000
  Fe  Fe154     1.0  0.44100  0.86123  0.54297  1.0000
  S   S299      1.0  0.40198  0.85128  0.54578  1.0000
  S   S300      1.0  0.47561  0.83330  0.54367  1.0000
  Fe  Fe155     1.0  0.42453  0.91536  0.53282  1.0000
  S   S301      1.0  0.38431  0.91015  0.53463  1.0000
  S   S302      1.0  0.43800  0.95110  0.52232  1.0000
  Fe  Fe156     1.0  0.39157  0.88689  0.55615  1.0000
  H   H1177     1.0  0.61881  0.79733  0.61620  1.0000
  Fe  Fe157     1.0  0.39843  0.87539  0.52414  1.0000
  S   S303      1.0  0.38228  0.86256  0.50568  1.0000
  S   S304      1.0  0.43116  0.89490  0.55497  1.0000
  S   S305      1.0  0.43813  0.88258  0.52073  1.0000
  C   C747      1.0  0.61030  0.81719  0.61592  1.0000
  H   H1178     1.0  0.53654  0.90887  0.55237  1.0000
  N   N72       1.0  0.61301  0.83043  0.60085  1.0000
  S   S306      1.0  0.36961  0.85562  0.64268  1.0000
  C   C748      1.0  0.66693  0.99022  0.57529  1.0000
  H   H1179     1.0  0.60829  0.79849  0.59087  1.0000
  H   H1180     1.0  0.65016  0.83770  0.60252  1.0000
  C   C749      1.0  0.40924  0.89196  0.48457  1.0000
  H   H1181     1.0  0.43191  0.83322  0.48476  1.0000
  C   C750      1.0  0.50685  0.94988  0.54236  1.0000
  H   H1182     1.0  0.48146  0.80498  0.51696  1.0000
  C   C751      1.0  0.34110  0.83561  0.72623  1.0000
  H   H1183     1.0  0.63683  0.89683  0.61612  1.0000
  H   H1184     1.0  0.41496  0.89951  0.49353  1.0000
  C   C752      1.0  0.65549  0.88860  0.59490  1.0000
  C   C753      1.0  0.38547  0.86719  0.59821  1.0000
  C   C754      1.0  0.38684  0.85881  0.61322  1.0000
  C   C755      1.0  0.36836  0.86792  0.62403  1.0000
  H   H1185     1.0  0.48909  0.96269  0.54233  1.0000
  H   H1186     1.0  0.57994  0.81919  0.59498  1.0000
  H   H1187     1.0  0.39959  0.85981  0.58996  1.0000
  H   H1188     1.0  0.40212  0.84499  0.61645  1.0000
  H   H1189     1.0  0.49880  0.92214  0.57760  1.0000
  H   H1190     1.0  0.62350  0.92445  0.49191  1.0000
  C   C756      1.0  0.64565  0.96160  0.59318  1.0000
  C   C757      1.0  0.43941  0.98030  0.55981  1.0000
  C   C758      1.0  0.43522  0.96463  0.54993  1.0000
  C   C759      1.0  0.44143  0.97095  0.53484  1.0000
  H   H1191     1.0  0.60372  0.86734  0.58992  1.0000
  N   N73       1.0  0.66478  0.96363  0.58025  1.0000
  H   H1192     1.0  0.43464  0.97545  0.57149  1.0000
  H   H1193     1.0  0.42721  0.94774  0.55401  1.0000
  H   H1194     1.0  0.39617  0.79770  0.72028  1.0000
  H   H1195     1.0  0.46382  0.77541  0.50422  1.0000
  C   C760      1.0  0.53561  0.85791  0.56600  1.0000
  C   C761      1.0  0.54201  0.84776  0.55275  1.0000
  C   C762      1.0  0.52351  0.84006  0.54599  1.0000
  C   C763      1.0  0.49847  0.84335  0.55217  1.0000
  C   C764      1.0  0.49200  0.85412  0.56523  1.0000
  C   C765      1.0  0.51063  0.86097  0.57228  1.0000
  H   H1196     1.0  0.56128  0.84533  0.54785  1.0000
  H   H1197     1.0  0.52859  0.83173  0.53590  1.0000
  H   H1198     1.0  0.47272  0.85644  0.57013  1.0000
  H   H1199     1.0  0.50561  0.86875  0.58255  1.0000
  S   S307      1.0  0.64654  0.90139  0.53223  1.0000
  C   C766      1.0  0.37850  0.98354  0.52516  1.0000
  H   H1200     1.0  0.49715  0.97787  0.56466  1.0000
  C   C767      1.0  0.43318  0.81509  0.51308  1.0000
  H   H1201     1.0  0.62708  0.97133  0.59057  1.0000
  C   C768      1.0  0.53761  0.92640  0.55692  1.0000
  H   H1202     1.0  0.47541  0.79060  0.48662  1.0000
  H   H1203     1.0  0.66824  0.87597  0.49686  1.0000
  H   H1204     1.0  0.63908  0.96155  0.56502  1.0000
  C   C769      1.0  0.63168  0.87211  0.49201  1.0000
  H   H1205     1.0  0.65055  0.97015  0.60241  1.0000
  C   C770      1.0  0.34737  0.89418  0.60477  1.0000
  H   H1206     1.0  0.34351  0.79517  0.60907  1.0000
  C   C771      1.0  0.49395  0.92881  0.56631  1.0000
  H   H1207     1.0  0.57701  0.95881  0.48391  1.0000
  C   C772      1.0  0.65435  0.89011  0.61000  1.0000
  H   H1208     1.0  0.47552  0.94068  0.56734  1.0000
  H   H1209     1.0  0.63267  0.94356  0.50391  1.0000
  H   H1210     1.0  0.64896  0.81011  0.59441  1.0000
  H   H1211     1.0  0.55251  0.93586  0.54988  1.0000
  H   H1212     1.0  0.38598  0.96989  0.53413  1.0000
  C   C773      1.0  0.47701  0.81942  0.50761  1.0000
  H   H1213     1.0  0.44545  0.85399  0.49364  1.0000
  Fe  Fe158     1.0  0.62320  0.87243  0.52924  1.0000
  S   S308      1.0  0.59966  0.96304  0.53253  1.0000
  S   S309      1.0  0.61125  0.90716  0.56381  1.0000
  H   H1214     1.0  0.47415  0.83775  0.51195  1.0000
  C   C774      1.0  0.60152  0.85666  0.60106  1.0000
  C   C775      1.0  0.34885  0.88596  0.61975  1.0000
  C   C776      1.0  0.39260  0.87432  0.48744  1.0000
  N   N74       1.0  0.51337  0.94258  0.55745  1.0000
  H   H1215     1.0  0.36446  0.97489  0.52070  1.0000
  H   H1216     1.0  0.57766  0.97539  0.58429  1.0000
  H   H1217     1.0  0.43684  0.80027  0.52237  1.0000
  C   C777      1.0  0.60748  0.98667  0.49295  1.0000
  H   H1218     1.0  0.50446  0.93341  0.53713  1.0000
  C   C778      1.0  0.58543  0.98309  0.57351  1.0000
  C   C779      1.0  0.59647  0.98005  0.54747  1.0000
  H   H1219     1.0  0.61009  0.86619  0.60853  1.0000
  C   C780      1.0  0.36166  0.82249  0.71859  1.0000
  H   H1220     1.0  0.49372  0.81927  0.49922  1.0000
  H   H1221     1.0  0.62189  0.98934  0.49978  1.0000
  H   H1222     1.0  0.60047  0.93995  0.50452  1.0000
  H   H1223     1.0  0.52969  0.97597  0.55769  1.0000
  Fe  Fe159     1.0  0.60991  0.92261  0.54022  1.0000
  C   C781      1.0  0.65741  0.95220  0.56827  1.0000
  H   H1224     1.0  0.60209  0.82790  0.57978  1.0000
  H   H1225     1.0  0.64270  0.84023  0.58409  1.0000
  H   H1226     1.0  0.41585  0.81227  0.50882  1.0000
  C   C782      1.0  0.51519  0.96515  0.56412  1.0000
  H   H1227     1.0  0.49148  0.91217  0.56126  1.0000
  H   H1228     1.0  0.57890  0.95271  0.56289  1.0000
  Fe  Fe160     1.0  0.64591  0.88322  0.55572  1.0000
  H   H1229     1.0  0.58108  0.85807  0.60476  1.0000
  N   N75       1.0  0.45465  0.81526  0.50143  1.0000
  H   H1230     1.0  0.59028  0.81755  0.62050  1.0000
  S   S310      1.0  0.62358  0.85420  0.50884  1.0000
  S   S311      1.0  0.62584  0.85198  0.55201  1.0000
  H   H1231     1.0  0.42900  0.83309  0.51772  1.0000
  H   H1232     1.0  0.63894  0.89418  0.58946  1.0000
  C   C783      1.0  0.60033  0.81839  0.59124  1.0000
  H   H1233     1.0  0.52012  0.96035  0.57553  1.0000
  C   C784      1.0  0.45941  0.79107  0.49551  1.0000
  C   C785      1.0  0.36553  0.88473  0.59393  1.0000
  H   H1234     1.0  0.52144  0.95973  0.53526  1.0000
  H   H1235     1.0  0.35328  0.99016  0.55160  1.0000
  H   H1236     1.0  0.36327  0.82377  0.70674  1.0000
  H   H1237     1.0  0.58968  0.98582  0.50040  1.0000
  H   H1238     1.0  0.44280  0.78743  0.49080  1.0000
  H   H1239     1.0  0.64348  0.94183  0.59724  1.0000
  H   H1240     1.0  0.54360  0.92100  0.56806  1.0000
  H   H1241     1.0  0.61964  0.82590  0.62346  1.0000
  S   S312      1.0  0.36163  0.89429  0.57525  1.0000
  H   H1242     1.0  0.59629  0.81509  0.72669  1.0000
  C   C786      1.0  0.45123  0.99315  0.52960  1.0000
  H   H1243     1.0  0.59684  0.87100  0.48383  1.0000
  H   H1244     1.0  0.34901  0.81422  0.63086  1.0000
  C   C787      1.0  0.63984  0.82955  0.59523  1.0000
  C   C788      1.0  0.44895  0.83549  0.48952  1.0000
  C   C789      1.0  0.61801  0.94197  0.49699  1.0000
  H   H1245     1.0  0.39431  0.98599  0.51631  1.0000
  N   N76       1.0  0.61476  0.96381  0.48571  1.0000
  H   H1246     1.0  0.65585  0.93207  0.57156  1.0000
  H   H1247     1.0  0.33872  0.84111  0.60803  1.0000
  C   C790      1.0  0.65542  0.87959  0.48865  1.0000
  C   C791      1.0  0.38030  0.80777  0.72629  1.0000
  H   H1248     1.0  0.62739  0.84334  0.72947  1.0000
  H   H1249     1.0  0.45607  0.99806  0.51793  1.0000
  H   H1250     1.0  0.65393  0.96735  0.48231  1.0000
  H   H1251     1.0  0.64883  0.00065  0.57228  1.0000
  C   C792      1.0  0.61528  0.87666  0.48125  1.0000
  Fe  Fe161     1.0  0.62410  0.80629  0.81738  1.0000
  S   S313      1.0  0.62141  0.76570  0.81673  1.0000
  S   S314      1.0  0.60535  0.83003  0.83518  1.0000
  Fe  Fe162     1.0  0.64926  0.81328  0.78518  1.0000
  S   S315      1.0  0.64846  0.77352  0.78231  1.0000
  H   H1252     1.0  0.35144  0.53214  0.80692  1.0000
  Fe  Fe163     1.0  0.60924  0.77836  0.79417  1.0000
  S   S316      1.0  0.57684  0.77399  0.78207  1.0000
  H   H1253     1.0  0.56737  0.83331  0.86795  1.0000
  S   S317      1.0  0.60964  0.81875  0.79566  1.0000
  Fe  Fe164     1.0  0.59528  0.92405  0.90287  1.0000
  S   S318      1.0  0.56230  0.94093  0.89128  1.0000
  S   S319      1.0  0.61002  0.94016  0.92028  1.0000
  S   S320      1.0  0.63274  0.91268  0.89085  1.0000
  Fe  Fe165     1.0  0.43551  0.75279  0.79848  1.0000
  S   S321      1.0  0.42925  0.79234  0.78794  1.0000
  S   S322      1.0  0.47245  0.73584  0.80672  1.0000
  Fe  Fe166     1.0  0.37899  0.74767  0.80227  1.0000
  S   S323      1.0  0.36934  0.78747  0.79250  1.0000
  H   H1254     1.0  0.35607  0.76907  0.76603  1.0000
  Fe  Fe167     1.0  0.40205  0.77898  0.77560  1.0000
  S   S324      1.0  0.40175  0.78606  0.75086  1.0000
  Fe  Fe168     1.0  0.39728  0.79664  0.80593  1.0000
  S   S325      1.0  0.39081  0.82934  0.81923  1.0000
  S   S326      1.0  0.41071  0.73855  0.78482  1.0000
  S   S327      1.0  0.40446  0.75769  0.81692  1.0000
  H   H1255     1.0  0.37912  0.75416  0.84827  1.0000
  Fe  Fe169     1.0  0.45403  0.86878  0.91581  1.0000
  S   S328      1.0  0.43028  0.83790  0.92064  1.0000
  S   S329      1.0  0.49086  0.86666  0.92434  1.0000
  Fe  Fe170     1.0  0.41528  0.90439  0.90057  1.0000
  S   S330      1.0  0.38810  0.87652  0.90383  1.0000
  S   S331      1.0  0.40745  0.94285  0.88835  1.0000
  Fe  Fe171     1.0  0.39935  0.86794  0.92669  1.0000
  S   S332      1.0  0.36854  0.86418  0.94551  1.0000
  Fe  Fe172     1.0  0.42133  0.84896  0.89736  1.0000
  S   S333      1.0  0.42303  0.81754  0.88348  1.0000
  S   S334      1.0  0.42390  0.89790  0.92381  1.0000
  S   S335      1.0  0.44775  0.87760  0.89214  1.0000
  C   C793      1.0  0.39901  0.82588  0.83730  1.0000
  C   C794      1.0  0.39693  0.84696  0.84468  1.0000
  C   C795      1.0  0.40398  0.84478  0.85892  1.0000
  C   C796      1.0  0.41301  0.82143  0.86589  1.0000
  C   C797      1.0  0.41478  0.80035  0.85858  1.0000
  C   C798      1.0  0.40790  0.80256  0.84435  1.0000
  H   H1256     1.0  0.39006  0.86511  0.83932  1.0000
  H   H1257     1.0  0.40253  0.86117  0.86445  1.0000
  H   H1258     1.0  0.42180  0.78223  0.86391  1.0000
  H   H1259     1.0  0.40984  0.78622  0.83884  1.0000
  C   C799      1.0  0.37855  0.80599  0.74166  1.0000
  H   H1260     1.0  0.35640  0.81793  0.76114  1.0000
  S   S336      1.0  0.64883  0.88741  0.92348  1.0000
  C   C800      1.0  0.34401  0.75104  0.74293  1.0000
  Fe  Fe173     1.0  0.63154  0.87626  0.90511  1.0000
  H   H1261     1.0  0.64445  0.98011  0.91381  1.0000
  H   H1262     1.0  0.65764  0.95896  0.95527  1.0000
  H   H1263     1.0  0.35441  0.65350  0.78621  1.0000
  C   C801      1.0  0.61971  0.85806  0.87079  1.0000
  H   H1264     1.0  0.65668  0.80240  0.87566  1.0000
  H   H1265     1.0  0.35911  0.76304  0.73962  1.0000
  C   C802      1.0  0.63901  0.95917  0.95163  1.0000
  H   H1266     1.0  0.62858  0.81306  0.75966  1.0000
  C   C803      1.0  0.61748  0.80815  0.75158  1.0000
  H   H1267     1.0  0.50348  0.89817  0.95996  1.0000
  C   C804      1.0  0.59511  0.97517  0.95449  1.0000
  C   C805      1.0  0.34066  0.54544  0.79912  1.0000
  H   H1268     1.0  0.37009  0.68928  0.79415  1.0000
  H   H1269     1.0  0.58782  0.81594  0.88043  1.0000
  H   H1270     1.0  0.63453  0.93972  0.95355  1.0000
  C   C806      1.0  0.40055  0.96841  0.89848  1.0000
  C   C807      1.0  0.39860  0.96503  0.91381  1.0000
  H   H1271     1.0  0.47474  0.99155  0.87563  1.0000
  H   H1272     1.0  0.34608  0.73775  0.73467  1.0000
  H   H1273     1.0  0.40095  0.94658  0.91966  1.0000
  C   C808      1.0  0.53859  0.92464  0.90067  1.0000
  C   C809      1.0  0.52213  0.91577  0.89303  1.0000
  C   C810      1.0  0.50607  0.89912  0.90049  1.0000
  C   C811      1.0  0.50695  0.89102  0.91546  1.0000
  C   C812      1.0  0.52246  0.90105  0.92315  1.0000
  C   C813      1.0  0.53795  0.91815  0.91582  1.0000
  H   H1274     1.0  0.52266  0.92079  0.88128  1.0000
  H   H1275     1.0  0.49419  0.89149  0.89444  1.0000
  H   H1276     1.0  0.52303  0.89526  0.93471  1.0000
  H   H1277     1.0  0.55030  0.92547  0.92180  1.0000
  C   C814      1.0  0.54776  0.76412  0.78960  1.0000
  C   C815      1.0  0.54485  0.74860  0.80290  1.0000
  C   C816      1.0  0.52175  0.73984  0.80792  1.0000
  C   C817      1.0  0.50124  0.74701  0.79989  1.0000
  C   C818      1.0  0.50400  0.76304  0.78678  1.0000
  C   C819      1.0  0.52724  0.77129  0.78159  1.0000
  H   H1278     1.0  0.56059  0.74271  0.80908  1.0000
  H   H1279     1.0  0.51983  0.72732  0.81804  1.0000
  H   H1280     1.0  0.48842  0.76857  0.78044  1.0000
  H   H1281     1.0  0.52936  0.78310  0.77121  1.0000
  C   C820      1.0  0.61932  0.83385  0.85065  1.0000
  C   C821      1.0  0.61136  0.85548  0.85749  1.0000
  H   H1282     1.0  0.61322  0.87475  0.87597  1.0000
  H   H1283     1.0  0.59836  0.87018  0.85257  1.0000
  H   H1284     1.0  0.37241  0.71314  0.76978  1.0000
  H   H1285     1.0  0.51442  0.84720  0.89699  1.0000
  H   H1286     1.0  0.51382  0.97264  0.90627  1.0000
  C   C822      1.0  0.63572  0.83877  0.87754  1.0000
  H   H1287     1.0  0.34698  0.91488  0.95513  1.0000
  H   H1288     1.0  0.57073  0.83790  0.73237  1.0000
  H   H1289     1.0  0.64082  0.96485  0.93959  1.0000
  C   C823      1.0  0.39350  0.98571  0.92164  1.0000
  H   H1290     1.0  0.35926  0.95548  0.94306  1.0000
  H   H1291     1.0  0.56950  0.85494  0.75586  1.0000
  N   N77       1.0  0.52310  0.86629  0.97186  1.0000
  C   C824      1.0  0.58342  0.83886  0.75927  1.0000
  S   S337      1.0  0.66387  0.80448  0.80702  1.0000
  H   H1292     1.0  0.57305  0.82393  0.76561  1.0000
  N   N78       1.0  0.47783  0.98471  0.89877  1.0000
  H   H1293     1.0  0.39196  0.98307  0.93350  1.0000
  S   S338      1.0  0.66228  0.84335  0.76743  1.0000
  C   C825      1.0  0.39369  0.86828  0.96921  1.0000
  C   C826      1.0  0.58442  0.82209  0.73642  1.0000
  H   H1294     1.0  0.37413  0.70897  0.75078  1.0000
  H   H1295     1.0  0.63080  0.80131  0.74233  1.0000
  H   H1296     1.0  0.56260  0.86923  0.88243  1.0000
  H   H1297     1.0  0.54608  0.79790  0.90364  1.0000
  C   C827      1.0  0.60409  0.89934  0.97121  1.0000
  H   H1298     1.0  0.48622  0.85911  0.96957  1.0000
  H   H1299     1.0  0.37036  0.91732  0.93055  1.0000
  H   H1300     1.0  0.35823  0.73441  0.85912  1.0000
  H   H1301     1.0  0.34677  0.90477  0.92350  1.0000
  N   N79       1.0  0.61955  0.97611  0.95941  1.0000
  H   H1302     1.0  0.64131  0.89038  0.96041  1.0000
  C   C828      1.0  0.66229  0.98695  0.91260  1.0000
  H   H1303     1.0  0.63646  0.96857  0.97950  1.0000
  H   H1304     1.0  0.57371  0.80687  0.74202  1.0000
  H   H1305     1.0  0.54078  0.83480  0.96103  1.0000
  H   H1306     1.0  0.58987  0.95595  0.95667  1.0000
  H   H1307     1.0  0.40865  0.87468  0.96132  1.0000
  N   N80       1.0  0.34552  0.73786  0.75792  1.0000
  C   C829      1.0  0.55365  0.81535  0.90451  1.0000
  H   H1308     1.0  0.51858  0.82262  0.88571  1.0000
  C   C830      1.0  0.37048  0.72312  0.75860  1.0000
  H   H1309     1.0  0.51369  0.97394  0.88681  1.0000
  H   H1310     1.0  0.52499  0.85334  0.87777  1.0000
  Fe  Fe174     1.0  0.64767  0.92475  0.90964  1.0000
  C   C831      1.0  0.35794  0.81905  0.74931  1.0000
  H   H1311     1.0  0.50846  0.90254  0.97811  1.0000
  N   N81       1.0  0.34013  0.76810  0.84797  1.0000
  C   C832      1.0  0.33933  0.83380  0.74161  1.0000
  C   C833      1.0  0.50535  0.98324  0.89662  1.0000
  S   S339      1.0  0.34487  0.72853  0.81173  1.0000
  H   H1312     1.0  0.56103  0.80328  0.87698  1.0000
  H   H1313     1.0  0.55202  0.86498  0.90173  1.0000
  H   H1314     1.0  0.60766  0.79231  0.75708  1.0000
  H   H1315     1.0  0.36211  0.73601  0.83949  1.0000
  S   S340      1.0  0.58882  0.89913  0.95568  1.0000
  H   H1316     1.0  0.58260  0.85118  0.89501  1.0000
  H   H1317     1.0  0.54237  0.82392  0.91396  1.0000
  S   S341      1.0  0.59278  0.88643  0.91578  1.0000
  H   H1318     1.0  0.57317  0.81011  0.90723  1.0000
  H   H1319     1.0  0.47891  0.94718  0.90968  1.0000
  H   H1320     1.0  0.38557  0.73529  0.75582  1.0000
  C   C834      1.0  0.52656  0.83926  0.88764  1.0000
  H   H1321     1.0  0.64225  0.79814  0.85195  1.0000
  H   H1322     1.0  0.35725  0.79090  0.85969  1.0000
  C   C835      1.0  0.35334  0.85364  0.97456  1.0000
  S   S342      1.0  0.64491  0.84070  0.89484  1.0000
  N   N82       1.0  0.59976  0.82977  0.74648  1.0000
  C   C836      1.0  0.47076  0.95934  0.90038  1.0000
  Fe  Fe175     1.0  0.66087  0.76446  0.80487  1.0000
  C   C837      1.0  0.49996  0.85540  0.97771  1.0000
  C   C838      1.0  0.36081  0.74727  0.84876  1.0000
  C   C839      1.0  0.63614  0.81496  0.85709  1.0000
  C   C840      1.0  0.61379  0.84988  0.73872  1.0000
  N   N83       1.0  0.55273  0.83273  0.89079  1.0000
  C   C841      1.0  0.35070  0.68656  0.79706  1.0000
  Fe  Fe176     1.0  0.60978  0.90176  0.93271  1.0000
  N   N84       1.0  0.48058  0.80648  0.82503  1.0000
  C   C842      1.0  0.47966  0.78250  0.83460  1.0000
  C   C843      1.0  0.46403  0.80794  0.81353  1.0000
  C   C844      1.0  0.50646  0.80813  0.81806  1.0000
  C   C845      1.0  0.47212  0.82730  0.83389  1.0000
  H   H1323     1.0  0.46039  0.78062  0.84000  1.0000
  H   H1324     1.0  0.49202  0.78058  0.84338  1.0000
  H   H1325     1.0  0.48567  0.76639  0.82823  1.0000
  H   H1326     1.0  0.44438  0.80653  0.81835  1.0000
  H   H1327     1.0  0.46401  0.82581  0.80610  1.0000
  H   H1328     1.0  0.46993  0.79250  0.80665  1.0000
  H   H1329     1.0  0.51327  0.79284  0.81117  1.0000
  H   H1330     1.0  0.51963  0.80673  0.82638  1.0000
  H   H1331     1.0  0.50788  0.82600  0.81078  1.0000
  H   H1332     1.0  0.45264  0.82666  0.83925  1.0000
  H   H1333     1.0  0.47242  0.84568  0.82699  1.0000
  H   H1334     1.0  0.48408  0.82672  0.84274  1.0000
  C   C846      1.0  0.56291  0.85553  0.89254  1.0000
  H   H1335     1.0  0.34875  0.54189  0.78778  1.0000
  C   C847      1.0  0.56785  0.82078  0.87852  1.0000
  H   H1336     1.0  0.47464  0.98526  0.92211  1.0000
  H   H1337     1.0  0.34272  0.74695  0.77996  1.0000
  C   C848      1.0  0.37266  0.86171  0.96427  1.0000
  H   H1338     1.0  0.44691  0.99866  0.91385  1.0000
  C   C849      1.0  0.63008  0.89448  0.97058  1.0000
  C   C850      1.0  0.64420  0.81737  0.87055  1.0000
  C   C851      1.0  0.34181  0.66617  0.79267  1.0000
  H   H1339     1.0  0.47722  0.95026  0.89026  1.0000
  C   C852      1.0  0.35248  0.92246  0.92570  1.0000
  H   H1340     1.0  0.52152  0.85752  0.95015  1.0000
  H   H1341     1.0  0.50383  0.83486  0.98061  1.0000
  H   H1342     1.0  0.59452  0.84506  0.76695  1.0000
  H   H1343     1.0  0.55160  0.86389  0.95337  1.0000
  H   H1344     1.0  0.60111  0.86615  0.73418  1.0000
  H   H1345     1.0  0.34378  0.56464  0.80045  1.0000
  H   H1346     1.0  0.61368  0.94888  0.97823  1.0000
  C   C853      1.0  0.51698  0.89354  0.96820  1.0000
  C   C854      1.0  0.39771  0.99261  0.89102  1.0000
  C   C855      1.0  0.34164  0.75625  0.76852  1.0000
  H   H1347     1.0  0.34439  0.97169  0.92767  1.0000
  H   H1348     1.0  0.36207  0.79191  0.83270  1.0000
  C   C856      1.0  0.53477  0.85514  0.95851  1.0000
  H   H1349     1.0  0.34435  0.77394  0.82438  1.0000
  C   C857      1.0  0.46772  0.99645  0.91215  1.0000
  C   C858      1.0  0.61830  0.96823  0.97539  1.0000
  H   H1350     1.0  0.45018  0.95967  0.90245  1.0000
  C   C859      1.0  0.34405  0.78431  0.83390  1.0000
  H   H1351     1.0  0.55863  0.86847  0.97874  1.0000
  H   H1352     1.0  0.59531  0.98133  0.94249  1.0000
  H   H1353     1.0  0.35639  0.93404  0.91494  1.0000
  C   C860      1.0  0.33950  0.78283  0.86024  1.0000
  H   H1354     1.0  0.57997  0.98775  0.96014  1.0000
  H   H1355     1.0  0.53401  0.90234  0.96362  1.0000
  H   H1356     1.0  0.39924  0.99537  0.87915  1.0000
  C   C861      1.0  0.46747  0.99981  0.88594  1.0000
  H   H1357     1.0  0.62468  0.85676  0.74625  1.0000
  C   C862      1.0  0.34137  0.95914  0.93816  1.0000
  H   H1358     1.0  0.66790  0.88013  0.87080  1.0000
  Fe  Fe177     1.0  0.77432  0.35704  0.17904  1.0000
  S   S343      1.0  0.80712  0.33310  0.16878  1.0000
  S   S344      1.0  0.73687  0.34300  0.18694  1.0000
  Fe  Fe178     1.0  0.80355  0.40285  0.17558  1.0000
  S   S345      1.0  0.83863  0.38106  0.16545  1.0000
  S   S346      1.0  0.79978  0.44550  0.17211  1.0000
  Fe  Fe179     1.0  0.81366  0.36653  0.15230  1.0000
  S   S347      1.0  0.81475  0.37067  0.12747  1.0000
  Fe  Fe180     1.0  0.82894  0.34969  0.18307  1.0000
  C   C863      1.0  0.89137  0.39637  0.98928  1.0000
  S   S348      1.0  0.77900  0.38940  0.16168  1.0000
  S   S349      1.0  0.79556  0.37238  0.19418  1.0000
  C   C864      1.0  0.75028  0.38359  0.12568  1.0000
  H   H1359     1.0  0.72262  0.20058  0.18361  1.0000
  H   H1360     1.0  0.89876  0.45531  0.08612  1.0000
  H   H1361     1.0  0.90153  0.44852  0.10535  1.0000
  H   H1362     1.0  0.87204  0.44819  0.09879  1.0000
  Fe  Fe181     1.0  0.90665  0.40841  0.04114  1.0000
  S   S350      1.0  0.88177  0.37849  0.04490  1.0000
  S   S351      1.0  0.88862  0.44769  0.04269  1.0000
  Fe  Fe182     1.0  0.95410  0.37269  0.03508  1.0000
  S   S352      1.0  0.93307  0.33974  0.03848  1.0000
  H   H1363     1.0  0.72001  0.33435  0.12389  1.0000
  Fe  Fe183     1.0  0.90559  0.36462  0.02509  1.0000
  S   S353      1.0  0.89117  0.35069  0.00646  1.0000
  Fe  Fe184     1.0  0.91136  0.35683  0.05798  1.0000
  S   S354      1.0  0.90589  0.33603  0.08099  1.0000
  S   S355      1.0  0.92814  0.39639  0.02041  1.0000
  S   S356      1.0  0.93473  0.38795  0.05553  1.0000
  C   C865      1.0  0.90434  0.46431  0.05235  1.0000
  H   H1364     1.0  0.87026  0.40404  0.11089  1.0000
  H   H1365     1.0  0.93907  0.43959  0.05060  1.0000
  H   H1366     1.0  0.70862  0.37720  0.14367  1.0000
  C   C866      1.0  0.72428  0.36181  0.14501  1.0000
  H   H1367     1.0  0.94565  0.30213  0.98559  1.0000
  H   H1368     1.0  0.76930  0.24038  0.18883  1.0000
  H   H1369     1.0  0.92090  0.32672  0.98228  1.0000
  H   H1370     1.0  0.89691  0.38116  0.10761  1.0000
  H   H1371     1.0  0.89319  0.39113  0.08040  1.0000
  C   C867      1.0  0.89100  0.40134  0.10839  1.0000
  H   H1372     1.0  0.86664  0.41364  0.08486  1.0000
  S   S357      1.0  0.85542  0.32090  0.19556  1.0000
  H   H1373     1.0  0.81424  0.48181  0.21572  1.0000
  C   C868      1.0  0.94153  0.47021  0.06232  1.0000
  S   S358      1.0  0.99513  0.36889  0.02646  1.0000
  H   H1374     1.0  0.93393  0.42206  0.08096  1.0000
  H   H1375     1.0  0.73936  0.35056  0.10951  1.0000
  C   C869      1.0  0.72719  0.35251  0.12009  1.0000
  H   H1376     1.0  0.93671  0.41505  0.10023  1.0000
  C   C870      1.0  0.92915  0.45620  0.05482  1.0000
  C   C871      1.0  0.80241  0.46967  0.18245  1.0000
  C   C872      1.0  0.80776  0.46524  0.19700  1.0000
  H   H1377     1.0  0.96090  0.46424  0.06396  1.0000
  H   H1378     1.0  0.81009  0.44634  0.20247  1.0000
  C   C873      1.0  0.73382  0.21636  0.18232  1.0000
  C   C874      1.0  0.83991  0.35970  0.11483  1.0000
  C   C875      1.0  0.83867  0.36714  0.09979  1.0000
  C   C876      1.0  0.85846  0.35944  0.08929  1.0000
  C   C877      1.0  0.87969  0.34416  0.09375  1.0000
  C   C878      1.0  0.88063  0.33611  0.10878  1.0000
  C   C879      1.0  0.86092  0.34407  0.11932  1.0000
  H   H1379     1.0  0.82237  0.37905  0.09622  1.0000
  H   H1380     1.0  0.85735  0.36541  0.07774  1.0000
  H   H1381     1.0  0.89693  0.32412  0.11230  1.0000
  H   H1382     1.0  0.86197  0.33807  0.13088  1.0000
  C   C880      1.0  0.72560  0.31935  0.17951  1.0000
  C   C881      1.0  0.70180  0.31282  0.18500  1.0000
  C   C882      1.0  0.69152  0.29531  0.17870  1.0000
  C   C883      1.0  0.70483  0.28449  0.16666  1.0000
  C   C884      1.0  0.72888  0.29057  0.16138  1.0000
  C   C885      1.0  0.73942  0.30755  0.16796  1.0000
  H   H1383     1.0  0.69099  0.32180  0.19397  1.0000
  H   H1384     1.0  0.98682  0.38371  0.05597  1.0000
  H   H1385     1.0  0.75802  0.31192  0.16394  1.0000
  H   H1386     1.0  0.89249  0.42264  0.07208  1.0000
  H   H1387     1.0  0.72642  0.14562  0.22425  1.0000
  C   C886      1.0  0.79933  0.49434  0.17555  1.0000
  C   C887      1.0  0.69677  0.15305  0.04762  1.0000
  H   H1388     1.0  0.76698  0.19739  0.20148  1.0000
  C   C888      1.0  0.89263  0.44334  0.09633  1.0000
  C   C889      1.0  0.89191  0.48630  0.05739  1.0000
  H   H1389     1.0  0.89523  0.40365  0.99881  1.0000
  C   C890      1.0  0.87510  0.30381  0.22132  1.0000
  H   H1390     1.0  0.89893  0.40588  0.11794  1.0000
  H   H1391     1.0  0.93259  0.39088  0.08986  1.0000
  C   C891      1.0  0.75021  0.24551  0.19448  1.0000
  C   C892      1.0  0.69087  0.16875  0.22313  1.0000
  C   C893      1.0  0.81005  0.48539  0.20448  1.0000
  H   H1392     1.0  0.85428  0.49097  0.18187  1.0000
  H   H1393     1.0  0.75261  0.21007  0.17669  1.0000
  H   H1394     1.0  0.96318  0.30867  0.22699  1.0000
  H   H1395     1.0  0.87340  0.48000  0.15763  1.0000
  C   C894      1.0  0.70997  0.23264  0.20363  1.0000
  H   H1396     1.0  0.76071  0.38945  0.13379  1.0000
  H   H1397     1.0  0.71905  0.10616  0.04449  1.0000
  N   N85       1.0  0.74104  0.35951  0.13114  1.0000
  C   C895      1.0  0.93674  0.47234  0.01143  1.0000
  C   C896      1.0  0.88724  0.37152  0.99031  1.0000
  H   H1398     1.0  0.77618  0.33871  0.12368  1.0000
  H   H1399     1.0  0.85086  0.36395  0.21148  1.0000
  H   H1400     1.0  0.69701  0.14569  0.01178  1.0000
  H   H1401     1.0  0.90371  0.48211  0.16246  1.0000
  H   H1402     1.0  0.88412  0.49389  0.18695  1.0000
  H   H1403     1.0  0.95748  0.46858  0.00955  1.0000
  H   H1404     1.0  0.75215  0.25182  0.20510  1.0000
  S   S359      1.0  0.69171  0.26444  0.15737  1.0000
  H   H1405     1.0  0.73473  0.39872  0.12342  1.0000
  H   H1406     1.0  0.73721  0.18704  0.20753  1.0000
  H   H1407     1.0  0.73939  0.28205  0.15217  1.0000
  H   H1408     1.0  0.75640  0.32142  0.13720  1.0000
  S   S360      1.0  0.69118  0.16663  0.20435  1.0000
  H   H1409     1.0  0.93071  0.46215  0.02230  1.0000
  H   H1410     1.0  0.92917  0.46388  0.00304  1.0000
  N   N86       1.0  0.89947  0.41663  0.09464  1.0000
  C   C897      1.0  0.88737  0.41079  0.08249  1.0000
  C   C898      1.0  0.92689  0.41094  0.09130  1.0000
  H   H1411     1.0  0.76348  0.38237  0.11540  1.0000
  H   H1412     1.0  0.77283  0.34425  0.14244  1.0000
  N   N87       1.0  0.70671  0.14266  0.03377  1.0000
  H   H1413     1.0  0.68774  0.11038  0.03997  1.0000
  H   H1414     1.0  0.70825  0.14518  0.05663  1.0000
  C   C899      1.0  0.85959  0.34781  0.21799  1.0000
  C   C900      1.0  0.74748  0.20347  0.20619  1.0000
  H   H1415     1.0  0.71588  0.34440  0.14904  1.0000
  C   C901      1.0  0.86360  0.32460  0.21280  1.0000
  H   H1416     1.0  0.74799  0.20848  0.21736  1.0000
  C   C902      1.0  0.76248  0.34008  0.13374  1.0000
  H   H1417     1.0  0.96893  0.33303  0.99328  1.0000
  N   N88       1.0  0.73539  0.22450  0.19666  1.0000
  H   H1418     1.0  0.69835  0.21718  0.20559  1.0000
  H   H1419     1.0  0.74499  0.14023  0.03761  1.0000
  C   C903      1.0  0.96155  0.34688  0.98438  1.0000
  C   C904      1.0  0.70680  0.11534  0.03610  1.0000
  H   H1420     1.0  0.87839  0.28583  0.21730  1.0000
  H   H1421     1.0  0.71086  0.36673  0.11786  1.0000
  H   H1422     1.0  0.94391  0.35720  0.98939  1.0000
  H   H1423     1.0  0.73445  0.36564  0.15390  1.0000
  C   C905      1.0  0.71097  0.15610  0.23033  1.0000
  H   H1424     1.0  0.67749  0.14877  0.05147  1.0000
  H   H1425     1.0  0.71033  0.23915  0.21442  1.0000
  H   H1426     1.0  0.69591  0.17370  0.04634  1.0000
  H   H1427     1.0  0.70016  0.24818  0.19657  1.0000
  H   H1428     1.0  0.72471  0.23168  0.17482  1.0000
  H   H1429     1.0  0.74045  0.14079  0.01871  1.0000
  C   C906      1.0  0.73246  0.14839  0.02915  1.0000
  C   C907      1.0  0.90431  0.50031  0.06479  1.0000
  H   H1430     1.0  0.71317  0.10688  0.02575  1.0000
  C   C908      1.0  0.69077  0.15385  0.02224  1.0000
  H   H1431     1.0  0.69066  0.17439  0.01994  1.0000
  S   S361      1.0  0.67942  0.19756  0.16667  1.0000
  H   H1432     1.0  0.67119  0.19678  0.09844  1.0000
  H   H1433     1.0  0.93164  0.50073  0.03350  1.0000
  H   H1434     1.0  0.96821  0.33935  0.22973  1.0000
  H   H1435     1.0  0.73305  0.16887  0.02734  1.0000
  H   H1436     1.0  0.74118  0.26186  0.18765  1.0000
  C   C909      1.0  0.88725  0.49305  0.15764  1.0000
  N   N89       1.0  0.92786  0.49934  0.01087  1.0000
  H   H1437     1.0  0.79505  0.49795  0.16433  1.0000
  C   C910      1.0  0.92919  0.49249  0.06710  1.0000
  H   H1438     1.0  0.89344  0.49989  0.14600  1.0000
  H   H1439     1.0  0.87267  0.49251  0.05556  1.0000
  H   H1440     1.0  0.89319  0.49436  0.02442  1.0000
  H   H1441     1.0  0.89189  0.49532  0.00516  1.0000
  H   H1442     1.0  0.67108  0.15046  0.02555  1.0000
  H   H1443     1.0  0.67291  0.29095  0.18279  1.0000
  C   C911      1.0  0.67112  0.18250  0.23101  1.0000
  Fe  Fe185     1.0  0.71543  0.14168  0.28582  1.0000
  S   S362      1.0  0.74956  0.11487  0.27981  1.0000
  S   S363      1.0  0.68967  0.16962  0.27250  1.0000
  Fe  Fe186     1.0  0.71354  0.12324  0.31879  1.0000
  S   S364      1.0  0.74772  0.09487  0.31561  1.0000
  C   C912      1.0  0.70130  0.09136  0.37589  1.0000
  Fe  Fe187     1.0  0.76354  0.12587  0.29957  1.0000
  S   S365      1.0  0.80349  0.13466  0.29841  1.0000
  Fe  Fe188     1.0  0.73164  0.08584  0.29608  1.0000
  S   S366      1.0  0.71838  0.05022  0.29139  1.0000
  S   S367      1.0  0.73049  0.15449  0.30433  1.0000
  S   S368      1.0  0.69658  0.11236  0.30049  1.0000
  Fe  Fe189     1.0  0.92922  0.26583  0.29287  1.0000
  S   S369      1.0  0.92098  0.30717  0.29074  1.0000
  S   S370      1.0  0.97036  0.24944  0.29230  1.0000
  Fe  Fe190     1.0  0.87356  0.25951  0.29585  1.0000
  S   S371      1.0  0.86249  0.30123  0.29439  1.0000
  S   S372      1.0  0.83747  0.24229  0.29694  1.0000
  Fe  Fe191     1.0  0.89323  0.30352  0.27585  1.0000
  S   S373      1.0  0.88905  0.33369  0.25658  1.0000
  Fe  Fe192     1.0  0.89112  0.30115  0.30950  1.0000
  S   S374      1.0  0.88960  0.32996  0.32493  1.0000
  S   S375      1.0  0.90340  0.26211  0.27634  1.0000
  S   S376      1.0  0.90031  0.25941  0.31256  1.0000
  Fe  Fe193     1.0  0.94720  0.34856  0.42903  1.0000
  S   S377      1.0  0.95633  0.38633  0.41938  1.0000
  S   S378      1.0  0.95809  0.33144  0.45134  1.0000
  Fe  Fe194     1.0  0.92486  0.34080  0.40143  1.0000
  S   S379      1.0  0.93190  0.37852  0.38983  1.0000
  S   S380      1.0  0.90922  0.31145  0.39178  1.0000
  Fe  Fe195     1.0  0.96899  0.36923  0.39847  1.0000
  H   H1444     1.0  0.96586  0.32561  0.27029  1.0000
  Fe  Fe196     1.0  0.91841  0.39190  0.41176  1.0000
  S   S381      1.0  0.89219  0.42690  0.41590  1.0000
  S   S382      1.0  0.96295  0.33075  0.40875  1.0000
  S   S383      1.0  0.90824  0.35488  0.42284  1.0000
  N   N90       1.0  0.96131  0.26669  0.33935  1.0000
  C   C913      1.0  0.68044  0.09843  0.38587  1.0000
  H   H1445     1.0  0.70796  0.13649  0.40758  1.0000
  C   C914      1.0  0.93313  0.45112  0.40721  1.0000
  C   C915      1.0  0.90912  0.45208  0.41485  1.0000
  S   S384      1.0  0.68447  0.13367  0.33778  1.0000
  H   H1446     1.0  0.94087  0.43531  0.40147  1.0000
  N   N91       1.0  0.86928  0.39507  0.45852  1.0000
  H   H1447     1.0  0.71884  0.16452  0.43215  1.0000
  H   H1448     1.0  0.67596  0.15639  0.44312  1.0000
  C   C916      1.0  0.69670  0.06246  0.24794  1.0000
  H   H1449     1.0  0.98379  0.41710  0.39699  1.0000
  C   C917      1.0  0.72440  0.14400  0.43262  1.0000
  H   H1450     1.0  0.70522  0.04836  0.25640  1.0000
  H   H1451     1.0  0.71101  0.06423  0.23817  1.0000
  H   H1452     1.0  0.97184  0.30204  0.29484  1.0000
  H   H1453     1.0  0.72383  0.10066  0.24793  1.0000
  C   C918      1.0  0.90348  0.31678  0.37324  1.0000
  C   C919      1.0  0.89343  0.29877  0.36732  1.0000
  C   C920      1.0  0.88928  0.30232  0.35246  1.0000
  C   C921      1.0  0.89485  0.32411  0.34352  1.0000
  C   C922      1.0  0.90467  0.34215  0.34949  1.0000
  C   C923      1.0  0.90919  0.33841  0.36423  1.0000
  H   H1454     1.0  0.88874  0.28209  0.37427  1.0000
  H   H1455     1.0  0.88126  0.28851  0.34802  1.0000
  H   H1456     1.0  0.90879  0.35915  0.34267  1.0000
  H   H1457     1.0  0.91684  0.35242  0.36863  1.0000
  H   H1458     1.0  0.67727  0.02936  0.37181  1.0000
  H   H1459     1.0  0.84742  0.27346  0.24905  1.0000
  C   C924      1.0  0.93718  0.49138  0.41415  1.0000
  H   H1460     1.0  0.89627  0.36280  0.45482  1.0000
  N   N92       1.0  0.68846  0.08667  0.25362  1.0000
  H   H1461     1.0  0.96321  0.25601  0.36249  1.0000
  C   C925      1.0  0.99480  0.26649  0.29424  1.0000
  C   C926      1.0  0.88187  0.37001  0.46351  1.0000
  C   C927      1.0  0.67213  0.19639  0.32537  1.0000
  H   H1462     1.0  0.95022  0.28790  0.35762  1.0000
  C   C928      1.0  0.71117  0.10404  0.43198  1.0000
  C   C929      1.0  0.91290  0.49266  0.42153  1.0000
  C   C930      1.0  0.81271  0.16474  0.29792  1.0000
  C   C931      1.0  0.83826  0.16706  0.29707  1.0000
  C   C932      1.0  0.84631  0.19054  0.29675  1.0000
  C   C933      1.0  0.82883  0.21203  0.29730  1.0000
  C   C934      1.0  0.80330  0.20972  0.29806  1.0000
  C   C935      1.0  0.79528  0.18628  0.29836  1.0000
  H   H1463     1.0  0.85192  0.15054  0.29672  1.0000
  H   H1464     1.0  0.86599  0.19194  0.29616  1.0000
  H   H1465     1.0  0.78958  0.22614  0.29856  1.0000
  H   H1466     1.0  0.77561  0.18486  0.29903  1.0000
  C   C936      1.0  0.69101  0.16987  0.25339  1.0000
  C   C937      1.0  0.71120  0.15693  0.24538  1.0000
  H   H1467     1.0  0.72695  0.14747  0.25080  1.0000
  H   H1468     1.0  0.69535  0.09380  0.43123  1.0000
  H   H1469     1.0  0.73197  0.13741  0.44326  1.0000
  H   H1470     1.0  0.89149  0.37021  0.47331  1.0000
  C   C938      1.0  0.87896  0.32952  0.23996  1.0000
  C   C939      1.0  0.85155  0.40434  0.47074  1.0000
  C   C940      1.0  0.68339  0.11936  0.35614  1.0000
  C   C941      1.0  0.70274  0.10170  0.36104  1.0000
  H   H1471     1.0  0.96929  0.34925  0.25488  1.0000
  H   H1472     1.0  0.89158  0.29012  0.24133  1.0000
  H   H1473     1.0  0.00029  0.29725  0.25875  1.0000
  C   C942      1.0  0.94902  0.34855  0.46645  1.0000
  H   H1474     1.0  0.86840  0.35623  0.46658  1.0000
  H   H1475     1.0  0.95181  0.28298  0.31802  1.0000
  C   C943      1.0  0.88259  0.30620  0.23492  1.0000
  H   H1476     1.0  0.67721  0.13144  0.41569  1.0000
  H   H1477     1.0  0.94722  0.38463  0.45357  1.0000
  H   H1478     1.0  0.79731  0.26994  0.28041  1.0000
  C   C944      1.0  0.69354  0.14049  0.41700  1.0000
  H   H1479     1.0  0.86851  0.38725  0.43655  1.0000
  H   H1480     1.0  0.95887  0.28336  0.26648  1.0000
  C   C945      1.0  0.98728  0.27248  0.33666  1.0000
  C   C946      1.0  0.99033  0.29205  0.29540  1.0000
  H   H1481     1.0  0.73988  0.14062  0.42364  1.0000
  C   C947      1.0  0.73310  0.01983  0.28836  1.0000
  C   C948      1.0  0.67717  0.10487  0.24221  1.0000
  C   C949      1.0  0.86755  0.35030  0.23144  1.0000
  H   H1482     1.0  0.69269  0.20022  0.29718  1.0000
  H   H1483     1.0  0.94613  0.30425  0.33161  1.0000
  C   C950      1.0  0.89880  0.47307  0.42180  1.0000
  H   H1484     1.0  0.89732  0.41553  0.46315  1.0000
  S   S385      1.0  0.67908  0.08496  0.40439  1.0000
  C   C951      1.0  0.95373  0.29123  0.25539  1.0000
  C   C952      1.0  0.00383  0.41622  0.39589  1.0000
  H   H1485     1.0  0.71874  0.09639  0.44248  1.0000
  C   C953      1.0  0.96079  0.24116  0.33598  1.0000
  H   H1486     1.0  0.93220  0.26321  0.35741  1.0000
  H   H1487     1.0  0.85090  0.27736  0.26754  1.0000
  C   C954      1.0  0.67117  0.18297  0.24613  1.0000
  H   H1488     1.0  0.92583  0.28137  0.33197  1.0000
  H   H1489     1.0  0.87951  0.43087  0.44883  1.0000
  C   C955      1.0  0.96009  0.33245  0.25923  1.0000
  C   C956      1.0  0.71024  0.09601  0.25770  1.0000
  H   H1490     1.0  0.88299  0.49550  0.37611  1.0000
  N   N93       1.0  0.81443  0.29084  0.26120  1.0000
  C   C957      1.0  0.79768  0.28472  0.25140  1.0000
  C   C958      1.0  0.83769  0.27304  0.26044  1.0000
  H   H1491     1.0  0.68925  0.12941  0.45430  1.0000
  C   C959      1.0  0.82044  0.31645  0.25647  1.0000
  H   H1492     1.0  0.94137  0.23641  0.33757  1.0000
  H   H1493     1.0  0.78432  0.30228  0.27751  1.0000
  H   H1494     1.0  0.83394  0.25356  0.26433  1.0000
  C   C960      1.0  0.94626  0.33585  0.48073  1.0000
  H   H1495     1.0  0.93331  0.40788  0.47509  1.0000
  H   H1496     1.0  0.90288  0.40501  0.44535  1.0000
  C   C961      1.0  0.85559  0.39367  0.44605  1.0000
  N   N94       1.0  0.70303  0.13118  0.43123  1.0000
  C   C962      1.0  0.80193  0.28911  0.27645  1.0000
  H   H1497     1.0  0.99956  0.25945  0.34378  1.0000
  H   H1498     1.0  0.67447  0.21508  0.32795  1.0000
  C   C963      1.0  0.68296  0.13616  0.44333  1.0000
  C   C964      1.0  0.99397  0.30510  0.24789  1.0000
  H   H1499     1.0  0.79286  0.26546  0.25466  1.0000
  H   H1500     1.0  0.83397  0.32135  0.26321  1.0000
  H   H1501     1.0  0.96545  0.47012  0.40069  1.0000
  C   C965      1.0  0.94454  0.37460  0.46447  1.0000
  H   H1502     1.0  0.82893  0.31866  0.24480  1.0000
  C   C966      1.0  0.94706  0.47078  0.40681  1.0000
  H   H1503     1.0  0.81419  0.29340  0.28414  1.0000
  H   H1504     1.0  0.71894  0.09628  0.35343  1.0000
  H   H1505     1.0  0.72579  0.09944  0.42276  1.0000
  H   H1506     1.0  0.97207  0.22701  0.34311  1.0000
  C   C967      1.0  0.93657  0.38773  0.47665  1.0000
  N   N95       1.0  0.96668  0.31294  0.24930  1.0000
  H   H1507     1.0  0.93311  0.29645  0.25641  1.0000
  H   H1508     1.0  0.80348  0.33051  0.25742  1.0000
  H   H1509     1.0  0.93956  0.33857  0.26072  1.0000
  H   H1510     1.0  0.71645  0.07789  0.37965  1.0000
  H   H1511     1.0  0.96843  0.23908  0.32436  1.0000
  H   H1512     1.0  0.98824  0.29180  0.33880  1.0000
  C   C968      1.0  0.88807  0.41235  0.45380  1.0000
  H   H1513     1.0  0.69864  0.00840  0.28458  1.0000
  H   H1514     1.0  0.88017  0.47393  0.42767  1.0000
  H   H1515     1.0  0.68741  0.16095  0.41597  1.0000
  H   H1516     1.0  0.00285  0.44885  0.40670  1.0000
  H   H1517     1.0  0.80662  0.28588  0.23979  1.0000
  C   C969      1.0  0.75858  0.01222  0.28910  1.0000
  H   H1518     1.0  0.67777  0.06978  0.27555  1.0000
  H   H1519     1.0  0.72049  0.08193  0.26535  1.0000
  C   C970      1.0  0.95139  0.26852  0.35489  1.0000
  H   H1520     1.0  0.77994  0.29781  0.25167  1.0000
  H   H1521     1.0  0.67102  0.12340  0.24615  1.0000
  H   H1522     1.0  0.84587  0.41227  0.44201  1.0000
  H   H1523     1.0  0.84190  0.42332  0.46742  1.0000
  C   C971      1.0  0.94569  0.28463  0.32981  1.0000
  H   H1524     1.0  0.68081  0.05481  0.24468  1.0000
  H   H1525     1.0  0.77017  0.02518  0.29147  1.0000
  H   H1526     1.0  0.70442  0.11298  0.26333  1.0000
  H   H1527     1.0  0.84145  0.38057  0.44906  1.0000
  H   H1528     1.0  0.95846  0.27598  0.24830  1.0000
  H   H1529     1.0  0.86477  0.36844  0.23525  1.0000
  H   H1530     1.0  0.99962  0.29040  0.24046  1.0000
  C   C972      1.0  0.71836  0.00270  0.28523  1.0000
  H   H1531     1.0  0.83701  0.39182  0.47452  1.0000
  H   H1532     1.0  0.69106  0.18545  0.32383  1.0000
  H   H1533     1.0  0.67507  0.16157  0.30742  1.0000
  H   H1534     1.0  0.99541  0.27088  0.32508  1.0000
  H   H1535     1.0  0.68620  0.00781  0.38737  1.0000
  H   H1536     1.0  0.90686  0.49307  0.38790  1.0000
  C   C973      1.0  0.95881  0.32295  0.23474  1.0000
  H   H1537     1.0  0.93824  0.32909  0.23556  1.0000
  C   C974      1.0  0.67517  0.02608  0.38401  1.0000
  H   H1538     1.0  0.67608  0.22991  0.30118  1.0000
  H   H1539     1.0  0.68384  0.04081  0.38783  1.0000
  C   C975      1.0  0.67371  0.21075  0.29944  1.0000
  H   H1540     1.0  0.86132  0.40542  0.48038  1.0000
  H   H1541     1.0  0.91437  0.50006  0.36844  1.0000
  H   H1542     1.0  0.69067  0.10785  0.23213  1.0000
  Fe  Fe197     1.0  0.91483  0.35052  0.55989  1.0000
  S   S386      1.0  0.94718  0.36221  0.56822  1.0000
  S   S387      1.0  0.88783  0.32866  0.57556  1.0000
  Fe  Fe198     1.0  0.92652  0.37790  0.52896  1.0000
  S   S388      1.0  0.95938  0.39208  0.53529  1.0000
  S   S389      1.0  0.91930  0.39211  0.50546  1.0000
  Fe  Fe199     1.0  0.96825  0.35360  0.54665  1.0000
  C   C976      1.0  0.71392  0.17090  0.61452  1.0000
  Fe  Fe200     1.0  0.93548  0.39969  0.55616  1.0000
  S   S390      1.0  0.94067  0.43222  0.56721  1.0000
  S   S391      1.0  0.93703  0.33842  0.53897  1.0000
  S   S392      1.0  0.90130  0.38901  0.54914  1.0000
  Fe  Fe201     1.0  0.75438  0.07492  0.67559  1.0000
  S   S393      1.0  0.71549  0.07926  0.68731  1.0000
  S   S394      1.0  0.77393  0.03768  0.66927  1.0000
  Fe  Fe202     1.0  0.75625  0.13162  0.67063  1.0000
  S   S395      1.0  0.71697  0.13955  0.68167  1.0000
  S   S396      1.0  0.77300  0.16686  0.66085  1.0000
  Fe  Fe203     1.0  0.72853  0.10795  0.69862  1.0000
  H   H1543     1.0  0.75077  0.19866  0.61436  1.0000
  Fe  Fe204     1.0  0.70808  0.11028  0.66916  1.0000
  N   N96       1.0  0.68622  0.03073  0.65181  1.0000
  S   S397      1.0  0.76844  0.10132  0.68816  1.0000
  S   S398      1.0  0.74633  0.10473  0.65688  1.0000
  Fe  Fe205     1.0  0.88930  0.27174  0.69473  1.0000
  S   S399      1.0  0.90970  0.23379  0.69168  1.0000
  S   S400      1.0  0.87840  0.27340  0.71919  1.0000
  Fe  Fe206     1.0  0.89494  0.28709  0.66172  1.0000
  S   S401      1.0  0.91543  0.25008  0.65643  1.0000
  S   S402      1.0  0.88965  0.32030  0.64415  1.0000
  Fe  Fe207     1.0  0.88673  0.23366  0.67351  1.0000
  S   S403      1.0  0.87617  0.19467  0.67419  1.0000
  Fe  Fe208     1.0  0.93682  0.25255  0.67510  1.0000
  S   S404      1.0  0.97723  0.23504  0.67545  1.0000
  S   S405      1.0  0.86421  0.27067  0.67753  1.0000
  S   S406      1.0  0.91840  0.29073  0.67941  1.0000
  H   H1544     1.0  0.69844  0.18022  0.64219  1.0000
  H   H1545     1.0  0.00208  0.40818  0.50771  1.0000
  H   H1546     1.0  0.70763  0.14743  0.64210  1.0000
  C   C977      1.0  0.97871  0.28552  0.72269  1.0000
  C   C978      1.0  0.86576  0.32419  0.72047  1.0000
  H   H1547     1.0  0.97699  0.28725  0.67894  1.0000
  H   H1548     1.0  0.86843  0.40198  0.58749  1.0000
  H   H1549     1.0  0.99208  0.35323  0.51524  1.0000
  H   H1550     1.0  0.85533  0.36347  0.72218  1.0000
  C   C979      1.0  0.95139  0.25991  0.71537  1.0000
  H   H1551     1.0  0.93094  0.18866  0.65484  1.0000
  C   C980      1.0  0.70551  0.04236  0.65706  1.0000
  H   H1552     1.0  0.69774  0.18593  0.61526  1.0000
  H   H1553     1.0  0.73297  0.02542  0.69150  1.0000
  C   C981      1.0  0.85781  0.34496  0.72818  1.0000
  C   C982      1.0  0.69974  0.09999  0.61591  1.0000
  C   C983      1.0  0.69860  0.10361  0.63070  1.0000
  H   H1554     1.0  0.71768  0.09559  0.60955  1.0000
  H   H1555     1.0  0.71561  0.10169  0.63564  1.0000
  C   C984      1.0  0.80127  0.17442  0.66528  1.0000
  C   C985      1.0  0.81912  0.15623  0.67134  1.0000
  C   C986      1.0  0.84182  0.16281  0.67415  1.0000
  C   C987      1.0  0.84681  0.18765  0.67110  1.0000
  C   C988      1.0  0.82870  0.20593  0.66536  1.0000
  C   C989      1.0  0.80613  0.19928  0.66236  1.0000
  H   H1556     1.0  0.81577  0.13697  0.67343  1.0000
  H   H1557     1.0  0.85578  0.14852  0.67851  1.0000
  H   H1558     1.0  0.83235  0.22508  0.66290  1.0000
  H   H1559     1.0  0.79248  0.21349  0.65763  1.0000
  H   H1560     1.0  0.74184  0.18611  0.70384  1.0000
  H   H1561     1.0  0.97680  0.37718  0.50302  1.0000
  C   C990      1.0  0.00069  0.25209  0.67859  1.0000
  H   H1562     1.0  0.68678  0.05416  0.63113  1.0000
  H   H1563     1.0  0.89182  0.37520  0.58729  1.0000
  H   H1564     1.0  0.86946  0.32673  0.70862  1.0000
  C   C991      1.0  0.92071  0.46037  0.56464  1.0000
  H   H1565     1.0  0.93438  0.39963  0.59447  1.0000
  C   C992      1.0  0.67553  0.10933  0.63902  1.0000
  C   C993      1.0  0.75821  0.01105  0.67377  1.0000
  C   C994      1.0  0.73821  0.01021  0.68495  1.0000
  H   H1566     1.0  0.94013  0.13725  0.68517  1.0000
  C   C995      1.0  0.93252  0.37498  0.49084  1.0000
  H   H1567     1.0  0.77963  0.20271  0.70861  1.0000
  H   H1568     1.0  0.69179  0.15348  0.71291  1.0000
  C   C996      1.0  0.93787  0.34899  0.49289  1.0000
  N   N97       1.0  0.77353  0.16426  0.71301  1.0000
  H   H1569     1.0  0.90337  0.43726  0.59447  1.0000
  H   H1570     1.0  0.93490  0.33895  0.50379  1.0000
  C   C997      1.0  0.89043  0.32213  0.59464  1.0000
  C   C998      1.0  0.91240  0.32394  0.60040  1.0000
  C   C999      1.0  0.91288  0.32110  0.61574  1.0000
  C   C1000     1.0  0.89152  0.31608  0.62543  1.0000
  C   C1001     1.0  0.86990  0.31333  0.61961  1.0000
  C   C1002     1.0  0.86943  0.31615  0.60433  1.0000
  H   H1571     1.0  0.92890  0.32790  0.59307  1.0000
  H   H1572     1.0  0.92955  0.32369  0.62010  1.0000
  H   H1573     1.0  0.85312  0.31012  0.62693  1.0000
  H   H1574     1.0  0.85239  0.31461  0.60000  1.0000
  N   N98       1.0  0.95480  0.16645  0.66982  1.0000
  H   H1575     1.0  0.91424  0.49865  0.51787  1.0000
  C   C1003     1.0  0.96695  0.14953  0.65906  1.0000
  H   H1576     1.0  0.76299  0.15336  0.61407  1.0000
  C   C1004     1.0  0.97314  0.17042  0.67929  1.0000
  H   H1577     1.0  0.93178  0.25730  0.71465  1.0000
  H   H1578     1.0  0.91942  0.15257  0.67214  1.0000
  H   H1579     1.0  0.72618  0.16536  0.64985  1.0000
  H   H1580     1.0  0.70616  0.15300  0.61520  1.0000
  H   H1581     1.0  0.94691  0.48139  0.57100  1.0000
  H   H1582     1.0  0.98099  0.15262  0.68539  1.0000
  C   C1005     1.0  0.88101  0.48416  0.55926  1.0000
  H   H1583     1.0  0.86253  0.48492  0.55612  1.0000
  H   H1584     1.0  0.92398  0.16810  0.68703  1.0000
  H   H1585     1.0  0.96153  0.26021  0.70408  1.0000
  H   H1586     1.0  0.95993  0.24316  0.72212  1.0000
  H   H1587     1.0  0.99337  0.37994  0.55997  1.0000
  H   H1588     1.0  0.98284  0.15741  0.65199  1.0000
  H   H1589     1.0  0.74085  0.15314  0.70676  1.0000
  S   S407      1.0  0.72384  0.10859  0.72332  1.0000
  H   H1590     1.0  0.70402  0.06267  0.65325  1.0000
  C   C1006     1.0  0.75108  0.15022  0.62475  1.0000
  H   H1591     1.0  0.99006  0.28609  0.71174  1.0000
  C   C1007     1.0  0.93375  0.15550  0.67896  1.0000
  H   H1592     1.0  0.98767  0.26954  0.72984  1.0000
  H   H1593     1.0  0.76129  0.16622  0.69179  1.0000
  H   H1594     1.0  0.93617  0.20364  0.66983  1.0000
  H   H1595     1.0  0.77616  0.12427  0.71578  1.0000
  H   H1596     1.0  0.89964  0.40513  0.57905  1.0000
  C   C1008     1.0  0.92858  0.48211  0.56763  1.0000
  H   H1597     1.0  0.79866  0.18272  0.69651  1.0000
  H   H1598     1.0  0.70821  0.02583  0.63104  1.0000
  H   H1599     1.0  0.80565  0.18157  0.71493  1.0000
  H   H1600     1.0  0.72394  0.21007  0.62637  1.0000
  N   N99       1.0  0.89541  0.40012  0.60260  1.0000
  C   C1009     1.0  0.87972  0.38740  0.61484  1.0000
  C   C1010     1.0  0.92202  0.39044  0.60356  1.0000
  C   C1011     1.0  0.89146  0.42725  0.60346  1.0000
  H   H1601     1.0  0.88512  0.38945  0.62570  1.0000
  H   H1602     1.0  0.85959  0.39479  0.61476  1.0000
  H   H1603     1.0  0.95356  0.14636  0.65170  1.0000
  C   C1012     1.0  0.67779  0.10159  0.60935  1.0000
  H   H1604     1.0  0.92788  0.39352  0.61409  1.0000
  H   H1605     1.0  0.75031  0.18450  0.72933  1.0000
  H   H1606     1.0  0.89621  0.43148  0.61404  1.0000
  H   H1607     1.0  0.94145  0.32249  0.71668  1.0000
  N   N100      1.0  0.72981  0.17031  0.62627  1.0000
  H   H1608     1.0  0.87171  0.43535  0.60245  1.0000
  C   C1013     1.0  0.94131  0.30471  0.71218  1.0000
  C   C1014     1.0  0.71487  0.16565  0.64072  1.0000
  C   C1015     1.0  0.73943  0.19446  0.62513  1.0000
  C   C1016     1.0  0.86859  0.30023  0.72815  1.0000
  H   H1609     1.0  0.74459  0.13173  0.62535  1.0000
  H   H1610     1.0  0.95170  0.30621  0.70093  1.0000
  H   H1611     1.0  0.00203  0.39936  0.48216  1.0000
  H   H1612     1.0  0.75162  0.19441  0.63385  1.0000
  S   S408      1.0  0.67341  0.11409  0.65765  1.0000
  H   H1613     1.0  0.70366  0.04021  0.66925  1.0000
  H   H1614     1.0  0.97438  0.13105  0.66462  1.0000
  C   C1017     1.0  0.99542  0.27742  0.68026  1.0000
  H   H1615     1.0  0.89072  0.44459  0.55813  1.0000
  C   C1018     1.0  0.88849  0.39542  0.58850  1.0000
  C   C1019     1.0  0.89694  0.46137  0.56036  1.0000
  C   C1020     1.0  0.68927  0.03409  0.63559  1.0000
  H   H1616     1.0  0.72472  0.03384  0.65314  1.0000
  H   H1617     1.0  0.92575  0.37009  0.60281  1.0000
  H   H1618     1.0  0.86952  0.49792  0.51680  1.0000
  C   C1021     1.0  0.75350  0.16763  0.70343  1.0000
  H   H1619     1.0  0.92151  0.30327  0.71110  1.0000
  C   C1022     1.0  0.94524  0.19062  0.66194  1.0000
  H   H1620     1.0  0.98899  0.17922  0.67275  1.0000
  H   H1621     1.0  0.88154  0.36707  0.61412  1.0000
  H   H1622     1.0  0.96048  0.19976  0.65498  1.0000
  H   H1623     1.0  0.99156  0.34843  0.49657  1.0000
  H   H1624     1.0  0.76325  0.14898  0.63361  1.0000
  N   N101      1.0  0.95241  0.28303  0.72169  1.0000
  H   H1625     1.0  0.72460  0.17408  0.60343  1.0000
  H   H1626     1.0  0.67528  0.02519  0.63124  1.0000
  C   C1023     1.0  0.79008  0.18367  0.70809  1.0000
  C   C1024     1.0  0.76228  0.16630  0.72832  1.0000
  C   C1025     1.0  0.69155  0.15262  0.72465  1.0000
  S   S409      1.0  0.68025  0.09662  0.59079  1.0000
  H   H1627     1.0  0.79680  0.13710  0.70074  1.0000
  H   H1628     1.0  0.94990  0.31570  0.48237  1.0000
  C   C1026     1.0  0.78817  0.13934  0.71216  1.0000
  H   H1629     1.0  0.80348  0.13607  0.71925  1.0000
  H   H1630     1.0  0.96450  0.18325  0.68748  1.0000
  C   C1027     1.0  0.99333  0.36259  0.50374  1.0000
  H   H1631     1.0  0.98025  0.30293  0.72723  1.0000
  C   C1028     1.0  0.68892  0.00382  0.65725  1.0000
  Fe  Fe209     1.0  0.79300  0.33867  0.80149  1.0000
  S   S410      1.0  0.83426  0.33120  0.79372  1.0000
  S   S411      1.0  0.77492  0.30283  0.80469  1.0000
  Fe  Fe210     1.0  0.79508  0.39487  0.79989  1.0000
  S   S412      1.0  0.83583  0.39096  0.79168  1.0000
  S   S413      1.0  0.77339  0.43267  0.80417  1.0000
  Fe  Fe211     1.0  0.82721  0.36463  0.77714  1.0000
  S   S414      1.0  0.84115  0.36819  0.75277  1.0000
  Fe  Fe212     1.0  0.83918  0.35800  0.80908  1.0000
  S   S415      1.0  0.87299  0.35474  0.82140  1.0000
  S   S416      1.0  0.78579  0.37097  0.78401  1.0000
  S   S417      1.0  0.79863  0.36301  0.81824  1.0000
  Fe  Fe213     1.0  0.89834  0.37806  0.89977  1.0000
  S   S418      1.0  0.93975  0.37360  0.89251  1.0000
  S   S419      1.0  0.86697  0.36829  0.88883  1.0000
  Fe  Fe214     1.0  0.90335  0.40190  0.92705  1.0000
  S   S420      1.0  0.94490  0.39938  0.92210  1.0000
  S   S421      1.0  0.88615  0.42192  0.94648  1.0000
  Fe  Fe215     1.0  0.93786  0.41204  0.89885  1.0000
  S   S422      1.0  0.95732  0.44252  0.88528  1.0000
  Fe  Fe216     1.0  0.94354  0.36141  0.91642  1.0000
  S   S423      1.0  0.97037  0.32890  0.92493  1.0000
  S   S424      1.0  0.89624  0.41775  0.90411  1.0000
  S   S425      1.0  0.90224  0.36250  0.92337  1.0000
  C   C1029     1.0  0.96091  0.46484  0.89637  1.0000
  C   C1030     1.0  0.68652  0.02051  0.91350  1.0000
  H   H1632     1.0  0.97395  0.46927  0.93068  1.0000
  H   H1633     1.0  0.97372  0.43803  0.91400  1.0000
  H   H1634     1.0  0.71486  0.11592  0.75369  1.0000
  C   C1031     1.0  0.69079  0.06504  0.85733  1.0000
  H   H1635     1.0  0.89440  0.47577  0.94510  1.0000
  H   H1636     1.0  0.81310  0.42061  0.82228  1.0000
  C   C1032     1.0  0.69044  0.15066  0.75518  1.0000
  C   C1033     1.0  0.70824  0.00533  0.90867  1.0000
  C   C1034     1.0  0.78848  0.45976  0.80141  1.0000
  C   C1035     1.0  0.81303  0.45946  0.79459  1.0000
  H   H1637     1.0  0.93810  0.29931  0.74150  1.0000
  H   H1638     1.0  0.75025  0.15142  0.73242  1.0000
  C   C1036     1.0  0.77607  0.48177  0.80673  1.0000
  H   H1639     1.0  0.82262  0.44295  0.79015  1.0000
  C   C1037     1.0  0.68207  0.08206  0.88040  1.0000
  C   C1038     1.0  0.85984  0.43137  0.82215  1.0000
  C   C1039     1.0  0.87149  0.35620  0.84045  1.0000
  C   C1040     1.0  0.84919  0.35496  0.84986  1.0000
  C   C1041     1.0  0.84829  0.35817  0.86473  1.0000
  C   C1042     1.0  0.86963  0.36257  0.87034  1.0000
  C   C1043     1.0  0.89209  0.36322  0.86103  1.0000
  C   C1044     1.0  0.89301  0.35993  0.84615  1.0000
  H   H1640     1.0  0.83261  0.35169  0.84567  1.0000
  H   H1641     1.0  0.83091  0.35743  0.87191  1.0000
  H   H1642     1.0  0.90866  0.36646  0.86525  1.0000
  H   H1643     1.0  0.91038  0.36073  0.83897  1.0000
  C   C1045     1.0  0.85272  0.34190  0.74357  1.0000
  C   C1046     1.0  0.85593  0.31796  0.75123  1.0000
  C   C1047     1.0  0.86376  0.29722  0.74354  1.0000
  C   C1048     1.0  0.82200  0.41449  0.83250  1.0000
  H   H1644     1.0  0.87641  0.37087  0.95496  1.0000
  H   H1645     1.0  0.74491  0.30747  0.77219  1.0000
  H   H1646     1.0  0.85231  0.31542  0.76307  1.0000
  H   H1647     1.0  0.86610  0.27873  0.74956  1.0000
  N   N102      1.0  0.68816  0.23524  0.84400  1.0000
  C   C1049     1.0  0.74427  0.29759  0.80288  1.0000
  C   C1050     1.0  0.72420  0.31678  0.80239  1.0000
  C   C1051     1.0  0.70013  0.31145  0.80115  1.0000
  C   C1052     1.0  0.69593  0.28700  0.80022  1.0000
  C   C1053     1.0  0.71612  0.26794  0.80037  1.0000
  C   C1054     1.0  0.74008  0.27318  0.80184  1.0000
  H   H1648     1.0  0.72712  0.33564  0.80321  1.0000
  H   H1649     1.0  0.71324  0.24913  0.79944  1.0000
  H   H1650     1.0  0.75553  0.25823  0.80212  1.0000
  S   S426      1.0  0.68854  0.05150  0.91581  1.0000
  C   C1055     1.0  0.77283  0.29684  0.74744  1.0000
  H   H1651     1.0  0.81328  0.29317  0.76109  1.0000
  H   H1652     1.0  0.78772  0.28571  0.77470  1.0000
  C   C1056     1.0  0.82540  0.48048  0.79363  1.0000
  C   C1057     1.0  0.00098  0.33278  0.92722  1.0000
  H   H1653     1.0  0.89372  0.43107  0.97515  1.0000
  H   H1654     1.0  0.71027  0.20261  0.83619  1.0000
  H   H1655     1.0  0.84460  0.47972  0.78864  1.0000
  H   H1656     1.0  0.77512  0.34634  0.74079  1.0000
  C   C1058     1.0  0.70442  0.13150  0.74766  1.0000
  C   C1059     1.0  0.70612  0.23927  0.85369  1.0000
  C   C1060     1.0  0.95478  0.49020  0.89162  1.0000
  N   N103      1.0  0.67269  0.06734  0.87067  1.0000
  H   H1657     1.0  0.71599  0.22126  0.85848  1.0000
  H   H1658     1.0  0.79288  0.34881  0.75526  1.0000
  C   C1061     1.0  0.67575  0.25961  0.83777  1.0000
  H   H1659     1.0  0.91563  0.47964  0.91283  1.0000
  H   H1660     1.0  0.94610  0.26596  0.74403  1.0000
  H   H1661     1.0  0.97751  0.31111  0.95648  1.0000
  H   H1662     1.0  0.80587  0.32941  0.74132  1.0000
  C   C1062     1.0  0.78830  0.33562  0.74825  1.0000
  H   H1663     1.0  0.91832  0.27975  0.73612  1.0000
  C   C1063     1.0  0.85009  0.42344  0.84846  1.0000
  H   H1664     1.0  0.83183  0.39537  0.83155  1.0000
  H   H1665     1.0  0.86153  0.40491  0.84827  1.0000
  H   H1666     1.0  0.83527  0.42178  0.85797  1.0000
  H   H1667     1.0  0.86252  0.43652  0.85061  1.0000
  H   H1668     1.0  0.89602  0.45770  0.92207  1.0000
  H   H1669     1.0  0.68880  0.21911  0.82414  1.0000
  H   H1670     1.0  0.93075  0.36603  0.96498  1.0000
  H   H1671     1.0  0.74045  0.33433  0.75879  1.0000
  H   H1672     1.0  0.68769  0.03223  0.88186  1.0000
  C   C1064     1.0  0.89457  0.49445  0.93847  1.0000
  N   N104      1.0  0.88236  0.49576  0.92506  1.0000
  H   H1673     1.0  0.70940  0.05566  0.86013  1.0000
  C   C1065     1.0  0.67702  0.17088  0.74742  1.0000
  H   H1674     1.0  0.79033  0.28985  0.74065  1.0000
  C   C1066     1.0  0.70164  0.22159  0.83197  1.0000
  H   H1675     1.0  0.68042  0.14758  0.86297  1.0000
  H   H1676     1.0  0.99484  0.33344  0.96128  1.0000
  H   H1677     1.0  0.99921  0.40553  0.90037  1.0000
  S   S427      1.0  0.67383  0.16615  0.83294  1.0000
  C   C1067     1.0  0.96823  0.45743  0.91037  1.0000
  N   N105      1.0  0.83945  0.43161  0.83448  1.0000
  C   C1068     1.0  0.98064  0.32080  0.96572  1.0000
  C   C1069     1.0  0.75403  0.32325  0.76588  1.0000
  C   C1070     1.0  0.79560  0.30117  0.76722  1.0000
  H   H1678     1.0  0.68461  0.32634  0.80104  1.0000
  H   H1679     1.0  0.80680  0.41329  0.84181  1.0000
  C   C1071     1.0  0.82589  0.45708  0.83479  1.0000
  N   N106      1.0  0.77768  0.31424  0.75720  1.0000
  H   H1680     1.0  0.75922  0.30605  0.73980  1.0000
  H   H1681     1.0  0.96151  0.36607  0.95531  1.0000
  C   C1072     1.0  0.94731  0.35382  0.96043  1.0000
  H   H1682     1.0  0.87034  0.41227  0.82166  1.0000
  H   H1683     1.0  0.80053  0.31404  0.77432  1.0000
  C   C1073     1.0  0.88553  0.40264  0.96339  1.0000
  H   H1684     1.0  0.69006  0.14979  0.76694  1.0000
  H   H1685     1.0  0.85542  0.47194  0.93552  1.0000
  C   C1074     1.0  0.67759  0.17174  0.73216  1.0000
  H   H1686     1.0  0.85245  0.43724  0.81143  1.0000
  H   H1687     1.0  0.81060  0.45785  0.84409  1.0000
  H   H1688     1.0  0.81717  0.46364  0.82458  1.0000
  C   C1075     1.0  0.88066  0.37803  0.96448  1.0000
  H   H1689     1.0  0.98881  0.30641  0.97409  1.0000
  H   H1690     1.0  0.83857  0.47070  0.83584  1.0000
  H   H1691     1.0  0.93416  0.30814  0.96795  1.0000
  H   H1692     1.0  0.69348  0.08369  0.85118  1.0000
  C   C1076     1.0  0.96854  0.47519  0.91979  1.0000
  C   C1077     1.0  0.93816  0.28196  0.73650  1.0000
  H   H1693     1.0  0.68950  0.27123  0.83124  1.0000
  H   H1694     1.0  0.87342  0.44408  0.82319  1.0000
  H   H1695     1.0  0.75725  0.33523  0.77400  1.0000
  H   H1696     1.0  0.76504  0.28037  0.75387  1.0000
  H   H1697     1.0  0.94902  0.49602  0.88081  1.0000
  H   H1698     1.0  0.72058  0.25048  0.84757  1.0000
  H   H1699     1.0  0.71675  0.23166  0.82565  1.0000
  H   H1700     1.0  0.77683  0.16438  0.73584  1.0000
  S   S428      1.0  0.68113  0.20872  0.79439  1.0000
  H   H1701     1.0  0.00207  0.42129  0.86770  1.0000
  H   H1702     1.0  0.84653  0.49160  0.91935  1.0000
  C   C1078     1.0  0.93868  0.31711  0.97713  1.0000
  C   C1079     1.0  0.89587  0.47674  0.91598  1.0000
  H   H1703     1.0  0.99054  0.39386  0.87739  1.0000
  C   C1080     1.0  0.85625  0.49084  0.92921  1.0000
  H   H1704     1.0  0.75701  0.48224  0.81196  1.0000
  H   H1705     1.0  0.69658  0.24945  0.86294  1.0000
  H   H1706     1.0  0.68435  0.05400  0.84974  1.0000
  H   H1707     1.0  0.99718  0.37254  0.92118  1.0000
  H   H1708     1.0  0.68553  0.10075  0.87473  1.0000
  H   H1709     1.0  0.94158  0.34524  0.95145  1.0000
  H   H1710     1.0  0.88740  0.47705  0.90571  1.0000
  C   C1081     1.0  0.89032  0.41194  0.97589  1.0000
  H   H1711     1.0  0.69989  0.07252  0.88431  1.0000
  N   N107      1.0  0.95706  0.33468  0.97192  1.0000
  C   C1082     1.0  0.70505  0.13242  0.73238  1.0000
  H   H1712     1.0  0.72605  0.01238  0.90704  1.0000
  H   H1713     1.0  0.91447  0.49758  0.93572  1.0000
  H   H1714     1.0  0.87731  0.34363  0.97874  1.0000
  C   C1083     1.0  0.88116  0.36264  0.97796  1.0000
  H   H1715     1.0  0.67795  0.20189  0.85732  1.0000
  C   C1084     1.0  0.96121  0.50041  0.91535  1.0000
  H   H1716     1.0  0.97509  0.36049  0.98086  1.0000
  Fe  Fe217     1.0  0.79098  0.62346  0.18276  1.0000
  S   S429      1.0  0.82693  0.63938  0.17472  1.0000
  S   S430      1.0  0.74987  0.63910  0.18277  1.0000
  Fe  Fe218     1.0  0.81758  0.57355  0.19536  1.0000
  S   S431      1.0  0.85550  0.58589  0.18919  1.0000
  S   S432      1.0  0.81163  0.53481  0.20690  1.0000
  Fe  Fe219     1.0  0.83851  0.62257  0.19688  1.0000
  S   S433      1.0  0.85795  0.64801  0.20769  1.0000
  Fe  Fe220     1.0  0.84169  0.60165  0.16757  1.0000
  S   S434      1.0  0.86935  0.58752  0.14894  1.0000
  S   S435      1.0  0.80178  0.60883  0.20522  1.0000
  S   S436      1.0  0.80472  0.58723  0.17346  1.0000
  H   H1717     1.0  0.68417  0.76012  0.21147  1.0000
  C   C1085     1.0  0.68563  0.86278  0.21844  1.0000
  C   C1086     1.0  0.74849  0.56740  0.19113  1.0000
  N   N108      1.0  0.83039  0.61454  0.05212  1.0000
  Fe  Fe221     1.0  0.93613  0.55050  0.06446  1.0000
  S   S437      1.0  0.89735  0.56738  0.06046  1.0000
  C   C1087     1.0  0.83494  0.59351  0.04325  1.0000
  Fe  Fe222     1.0  0.95855  0.59586  0.04952  1.0000
  S   S438      1.0  0.92166  0.61666  0.04392  1.0000
  H   H1718     1.0  0.69997  0.79950  0.20090  1.0000
  Fe  Fe223     1.0  0.90748  0.60197  0.06698  1.0000
  S   S439      1.0  0.88004  0.62683  0.08086  1.0000
  Fe  Fe224     1.0  0.91470  0.58030  0.03779  1.0000
  S   S440      1.0  0.89431  0.57292  0.01956  1.0000
  S   S441      1.0  0.94492  0.58399  0.07307  1.0000
  S   S442      1.0  0.95297  0.56072  0.04132  1.0000
  H   H1719     1.0  0.74994  0.58635  0.18512  1.0000
  H   H1720     1.0  0.85299  0.63722  0.03632  1.0000
  H   H1721     1.0  0.93221  0.62703  0.09005  1.0000
  H   H1722     1.0  0.81967  0.58163  0.04581  1.0000
  C   C1088     1.0  0.68742  0.91973  0.07996  1.0000
  C   C1089     1.0  0.91688  0.62139  0.98455  1.0000
  C   C1090     1.0  0.68617  0.91233  0.10635  1.0000
  H   H1723     1.0  0.81356  0.59335  0.07137  1.0000
  C   C1091     1.0  0.70874  0.58212  0.20406  1.0000
  H   H1724     1.0  0.84840  0.64579  0.05471  1.0000
  N   N109      1.0  0.72300  0.76477  0.20627  1.0000
  H   H1725     1.0  0.97745  0.61416  0.08438  1.0000
  H   H1726     1.0  0.68730  0.87239  0.09169  1.0000
  C   C1092     1.0  0.80196  0.51438  0.18293  1.0000
  H   H1727     1.0  0.86015  0.53638  0.14779  1.0000
  H   H1728     1.0  0.80269  0.64619  0.05566  1.0000
  C   C1093     1.0  0.87106  0.59890  0.13010  1.0000
  C   C1094     1.0  0.85682  0.62094  0.12474  1.0000
  C   C1095     1.0  0.85955  0.62943  0.10959  1.0000
  C   C1096     1.0  0.87631  0.61581  0.09977  1.0000
  C   C1097     1.0  0.89024  0.59364  0.10515  1.0000
  C   C1098     1.0  0.88772  0.58533  0.12024  1.0000
  H   H1729     1.0  0.84399  0.63156  0.13228  1.0000
  H   H1730     1.0  0.84871  0.64663  0.10551  1.0000
  H   H1731     1.0  0.90303  0.58286  0.09771  1.0000
  H   H1732     1.0  0.89878  0.56827  0.12430  1.0000
  C   C1099     1.0  0.73932  0.67111  0.17790  1.0000
  C   C1100     1.0  0.71367  0.67980  0.18045  1.0000
  C   C1101     1.0  0.70449  0.70497  0.17635  1.0000
  C   C1102     1.0  0.72088  0.72159  0.16944  1.0000
  C   C1103     1.0  0.74653  0.71293  0.16697  1.0000
  C   C1104     1.0  0.75576  0.68785  0.17127  1.0000
  H   H1733     1.0  0.70079  0.66698  0.18553  1.0000
  H   H1734     1.0  0.68469  0.71138  0.17828  1.0000
  H   H1735     1.0  0.75935  0.72564  0.16162  1.0000
  H   H1736     1.0  0.77553  0.68139  0.16921  1.0000
  H   H1737     1.0  0.80708  0.63781  0.03733  1.0000
  C   C1105     1.0  0.91278  0.60928  0.99893  1.0000
  C   C1106     1.0  0.74649  0.75064  0.20014  1.0000
  H   H1738     1.0  0.97386  0.65877  0.06027  1.0000
  H   H1739     1.0  0.76779  0.55791  0.19209  1.0000
  H   H1740     1.0  0.68911  0.93188  0.10686  1.0000
  C   C1107     1.0  0.82901  0.60485  0.06791  1.0000
  H   H1741     1.0  0.75119  0.53263  0.21449  1.0000
  H   H1742     1.0  0.94083  0.66841  0.06446  1.0000
  H   H1743     1.0  0.94273  0.65922  0.22456  1.0000
  H   H1744     1.0  0.86910  0.61857  0.05048  1.0000
  C   C1108     1.0  0.85106  0.62978  0.04819  1.0000
  C   C1109     1.0  0.90167  0.58743  0.00154  1.0000
  H   H1745     1.0  0.95711  0.50941  0.99395  1.0000
  H   H1746     1.0  0.93181  0.52997  0.02212  1.0000
  H   H1747     1.0  0.91752  0.61728  0.00802  1.0000
  C   C1110     1.0  0.96473  0.67636  0.08650  1.0000
  H   H1748     1.0  0.85930  0.51940  0.18790  1.0000
  H   H1749     1.0  0.85270  0.58130  0.04524  1.0000
  H   H1750     1.0  0.72285  0.53232  0.20678  1.0000
  C   C1111     1.0  0.93802  0.50961  0.02234  1.0000
  H   H1751     1.0  0.99834  0.57868  0.06860  1.0000
  C   C1112     1.0  0.93651  0.64533  0.09219  1.0000
  H   H1752     1.0  0.75072  0.73226  0.20681  1.0000
  H   H1753     1.0  0.74843  0.60149  0.20928  1.0000
  H   H1754     1.0  0.88644  0.56066  0.99159  1.0000
  C   C1113     1.0  0.70221  0.75007  0.20683  1.0000
  H   H1755     1.0  0.82606  0.62026  0.07491  1.0000
  H   H1756     1.0  0.83661  0.60015  0.03126  1.0000
  H   H1757     1.0  0.97733  0.62419  0.22590  1.0000
  H   H1758     1.0  0.91184  0.52104  0.17090  1.0000
  H   H1759     1.0  0.69979  0.74628  0.19567  1.0000
  H   H1760     1.0  0.69007  0.93962  0.07962  1.0000
  N   N110      1.0  0.73399  0.56867  0.20576  1.0000
  H   H1761     1.0  0.79988  0.53312  0.17732  1.0000
  H   H1762     1.0  0.84029  0.51565  0.15872  1.0000
  H   H1763     1.0  0.69724  0.58357  0.21488  1.0000
  H   H1764     1.0  0.74535  0.74692  0.18876  1.0000
  H   H1765     1.0  0.73629  0.58353  0.22574  1.0000
  H   H1766     1.0  0.71671  0.78559  0.18535  1.0000
  H   H1767     1.0  0.84668  0.59305  0.07058  1.0000
  C   C1114     1.0  0.74669  0.58213  0.21462  1.0000
  H   H1768     1.0  0.92875  0.50523  0.98737  1.0000
  C   C1115     1.0  0.98086  0.63278  0.08649  1.0000
  H   H1769     1.0  0.89289  0.52349  0.01285  1.0000
  H   H1770     1.0  0.88733  0.54688  0.17199  1.0000
  C   C1116     1.0  0.89515  0.53081  0.16584  1.0000
  C   C1117     1.0  0.72523  0.76976  0.22125  1.0000
  C   C1118     1.0  0.86280  0.64634  0.22635  1.0000
  H   H1771     1.0  0.70548  0.73174  0.21368  1.0000
  C   C1119     1.0  0.67242  0.84586  0.21360  1.0000
  H   H1772     1.0  0.69864  0.57261  0.19734  1.0000
  C   C1120     1.0  0.85458  0.52790  0.15921  1.0000
  C   C1121     1.0  0.90026  0.50331  0.01340  1.0000
  H   H1773     1.0  0.93797  0.64392  0.10414  1.0000
  S   S443      1.0  0.94519  0.51136  0.07510  1.0000
  C   C1122     1.0  0.89536  0.57737  0.98965  1.0000
  H   H1774     1.0  0.69011  0.87922  0.21116  1.0000
  H   H1775     1.0  0.93025  0.53267  0.99564  1.0000
  N   N111      1.0  0.87631  0.51396  0.16601  1.0000
  H   H1776     1.0  0.90151  0.53884  0.15444  1.0000
  H   H1777     1.0  0.70620  0.90859  0.07841  1.0000
  N   N112      1.0  0.67272  0.91072  0.09381  1.0000
  H   H1778     1.0  0.67780  0.91871  0.07028  1.0000
  S   S444      1.0  0.71026  0.75333  0.16385  1.0000
  C   C1123     1.0  0.95663  0.65402  0.06743  1.0000
  H   H1779     1.0  0.74052  0.78112  0.22126  1.0000
  H   H1780     1.0  0.73980  0.55695  0.18420  1.0000
  C   C1124     1.0  0.71795  0.78867  0.19683  1.0000
  C   C1125     1.0  0.93637  0.51219  0.99630  1.0000
  H   H1781     1.0  0.98415  0.63115  0.09819  1.0000
  H   H1782     1.0  0.79058  0.61923  0.05199  1.0000
  C   C1126     1.0  0.80662  0.63013  0.04914  1.0000
  H   H1783     1.0  0.76265  0.76107  0.19966  1.0000
  C   C1127     1.0  0.80741  0.51003  0.19743  1.0000
  H   H1784     1.0  0.92456  0.63880  0.98272  1.0000
  H   H1785     1.0  0.95283  0.63608  0.06451  1.0000
  H   H1786     1.0  0.70974  0.60149  0.19846  1.0000
  H   H1787     1.0  0.94913  0.69139  0.08408  1.0000
  H   H1788     1.0  0.89445  0.51699  0.06892  1.0000
  S   S445      1.0  0.99278  0.61488  0.04272  1.0000
  N   N113      1.0  0.95966  0.65211  0.08316  1.0000
  H   H1789     1.0  0.84545  0.54345  0.16548  1.0000
  H   H1790     1.0  0.96715  0.67562  0.09829  1.0000
  H   H1791     1.0  0.67554  0.90564  0.11698  1.0000
  H   H1792     1.0  0.70763  0.78026  0.22614  1.0000
  H   H1793     1.0  0.91999  0.65924  0.08978  1.0000
  H   H1794     1.0  0.73290  0.80058  0.19643  1.0000
  H   H1795     1.0  0.72158  0.54326  0.22431  1.0000
  H   H1796     1.0  0.72917  0.75215  0.22868  1.0000
  C   C1128     1.0  0.86818  0.50411  0.18134  1.0000
  H   H1797     1.0  0.76586  0.57250  0.21609  1.0000
  C   C1129     1.0  0.73224  0.54310  0.21317  1.0000
  H   H1798     1.0  0.86960  0.68461  0.22388  1.0000
  H   H1799     1.0  0.70481  0.90074  0.10555  1.0000
  H   H1800     1.0  0.95879  0.50672  0.02094  1.0000
  H   H1801     1.0  0.98211  0.68196  0.07987  1.0000
  H   H1802     1.0  0.99852  0.63689  0.07955  1.0000
  Fe  Fe225     1.0  0.89997  0.72739  0.28304  1.0000
  S   S446      1.0  0.87785  0.69909  0.29684  1.0000
  S   S447      1.0  0.88520  0.76780  0.27611  1.0000
  Fe  Fe226     1.0  0.94944  0.69177  0.28241  1.0000
  S   S448      1.0  0.93072  0.66080  0.29592  1.0000
  Fe  Fe227     1.0  0.89969  0.67259  0.28161  1.0000
  S   S449      1.0  0.88369  0.64195  0.27316  1.0000
  Fe  Fe228     1.0  0.91076  0.68982  0.30977  1.0000
  S   S450      1.0  0.91133  0.68928  0.33421  1.0000
  S   S451      1.0  0.91989  0.70149  0.26701  1.0000
  S   S452      1.0  0.93136  0.72020  0.29706  1.0000
  Fe  Fe229     1.0  0.74745  0.90670  0.27993  1.0000
  S   S453      1.0  0.70809  0.91115  0.27463  1.0000
  S   S454      1.0  0.76795  0.93909  0.28243  1.0000
  Fe  Fe230     1.0  0.75162  0.84947  0.28432  1.0000
  S   S455      1.0  0.71201  0.85007  0.27974  1.0000
  S   S456      1.0  0.77088  0.81056  0.29125  1.0000
  Fe  Fe231     1.0  0.72092  0.87937  0.26110  1.0000
  H   H1803     1.0  0.99544  0.54698  0.42345  1.0000
  Fe  Fe232     1.0  0.70242  0.88133  0.29363  1.0000
  H   H1804     1.0  0.97769  0.59362  0.44499  1.0000
  S   S457      1.0  0.76131  0.87721  0.26473  1.0000
  S   S458      1.0  0.74104  0.87850  0.29984  1.0000
  Fe  Fe233     1.0  0.94343  0.60520  0.42002  1.0000
  S   S459      1.0  0.90261  0.61998  0.42234  1.0000
  H   H1805     1.0  0.93174  0.53725  0.37245  1.0000
  Fe  Fe234     1.0  0.93445  0.55258  0.41807  1.0000
  S   S460      1.0  0.89292  0.56275  0.42067  1.0000
  H   H1806     1.0  0.73248  0.89871  0.33092  1.0000
  Fe  Fe235     1.0  0.90057  0.59647  0.40463  1.0000
  S   S461      1.0  0.87926  0.60490  0.38484  1.0000
  Fe  Fe236     1.0  0.89920  0.58506  0.43813  1.0000
  S   S462      1.0  0.87528  0.58632  0.46008  1.0000
  S   S463      1.0  0.94184  0.58476  0.40100  1.0000
  S   S464      1.0  0.94021  0.57177  0.43680  1.0000
  H   H1807     1.0  0.89863  0.54188  0.35586  1.0000
  C   C1130     1.0  0.99865  0.61506  0.42757  1.0000
  H   H1808     1.0  0.94368  0.62573  0.44993  1.0000
  H   H1809     1.0  0.88890  0.67148  0.45910  1.0000
  C   C1131     1.0  0.70359  0.94026  0.33873  1.0000
  H   H1810     1.0  0.74382  0.96391  0.33275  1.0000
  H   H1811     1.0  0.86764  0.60623  0.25785  1.0000
  H   H1812     1.0  0.95638  0.60477  0.23705  1.0000
  H   H1813     1.0  0.87959  0.56441  0.36637  1.0000
  H   H1814     1.0  0.96684  0.64529  0.45079  1.0000
  S   S465      1.0  0.99106  0.68246  0.27487  1.0000
  H   H1815     1.0  0.92345  0.53127  0.39190  1.0000
  C   C1132     1.0  0.69311  0.87048  0.34839  1.0000
  C   C1133     1.0  0.69096  0.87198  0.33337  1.0000
  S   S466      1.0  0.95554  0.51530  0.41373  1.0000
  H   H1816     1.0  0.91500  0.69033  0.43746  1.0000
  H   H1817     1.0  0.71026  0.86155  0.35254  1.0000
  H   H1818     1.0  0.70631  0.86398  0.32605  1.0000
  H   H1819     1.0  0.93409  0.67394  0.47505  1.0000
  H   H1820     1.0  0.68949  0.95701  0.33695  1.0000
  N   N114      1.0  0.89367  0.53055  0.37915  1.0000
  H   H1821     1.0  0.91272  0.56073  0.38219  1.0000
  C   C1134     1.0  0.97412  0.65798  0.24477  1.0000
  C   C1135     1.0  0.90365  0.66442  0.34766  1.0000
  C   C1136     1.0  0.88851  0.64732  0.34519  1.0000
  C   C1137     1.0  0.88120  0.62903  0.35664  1.0000
  C   C1138     1.0  0.88944  0.62739  0.37049  1.0000
  C   C1139     1.0  0.90512  0.64405  0.37281  1.0000
  C   C1140     1.0  0.91191  0.66268  0.36150  1.0000
  H   H1822     1.0  0.88189  0.64862  0.33461  1.0000
  H   H1823     1.0  0.86897  0.61628  0.35479  1.0000
  H   H1824     1.0  0.91154  0.64298  0.38343  1.0000
  H   H1825     1.0  0.92356  0.67588  0.36349  1.0000
  C   C1141     1.0  0.87443  0.64451  0.25536  1.0000
  C   C1142     1.0  0.92915  0.67354  0.43891  1.0000
  H   H1826     1.0  0.87907  0.68318  0.24945  1.0000
  C   C1143     1.0  0.85306  0.77937  0.27917  1.0000
  C   C1144     1.0  0.84545  0.80521  0.27701  1.0000
  C   C1145     1.0  0.82017  0.81509  0.28017  1.0000
  C   C1146     1.0  0.80234  0.79914  0.28559  1.0000
  C   C1147     1.0  0.80990  0.77328  0.28748  1.0000
  C   C1148     1.0  0.83512  0.76341  0.28422  1.0000
  H   H1827     1.0  0.85921  0.81768  0.27301  1.0000
  H   H1828     1.0  0.81458  0.83504  0.27867  1.0000
  H   H1829     1.0  0.79617  0.76082  0.29158  1.0000
  H   H1830     1.0  0.84066  0.74348  0.28569  1.0000
  H   H1831     1.0  0.75607  0.91408  0.31919  1.0000
  H   H1832     1.0  0.96476  0.67466  0.24997  1.0000
  H   H1833     1.0  0.98718  0.72770  0.28884  1.0000
  H   H1834     1.0  0.96099  0.62248  0.26641  1.0000
  S   S467      1.0  0.70799  0.88145  0.23855  1.0000
  S   S468      1.0  0.97242  0.63043  0.41946  1.0000
  C   C1149     1.0  0.69280  0.85878  0.23267  1.0000
  H   H1835     1.0  0.67284  0.79877  0.44557  1.0000
  C   C1150     1.0  0.67320  0.88035  0.35810  1.0000
  H   H1836     1.0  0.92683  0.58342  0.46582  1.0000
  C   C1151     1.0  0.99595  0.59746  0.44001  1.0000
  S   S469      1.0  0.67746  0.87930  0.37669  1.0000
  H   H1837     1.0  0.86931  0.55437  0.39315  1.0000
  H   H1838     1.0  0.72255  0.97786  0.31974  1.0000
  H   H1839     1.0  0.90298  0.64759  0.47192  1.0000
  C   C1152     1.0  0.67335  0.82075  0.23722  1.0000
  C   C1153     1.0  0.87451  0.66669  0.24578  1.0000
  C   C1154     1.0  0.75429  0.97042  0.28386  1.0000
  C   C1155     1.0  0.72887  0.97819  0.28294  1.0000
  H   H1840     1.0  0.71729  0.96529  0.28050  1.0000
  H   H1841     1.0  0.78879  0.98183  0.28759  1.0000
  C   C1156     1.0  0.74137  0.91609  0.32876  1.0000
  C   C1157     1.0  0.86792  0.62343  0.25048  1.0000
  C   C1158     1.0  0.76909  0.98763  0.28686  1.0000
  N   N115      1.0  0.72279  0.93830  0.32586  1.0000
  H   H1842     1.0  0.68197  0.89516  0.47169  1.0000
  H   H1843     1.0  0.92189  0.63979  0.23578  1.0000
  N   N116      1.0  0.95638  0.64019  0.24447  1.0000
  H   H1844     1.0  0.90521  0.50842  0.42733  1.0000
  H   H1845     1.0  0.94939  0.63296  0.46738  1.0000
  C   C1159     1.0  0.71072  0.93596  0.31291  1.0000
  H   H1846     1.0  0.70063  0.91940  0.31477  1.0000
  H   H1847     1.0  0.88066  0.52438  0.40218  1.0000
  C   C1160     1.0  0.68702  0.83739  0.24194  1.0000
  N   N117      1.0  0.85603  0.76041  0.32682  1.0000
  C   C1161     1.0  0.83163  0.76290  0.32119  1.0000
  C   C1162     1.0  0.87607  0.76196  0.31437  1.0000
  C   C1163     1.0  0.86042  0.73607  0.33595  1.0000
  C   C1164     1.0  0.85606  0.78074  0.33574  1.0000
  H   H1848     1.0  0.81593  0.76238  0.33024  1.0000
  H   H1849     1.0  0.83083  0.74753  0.31465  1.0000
  H   H1850     1.0  0.82801  0.78079  0.31391  1.0000
  H   H1851     1.0  0.87373  0.78025  0.30733  1.0000
  H   H1852     1.0  0.89490  0.75929  0.31813  1.0000
  H   H1853     1.0  0.87608  0.74741  0.30715  1.0000
  H   H1854     1.0  0.87847  0.73376  0.34063  1.0000
  H   H1855     1.0  0.86136  0.72029  0.32941  1.0000
  H   H1856     1.0  0.84536  0.73384  0.34526  1.0000
  H   H1857     1.0  0.85263  0.79933  0.32912  1.0000
  H   H1858     1.0  0.87434  0.77952  0.34002  1.0000
  H   H1859     1.0  0.84126  0.78005  0.34530  1.0000
  N   N118      1.0  0.92882  0.66282  0.45449  1.0000
  H   H1860     1.0  0.85725  0.60794  0.23239  1.0000
  H   H1861     1.0  0.71202  0.94135  0.34883  1.0000
  H   H1862     1.0  0.69335  0.92372  0.34098  1.0000
  H   H1863     1.0  0.98962  0.64947  0.25128  1.0000
  H   H1864     1.0  0.85679  0.52717  0.39032  1.0000
  H   H1865     1.0  0.69295  0.83378  0.25277  1.0000
  C   C1165     1.0  0.94801  0.64072  0.45574  1.0000
  C   C1166     1.0  0.88436  0.54402  0.36558  1.0000
  H   H1866     1.0  0.92025  0.69853  0.46248  1.0000
  H   H1867     1.0  0.72471  0.93376  0.30310  1.0000
  H   H1868     1.0  0.94782  0.67891  0.43423  1.0000
  H   H1869     1.0  0.98500  0.60866  0.24347  1.0000
  H   H1870     1.0  0.75085  0.91715  0.33847  1.0000
  H   H1871     1.0  0.93599  0.64760  0.26525  1.0000
  C   C1167     1.0  0.73554  0.96082  0.32297  1.0000
  H   H1872     1.0  0.95306  0.68730  0.45933  1.0000
  C   C1168     1.0  0.96940  0.61847  0.23740  1.0000
  H   H1873     1.0  0.86721  0.53717  0.36341  1.0000
  H   H1874     1.0  0.93239  0.61841  0.25991  1.0000
  H   H1875     1.0  0.92561  0.66909  0.24116  1.0000
  H   H1876     1.0  0.92520  0.65982  0.43205  1.0000
  C   C1169     1.0  0.87425  0.53426  0.39175  1.0000
  H   H1877     1.0  0.75107  0.95914  0.31385  1.0000
  C   C1170     1.0  0.90395  0.65539  0.46011  1.0000
  C   C1171     1.0  0.91640  0.54035  0.38151  1.0000
  C   C1172     1.0  0.86198  0.62435  0.23607  1.0000
  H   H1878     1.0  0.98243  0.66473  0.23353  1.0000
  H   H1879     1.0  0.69701  0.95261  0.31011  1.0000
  C   C1173     1.0  0.91467  0.59124  0.47469  1.0000
  C   C1174     1.0  0.94608  0.63170  0.25965  1.0000
  H   H1880     1.0  0.89944  0.64081  0.45401  1.0000
  C   C1175     1.0  0.89972  0.50363  0.37781  1.0000
  H   H1881     1.0  0.99899  0.51598  0.43293  1.0000
  C   C1176     1.0  0.88875  0.59426  0.47468  1.0000
  C   C1177     1.0  0.93429  0.68151  0.46321  1.0000
  C   C1178     1.0  0.93582  0.65260  0.23610  1.0000
  C   C1179     1.0  0.86905  0.66747  0.23130  1.0000
  Fe  Fe237     1.0  0.87937  0.71658  0.67007  1.0000
  S   S470      1.0  0.87893  0.67595  0.67874  1.0000
  S   S471      1.0  0.83960  0.73555  0.66801  1.0000
  Fe  Fe238     1.0  0.93671  0.71049  0.66732  1.0000
  S   S472      1.0  0.93973  0.66983  0.67563  1.0000
  Fe  Fe239     1.0  0.91058  0.66879  0.66089  1.0000
  S   S473      1.0  0.91216  0.63618  0.64799  1.0000
  Fe  Fe240     1.0  0.90779  0.68096  0.69260  1.0000
  S   S474      1.0  0.91088  0.66697  0.71665  1.0000
  S   S475      1.0  0.90939  0.70890  0.65132  1.0000
  S   S476      1.0  0.90641  0.72205  0.68520  1.0000
  Fe  Fe241     1.0  0.72038  0.90866  0.67299  1.0000
  C   C1180     1.0  0.76527  0.99070  0.66568  1.0000
  S   S477      1.0  0.71198  0.94585  0.68218  1.0000
  Fe  Fe242     1.0  0.75520  0.86491  0.66102  1.0000
  S   S478      1.0  0.72397  0.84247  0.66103  1.0000
  S   S479      1.0  0.79648  0.85050  0.65605  1.0000
  Fe  Fe243     1.0  0.70273  0.87866  0.65183  1.0000
  N   N119      1.0  0.96701  0.71141  0.71525  1.0000
  Fe  Fe244     1.0  0.71071  0.85455  0.68336  1.0000
  C   C1181     1.0  0.87321  0.60393  0.48650  1.0000
  S   S480      1.0  0.73511  0.90061  0.65001  1.0000
  S   S481      1.0  0.74305  0.87511  0.68381  1.0000
  Fe  Fe245     1.0  0.89367  0.56582  0.55795  1.0000
  S   S482      1.0  0.88063  0.60621  0.55054  1.0000
  S   S483      1.0  0.87008  0.53481  0.55975  1.0000
  Fe  Fe246     1.0  0.94664  0.57433  0.55832  1.0000
  S   S484      1.0  0.93835  0.61516  0.55088  1.0000
  H   H1882     1.0  0.80876  0.81092  0.68992  1.0000
  Fe  Fe247     1.0  0.90410  0.61394  0.56725  1.0000
  S   S485      1.0  0.89629  0.64656  0.58069  1.0000
  Fe  Fe248     1.0  0.91612  0.60393  0.53493  1.0000
  S   S486      1.0  0.92287  0.62045  0.51113  1.0000
  S   S487      1.0  0.91403  0.57367  0.57592  1.0000
  S   S488      1.0  0.92741  0.56314  0.54113  1.0000
  H   H1883     1.0  0.69047  0.86952  0.71570  1.0000
  C   C1182     1.0  0.00001  0.59213  0.54110  1.0000
  S   S489      1.0  0.98499  0.55601  0.56267  1.0000
  H   H1884     1.0  0.92777  0.71810  0.71317  1.0000
  H   H1885     1.0  0.89612  0.51434  0.49433  1.0000
  C   C1183     1.0  0.67569  0.88301  0.61730  1.0000
  H   H1886     1.0  0.98283  0.59180  0.53663  1.0000
  H   H1887     1.0  0.67237  0.99955  0.58404  1.0000
  H   H1888     1.0  0.98999  0.68042  0.70614  1.0000
  C   C1184     1.0  0.88911  0.50596  0.56211  1.0000
  N   N120      1.0  0.88706  0.53118  0.51435  1.0000
  H   H1889     1.0  0.82334  0.65191  0.72958  1.0000
  H   H1890     1.0  0.96449  0.67207  0.71951  1.0000
  C   C1185     1.0  0.90946  0.60861  0.49787  1.0000
  C   C1186     1.0  0.88353  0.61136  0.49798  1.0000
  C   C1187     1.0  0.69944  0.87297  0.59419  1.0000
  H   H1891     1.0  0.87145  0.61966  0.50679  1.0000
  S   S490      1.0  0.97133  0.73012  0.66111  1.0000
  H   H1892     1.0  0.74861  0.84021  0.70901  1.0000
  C   C1188     1.0  0.68738  0.85380  0.72394  1.0000
  H   H1893     1.0  0.96183  0.73009  0.69360  1.0000
  H   H1894     1.0  0.89745  0.56702  0.51560  1.0000
  H   H1895     1.0  0.95705  0.63948  0.60425  1.0000
  C   C1189     1.0  0.76213  0.79830  0.69667  1.0000
  H   H1896     1.0  0.77416  0.78469  0.69004  1.0000
  C   C1190     1.0  0.68908  0.95050  0.58426  1.0000
  C   C1191     1.0  0.86157  0.65874  0.72373  1.0000
  H   H1897     1.0  0.71491  0.86913  0.61482  1.0000
  H   H1898     1.0  0.67500  0.99421  0.65335  1.0000
  C   C1192     1.0  0.97714  0.63772  0.59967  1.0000
  H   H1899     1.0  0.68802  0.93041  0.58814  1.0000
  C   C1193     1.0  0.90950  0.63926  0.62902  1.0000
  C   C1194     1.0  0.90747  0.61800  0.62261  1.0000
  C   C1195     1.0  0.90402  0.61988  0.60772  1.0000
  C   C1196     1.0  0.90239  0.64310  0.59914  1.0000
  C   C1197     1.0  0.90513  0.66429  0.60543  1.0000
  C   C1198     1.0  0.90886  0.66236  0.62029  1.0000
  H   H1900     1.0  0.90810  0.60003  0.62927  1.0000
  H   H1901     1.0  0.90189  0.60344  0.60302  1.0000
  H   H1902     1.0  0.90420  0.68229  0.59879  1.0000
  H   H1903     1.0  0.91114  0.67869  0.62503  1.0000
  C   C1199     1.0  0.90958  0.51805  0.52070  1.0000
  H   H1904     1.0  0.80290  0.77518  0.70860  1.0000
  H   H1905     1.0  0.85934  0.66510  0.71234  1.0000
  H   H1906     1.0  0.77631  0.77648  0.72247  1.0000
  C   C1200     1.0  0.82847  0.76764  0.66425  1.0000
  C   C1201     1.0  0.84424  0.78608  0.66210  1.0000
  C   C1202     1.0  0.83425  0.81140  0.65933  1.0000
  C   C1203     1.0  0.80847  0.81848  0.65883  1.0000
  C   C1204     1.0  0.79279  0.79998  0.66088  1.0000
  C   C1205     1.0  0.80278  0.77471  0.66352  1.0000
  H   H1907     1.0  0.86408  0.78090  0.66256  1.0000
  H   H1908     1.0  0.84653  0.82561  0.65768  1.0000
  H   H1909     1.0  0.77298  0.80517  0.66036  1.0000
  H   H1910     1.0  0.79045  0.76056  0.66508  1.0000
  H   H1911     1.0  0.99336  0.72606  0.69787  1.0000
  H   H1912     1.0  0.70393  0.95144  0.57473  1.0000
  N   N121      1.0  0.77663  0.80855  0.70616  1.0000
  H   H1913     1.0  0.74552  0.81451  0.72292  1.0000
  H   H1914     1.0  0.75714  0.95469  0.66195  1.0000
  C   C1206     1.0  0.78975  0.78785  0.71543  1.0000
  C   C1207     1.0  0.75950  0.82492  0.71563  1.0000
  H   H1915     1.0  0.94986  0.61120  0.58703  1.0000
  C   C1208     1.0  0.88126  0.55648  0.51881  1.0000
  H   H1916     1.0  0.94504  0.59605  0.48619  1.0000
  H   H1917     1.0  0.86169  0.51589  0.53197  1.0000
  H   H1918     1.0  0.91943  0.52156  0.56836  1.0000
  C   C1209     1.0  0.79518  0.82295  0.69690  1.0000
  S   S491      1.0  0.67989  0.87682  0.56805  1.0000
  N   N122      1.0  0.83800  0.69915  0.63245  1.0000
  C   C1210     1.0  0.81269  0.71161  0.63705  1.0000
  C   C1211     1.0  0.85523  0.71809  0.62823  1.0000
  C   C1212     1.0  0.83728  0.68571  0.61980  1.0000
  C   C1213     1.0  0.84676  0.68123  0.64477  1.0000
  H   H1919     1.0  0.79922  0.69791  0.64053  1.0000
  H   H1920     1.0  0.80545  0.72522  0.62801  1.0000
  H   H1921     1.0  0.81267  0.72212  0.64650  1.0000
  H   H1922     1.0  0.87447  0.70945  0.62458  1.0000
  H   H1923     1.0  0.84904  0.73214  0.61910  1.0000
  H   H1924     1.0  0.85641  0.72837  0.63760  1.0000
  H   H1925     1.0  0.85592  0.67551  0.61632  1.0000
  H   H1926     1.0  0.83146  0.69869  0.61013  1.0000
  H   H1927     1.0  0.82407  0.67162  0.62252  1.0000
  H   H1928     1.0  0.86610  0.67201  0.64189  1.0000
  H   H1929     1.0  0.83463  0.66627  0.64804  1.0000
  H   H1930     1.0  0.84688  0.69065  0.65462  1.0000
  C   C1214     1.0  0.67798  0.87972  0.58696  1.0000
  S   S492      1.0  0.70026  0.82402  0.70156  1.0000
  H   H1931     1.0  0.75318  0.81332  0.68889  1.0000
  H   H1932     1.0  0.78613  0.83816  0.68930  1.0000
  H   H1933     1.0  0.98416  0.65537  0.60074  1.0000
  H   H1934     1.0  0.95856  0.68610  0.70150  1.0000
  H   H1935     1.0  0.93750  0.73662  0.72529  1.0000
  H   H1936     1.0  0.70917  0.98937  0.69623  1.0000
  C   C1215     1.0  0.96729  0.65357  0.57517  1.0000
  C   C1216     1.0  0.73144  0.96960  0.67937  1.0000
  C   C1217     1.0  0.75190  0.97003  0.66844  1.0000
  H   H1937     1.0  0.85314  0.60634  0.48655  1.0000
  C   C1218     1.0  0.97031  0.60947  0.58338  1.0000
  S   S493      1.0  0.67257  0.88440  0.63642  1.0000
  N   N123      1.0  0.98056  0.63264  0.58423  1.0000
  C   C1219     1.0  0.00079  0.71788  0.66699  1.0000
  C   C1220     1.0  0.86572  0.51726  0.51977  1.0000
  C   C1221     1.0  0.69834  0.87462  0.60931  1.0000
  C   C1222     1.0  0.72486  0.98965  0.68769  1.0000
  H   H1938     1.0  0.71698  0.86620  0.58811  1.0000
  H   H1939     1.0  0.68103  0.99262  0.56547  1.0000
  H   H1940     1.0  0.80598  0.83170  0.70360  1.0000
  C   C1223     1.0  0.92497  0.59829  0.48628  1.0000
  H   H1941     1.0  0.87518  0.54312  0.49296  1.0000
  C   C1224     1.0  0.91298  0.50488  0.56617  1.0000
  H   H1942     1.0  0.87663  0.55594  0.53089  1.0000
  H   H1943     1.0  0.92613  0.52791  0.51675  1.0000
  H   H1944     1.0  0.76974  0.83364  0.72266  1.0000
  H   H1945     1.0  0.78087  0.99110  0.65708  1.0000
  H   H1946     1.0  0.84843  0.52663  0.51517  1.0000
  C   C1225     1.0  0.97023  0.68642  0.71038  1.0000
  H   H1947     1.0  0.97951  0.59323  0.59023  1.0000
  H   H1948     1.0  0.70784  0.99430  0.65359  1.0000
  H   H1949     1.0  0.98718  0.62240  0.60675  1.0000
  H   H1950     1.0  0.69528  0.95865  0.59325  1.0000
  H   H1951     1.0  0.90767  0.54358  0.49378  1.0000
  C   C1226     1.0  0.69097  0.82973  0.71992  1.0000
  C   C1227     1.0  0.89170  0.53306  0.49815  1.0000
  H   H1952     1.0  0.68992  0.79080  0.72770  1.0000
  H   H1953     1.0  0.86498  0.56732  0.51377  1.0000
  H   H1954     1.0  0.74687  0.78867  0.70322  1.0000
  S   S494      1.0  0.68684  0.88867  0.67433  1.0000
  H   H1955     1.0  0.97321  0.60480  0.57196  1.0000
  C   C1228     1.0  0.94074  0.71792  0.72145  1.0000
  H   H1956     1.0  0.94697  0.65645  0.57911  1.0000
  H   H1957     1.0  0.96912  0.65007  0.56350  1.0000
  H   H1958     1.0  0.97472  0.67135  0.57538  1.0000
  C   C1229     1.0  0.68703  0.80949  0.73074  1.0000
  H   H1959     1.0  0.98976  0.68303  0.67765  1.0000
  H   H1960     1.0  0.80082  0.79495  0.72276  1.0000
  H   H1961     1.0  0.98169  0.72978  0.73050  1.0000
  H   H1962     1.0  0.90686  0.51686  0.53289  1.0000
  C   C1230     1.0  0.97345  0.73000  0.70259  1.0000
  H   H1963     1.0  0.97056  0.74920  0.70573  1.0000
  C   C1231     1.0  0.88478  0.65786  0.72866  1.0000
  C   C1232     1.0  0.98363  0.71122  0.72656  1.0000
  H   H1964     1.0  0.67133  0.95357  0.55829  1.0000
  H   H1965     1.0  0.00362  0.70638  0.72217  1.0000
  H   H1966     1.0  0.68630  0.00054  0.66947  1.0000
  H   H1967     1.0  0.93511  0.70403  0.73088  1.0000
  S   S495      1.0  0.69824  0.74090  0.80837  1.0000
  H   H1968     1.0  0.86256  0.58841  0.76128  1.0000
  Fe  Fe249     1.0  0.77925  0.61227  0.81120  1.0000
  S   S496      1.0  0.80688  0.63906  0.80331  1.0000
  S   S497      1.0  0.73922  0.62559  0.81995  1.0000
  Fe  Fe250     1.0  0.81664  0.56693  0.80316  1.0000
  S   S498      1.0  0.84703  0.59099  0.79503  1.0000
  S   S499      1.0  0.83076  0.52705  0.79891  1.0000
  Fe  Fe251     1.0  0.83343  0.60995  0.81522  1.0000
  S   S500      1.0  0.85972  0.62211  0.82892  1.0000
  Fe  Fe252     1.0  0.81774  0.61735  0.78406  1.0000
  S   S501      1.0  0.81766  0.63325  0.76008  1.0000
  S   S502      1.0  0.80514  0.58416  0.82420  1.0000
  S   S503      1.0  0.78797  0.59240  0.79113  1.0000
  H   H1969     1.0  0.75336  0.67251  0.85529  1.0000
  C   C1233     1.0  0.75091  0.65242  0.85693  1.0000
  H   H1970     1.0  0.99369  0.55487  0.90755  1.0000
  H   H1971     1.0  0.87015  0.54782  0.77670  1.0000
  H   H1972     1.0  0.87756  0.53756  0.73745  1.0000
  C   C1234     1.0  0.68412  0.97177  0.90785  1.0000
  S   S504      1.0  0.97717  0.63290  0.89038  1.0000
  C   C1235     1.0  0.79053  0.64205  0.84256  1.0000
  Fe  Fe253     1.0  0.89871  0.59317  0.90785  1.0000
  S   S505      1.0  0.93696  0.57763  0.89827  1.0000
  S   S506      1.0  0.86554  0.58690  0.89711  1.0000
  Fe  Fe254     1.0  0.91828  0.60764  0.93468  1.0000
  S   S507      1.0  0.95767  0.59250  0.92708  1.0000
  S   S508      1.0  0.91530  0.62761  0.95481  1.0000
  Fe  Fe255     1.0  0.94956  0.61102  0.90492  1.0000
  H   H1973     1.0  0.77884  0.51964  0.81006  1.0000
  Fe  Fe256     1.0  0.94145  0.56059  0.92131  1.0000
  S   S509      1.0  0.95941  0.52178  0.92798  1.0000
  S   S510      1.0  0.91086  0.62855  0.91259  1.0000
  S   S511      1.0  0.90249  0.57382  0.93082  1.0000
  C   C1236     1.0  0.91076  0.61128  0.97262  1.0000
  C   C1237     1.0  0.70705  0.98105  0.90588  1.0000
  H   H1974     1.0  0.97001  0.61484  0.95312  1.0000
  H   H1975     1.0  0.73886  0.64874  0.86751  1.0000
  H   H1976     1.0  0.89527  0.58124  0.96610  1.0000
  H   H1977     1.0  0.75608  0.69732  0.74801  1.0000
  H   H1978     1.0  0.97911  0.65119  0.97237  1.0000
  H   H1979     1.0  0.71166  0.87800  0.89840  1.0000
  H   H1980     1.0  0.68754  0.85109  0.86940  1.0000
  C   C1238     1.0  0.78846  0.64051  0.86881  1.0000
  H   H1981     1.0  0.79405  0.66184  0.84072  1.0000
  C   C1239     1.0  0.86190  0.61097  0.84770  1.0000
  C   C1240     1.0  0.87887  0.62006  0.85500  1.0000
  C   C1241     1.0  0.88055  0.61239  0.87004  1.0000
  C   C1242     1.0  0.86497  0.59582  0.87799  1.0000
  C   C1243     1.0  0.84804  0.58662  0.87069  1.0000
  C   C1244     1.0  0.84671  0.59392  0.85557  1.0000
  H   H1982     1.0  0.89077  0.63318  0.84901  1.0000
  H   H1983     1.0  0.89365  0.61963  0.87552  1.0000
  H   H1984     1.0  0.83608  0.57361  0.87673  1.0000
  H   H1985     1.0  0.83401  0.58634  0.85002  1.0000
  C   C1245     1.0  0.88738  0.64954  0.74350  1.0000
  H   H1986     1.0  0.74041  0.64931  0.84800  1.0000
  H   H1987     1.0  0.74545  0.64917  0.78827  1.0000
  H   H1988     1.0  0.77341  0.66663  0.75008  1.0000
  H   H1989     1.0  0.90528  0.64883  0.74741  1.0000
  H   H1990     1.0  0.75934  0.60473  0.86902  1.0000
  C   C1246     1.0  0.70828  0.70875  0.81249  1.0000
  C   C1247     1.0  0.69208  0.69067  0.81461  1.0000
  C   C1248     1.0  0.70166  0.66518  0.81712  1.0000
  C   C1249     1.0  0.72745  0.65767  0.81727  1.0000
  C   C1250     1.0  0.74348  0.67581  0.81530  1.0000
  C   C1251     1.0  0.73393  0.70117  0.81301  1.0000
  H   H1991     1.0  0.76687  0.68604  0.78723  1.0000
  H   H1992     1.0  0.68908  0.65126  0.81874  1.0000
  H   H1993     1.0  0.76327  0.67045  0.81555  1.0000
  H   H1994     1.0  0.74654  0.71508  0.81143  1.0000
  H   H1995     1.0  0.69926  0.85140  0.89415  1.0000
  H   H1996     1.0  0.72399  0.96942  0.90222  1.0000
  H   H1997     1.0  0.87227  0.53564  0.92294  1.0000
  N   N124      1.0  0.85569  0.55331  0.75588  1.0000
  H   H1998     1.0  0.80701  0.62872  0.86881  1.0000
  H   H1999     1.0  0.88394  0.57655  0.74655  1.0000
  C   C1252     1.0  0.84377  0.64299  0.74836  1.0000
  C   C1253     1.0  0.86695  0.64216  0.75334  1.0000
  C   C1254     1.0  0.68738  0.87169  0.86747  1.0000
  H   H2000     1.0  0.86916  0.63586  0.76474  1.0000
  H   H2001     1.0  0.77761  0.63605  0.87972  1.0000
  C   C1255     1.0  0.90032  0.58900  0.97520  1.0000
  H   H2002     1.0  0.87448  0.52228  0.90619  1.0000
  N   N125      1.0  0.98745  0.64828  0.94926  1.0000
  H   H2003     1.0  0.82719  0.56600  0.77252  1.0000
  H   H2004     1.0  0.94876  0.52727  0.89768  1.0000
  H   H2005     1.0  0.76118  0.60596  0.84943  1.0000
  H   H2006     1.0  0.72621  0.71224  0.76913  1.0000
  N   N126      1.0  0.70527  0.87975  0.87583  1.0000
  N   N127      1.0  0.77521  0.63621  0.85673  1.0000
  H   H2007     1.0  0.99796  0.61275  0.96163  1.0000
  H   H2008     1.0  0.78859  0.67548  0.77235  1.0000
  H   H2009     1.0  0.86510  0.51983  0.77039  1.0000
  H   H2010     1.0  0.74476  0.87376  0.87719  1.0000
  H   H2011     1.0  0.77152  0.70632  0.77042  1.0000
  H   H2012     1.0  0.71693  0.91397  0.87958  1.0000
  C   C1256     1.0  0.87133  0.53844  0.76667  1.0000
  C   C1257     1.0  0.78839  0.50299  0.80565  1.0000
  H   H2013     1.0  0.98769  0.65093  0.92590  1.0000
  H   H2014     1.0  0.80905  0.63029  0.84201  1.0000
  C   C1258     1.0  0.85790  0.54026  0.74276  1.0000
  H   H2015     1.0  0.85163  0.52152  0.74565  1.0000
  C   C1259     1.0  0.73081  0.86808  0.87107  1.0000
  C   C1260     1.0  0.95456  0.50794  0.90120  1.0000
  H   H2016     1.0  0.78119  0.63866  0.83328  1.0000
  C   C1261     1.0  0.69880  0.87199  0.89167  1.0000
  C   C1262     1.0  0.81327  0.50222  0.79929  1.0000
  C   C1263     1.0  0.67916  0.81329  0.74545  1.0000
  C   C1264     1.0  0.77098  0.60983  0.85848  1.0000
  H   H2017     1.0  0.74050  0.67036  0.74874  1.0000
  H   H2018     1.0  0.95229  0.65473  0.96265  1.0000
  H   H2019     1.0  0.85260  0.58989  0.74356  1.0000
  H   H2020     1.0  0.95721  0.65226  0.93610  1.0000
  H   H2021     1.0  0.00043  0.51887  0.88432  1.0000
  H   H2022     1.0  0.97096  0.67955  0.96058  1.0000
  H   H2023     1.0  0.89133  0.53543  0.76204  1.0000
  C   C1265     1.0  0.88287  0.52078  0.91660  1.0000
  H   H2024     1.0  0.90234  0.52524  0.91364  1.0000
  H   H2025     1.0  0.67964  0.88037  0.89557  1.0000
  H   H2026     1.0  0.70905  0.91378  0.86136  1.0000
  C   C1266     1.0  0.86412  0.57806  0.75161  1.0000
  H   H2027     1.0  0.73323  0.64299  0.77241  1.0000
  C   C1267     1.0  0.84117  0.65130  0.73354  1.0000
  H   H2028     1.0  0.79194  0.66025  0.86780  1.0000
  C   C1268     1.0  0.82934  0.55647  0.76253  1.0000
  N   N128      1.0  0.74991  0.67689  0.76949  1.0000
  C   C1269     1.0  0.72578  0.69221  0.77341  1.0000
  C   C1270     1.0  0.74866  0.65079  0.77608  1.0000
  C   C1271     1.0  0.77010  0.68662  0.77511  1.0000
  C   C1272     1.0  0.75517  0.67788  0.75335  1.0000
  H   H2029     1.0  0.72095  0.69115  0.78551  1.0000
  H   H2030     1.0  0.71017  0.68581  0.76905  1.0000
  C   C1273     1.0  0.70408  0.90718  0.87317  1.0000
  H   H2031     1.0  0.76633  0.63860  0.77305  1.0000
  H   H2032     1.0  0.73228  0.84736  0.87299  1.0000
  H   H2033     1.0  0.78893  0.59706  0.85835  1.0000
  H   H2034     1.0  0.73631  0.87347  0.85915  1.0000
  H   H2035     1.0  0.82229  0.53818  0.76599  1.0000
  H   H2036     1.0  0.97406  0.67869  0.93365  1.0000
  H   H2037     1.0  0.67227  0.69632  0.81425  1.0000
  C   C1274     1.0  0.97181  0.65892  0.96179  1.0000
  H   H2038     1.0  0.69166  0.87709  0.85545  1.0000
  C   C1275     1.0  0.00296  0.53880  0.88091  1.0000
  C   C1276     1.0  0.98894  0.62081  0.95165  1.0000
  C   C1277     1.0  0.97610  0.65799  0.93565  1.0000
  C   C1278     1.0  0.67930  0.85761  0.73865  1.0000
  S   S512      1.0  0.68362  0.94125  0.90409  1.0000
  C   C1279     1.0  0.67485  0.83743  0.74943  1.0000
  H   H2039     1.0  0.68500  0.91656  0.87659  1.0000
  H   H2040     1.0  0.67610  0.87635  0.74164  1.0000
  H   H2041     1.0  0.81695  0.56792  0.75483  1.0000
  H   H2042     1.0  0.67612  0.79758  0.75368  1.0000
  H   H2043     1.0  0.84547  0.50470  0.93619  1.0000
  H   H2044     1.0  0.84627  0.55099  0.73442  1.0000
  H   H2045     1.0  0.98430  0.55012  0.88273  1.0000
  H   H2046     1.0  0.88512  0.50875  0.94553  1.0000
  H   H2047     1.0  0.99998  0.61221  0.94217  1.0000
  C   C1280     1.0  0.00393  0.63612  0.89812  1.0000
  H   H2048     1.0  0.97934  0.69728  0.73623  1.0000
