data_image0
_chemical_formula_structural       HC2H2C2H2CSH8CH3NCHFeC2NHCHSH3C3H2CSC3HC3H4CHCHCHSH2FeC2HCH4SCH4C3H4C2H4CH5CHC4SCHSFeCH3NH3SHC2SNH6NH3CHSHCHC4H2CH6CHCSH4C3H3CH5NSC2H5CH2SH4N2CHSFeS2FeSH3CH2C5H5SC2H2FeC2H5CH6NSH2SH3NH2CHCSC2HFeCH2FeS2FeSFeSC6H2S2H2C2SC4H3S2H3NHFeCSH2CH4C2HC2FeH3CH2CH2FeHSCFeSCSHFeCS2CSCHSCH2CH2CHCFeSHSFeHSCNHCFeHCH3CH2CH6CHCHCNHC2H2NH8SH2CFeSH2FeS3FeSFeCSH3C2HCH2C2HCSH3C6H4CH5FeH2S2C3HCH2CH2C3HC2NSH2FeHC2HS2H4FeH2SHCHNHCNFeS2FeS2FeHFeHS2CHNCH3CNH4C6H5CHCH3CH3NCHCH2C2H3CH3C3HSCH5C3H2CS2HSHFeCH2C3HC3H2FeSHCHSCHFeS2FeSC2HC2HNH4CH2SHCHCH2S2FeS3FeSFeCSHSCH3S2HC4HCH2C7H5C2HNCHFeSH2Fe2CHCHCHCHSHNCH3CFeHC2HFeHNH2C3H4C3H3SHSCFeSFeSFeHFeSHC6H3SHC3H2C6SH2FeCHSHCH4SH4SC2HS2HC2HSH4CH2SHC2NFeH7CH2CFeHC2H2CH3CH2CH6NCH2NHCH5CH2CSHCHFeHCSH6CNC4H2CSFeSFeH2SH2C2NHCH5CNHS2H3CSC3H2CHSCN2CHCH2SC2FeC2HCH2CH2SH4CH3FeHCHCH2CH2S2HFeSFeH2C3SNC4H2SH2FeHCH6CH3C3HCSH2NCHNSHFeH5CSH8SH2C2HCHFeSFeSHFeCFeS2CH4SHSH2SH2CNCHCHS2CSFeSHC2H2SC4HC2FeH3CHC2H2SC2H4C2HC2HCHCFeHSFeHCH2CH2CHFeS3FeSFeSHC3H2CH3CH2NC2HCH2CHCFeS2HFe2SCHC3H2CHSHC2H3SHSHCH3CH4CH4C2HFeSHFeSFeSFeHSHCH3S2H2CHS2C4HC2H2CH2NH2C2HC2H2CHCHFeSHFeSFe2S3CHCNCHCHC4H3C3HSH2CH2SCH4SC2H3NC2H2NH2CHSCSHSHFeSFeS2C2H2SH3SHCH3NFeH2CHCH4SHFeHC3HC7H4CHCH2SH2CSCH2CH4CH4CH3CFeSHSFeSFeSCSC2HC3HCHC2HC2NH2SCH2CH2C6H4CH3CHC2HSH6C3H3SHCHCNHC3NH2CH5NHFeHCH3C2H2SFeS2FeS2Fe2S3CH2C2HFeHCSH2SC5H3CHCHC2H2FeC2NH3C3HCFeHSH3CH2CNH2NH3CHC3H2FeSC2HFeSFeSC5H5C2SHC2H2SNFeH3C2HSCHC2H3FeS2H2CHC3HNH4CHCHSCHCH2SH5CH5CHFeS2FeSFe2S4H2C2H4SNSCHCSC3H2CSH2CHC3H5CHNC4H3CH2CFeHFeCH5CHSCFeSHFeSHFeSFeS3C2H4C11H4SH5SCH3SC2HNHNH3FeHCFeHCH2C2HSCH3CHCH3CSFeSFeCH3FeC3HNCH6C2H3FeH4CSH3C4H2CH4CFeH4FeH2NH2FeSFeS2FeSFeS3CH4C2H2C2HSFeHCSCNHC2HCHCH2CH6CH3CHCHCHCH2NH3C4H2SCHS2FeSFeS2H4CSCH2CHSCH3CHCHC2HCHCH2CH2C2HCHFeSFeH3CH3CSH4CHSH3CH8SCH2C2SCH5CHCHCNHC2H6CH2SCH3C2H2CH3CH3CHCH2NH6CH2CH2SCNC5H2CHS2HFeCH2C2SCSH2CSHSHCHCH5NHFeC3HC2HC2HC2SCH3NHC3H2CHCSHSH4
_chemical_formula_sum              "H1024 C640 S256 N64 Fe128"
_cell_length_a       40.9831
_cell_length_b       37.5004
_cell_length_c       42.6573
_cell_angle_alpha    89.6595
_cell_angle_beta     89.7721
_cell_angle_gamma    88.2254

_space_group_name_H-M_alt    "P 1"
_space_group_IT_number       1

loop_
  _space_group_symop_operation_xyz
  'x, y, z'

loop_
  _atom_site_type_symbol
  _atom_site_label
  _atom_site_symmetry_multiplicity
  _atom_site_fract_x
  _atom_site_fract_y
  _atom_site_fract_z
  _atom_site_occupancy
  H   H1        1.0  0.49963  0.29646  0.27951  1.0000
  C   C1        1.0  0.20480  0.27571  0.14526  1.0000
  C   C2        1.0  0.60810  0.66061  0.22547  1.0000
  H   H2        1.0  0.21560  0.29415  0.12892  1.0000
  H   H3        1.0  0.27521  0.72731  0.27361  1.0000
  C   C3        1.0  0.61577  0.64290  0.27982  1.0000
  C   C4        1.0  0.49595  0.25222  0.23039  1.0000
  H   H4        1.0  0.24503  0.66210  0.11618  1.0000
  H   H5        1.0  0.55185  0.27561  0.25465  1.0000
  C   C5        1.0  0.66431  0.52731  0.26455  1.0000
  S   S1        1.0  0.35466  0.73176  0.12740  1.0000
  H   H6        1.0  0.54235  0.25236  0.15900  1.0000
  H   H7        1.0  0.50093  0.28010  0.22318  1.0000
  H   H8        1.0  0.20986  0.26120  0.30035  1.0000
  H   H9        1.0  0.62356  0.50115  0.22166  1.0000
  H   H10       1.0  0.62400  0.72644  0.24557  1.0000
  H   H11       1.0  0.41320  0.70079  0.15322  1.0000
  H   H12       1.0  0.19904  0.47829  0.12933  1.0000
  H   H13       1.0  0.64295  0.54586  0.26056  1.0000
  C   C6        1.0  0.42666  0.73460  0.19142  1.0000
  H   H14       1.0  0.65911  0.55112  0.20544  1.0000
  H   H15       1.0  0.34771  0.70453  0.26393  1.0000
  H   H16       1.0  0.64818  0.64719  0.19444  1.0000
  N   N1        1.0  0.67335  0.50740  0.23588  1.0000
  C   C7        1.0  0.18627  0.63604  0.10271  1.0000
  H   H17       1.0  0.21435  0.74361  0.22905  1.0000
  Fe  Fe1       1.0  0.66647  0.35514  0.18775  1.0000
  C   C8        1.0  0.17838  0.49400  0.13805  1.0000
  C   C9        1.0  0.49480  0.26809  0.28513  1.0000
  N   N2        1.0  0.20127  0.63897  0.13402  1.0000
  H   H18       1.0  0.24934  0.64085  0.15384  1.0000
  C   C10       1.0  0.40676  0.72444  0.16659  1.0000
  H   H19       1.0  0.30568  0.72018  0.30354  1.0000
  S   S2        1.0  0.18285  0.45232  0.19084  1.0000
  H   H20       1.0  0.44819  0.71856  0.19736  1.0000
  H   H21       1.0  0.63092  0.26847  0.10741  1.0000
  H   H22       1.0  0.46785  0.26522  0.28654  1.0000
  C   C11       1.0  0.62674  0.74062  0.26818  1.0000
  C   C12       1.0  0.63911  0.64600  0.21829  1.0000
  C   C13       1.0  0.64617  0.48483  0.22640  1.0000
  H   H23       1.0  0.60656  0.64152  0.30360  1.0000
  H   H24       1.0  0.17918  0.31696  0.17137  1.0000
  C   C14       1.0  0.18512  0.25988  0.28981  1.0000
  S   S3        1.0  0.61459  0.34296  0.19965  1.0000
  C   C15       1.0  0.19190  0.60827  0.15364  1.0000
  C   C16       1.0  0.65873  0.63058  0.24195  1.0000
  C   C17       1.0  0.29506  0.74017  0.28680  1.0000
  H   H25       1.0  0.19659  0.69628  0.13484  1.0000
  C   C18       1.0  0.62321  0.30165  0.14774  1.0000
  C   C19       1.0  0.60256  0.31086  0.17276  1.0000
  C   C20       1.0  0.57321  0.29324  0.17678  1.0000
  H   H26       1.0  0.35488  0.73386  0.23158  1.0000
  H   H27       1.0  0.64623  0.31412  0.14490  1.0000
  H   H28       1.0  0.55719  0.30030  0.19610  1.0000
  H   H29       1.0  0.20196  0.60991  0.17775  1.0000
  C   C21       1.0  0.23718  0.63900  0.13065  1.0000
  H   H30       1.0  0.50450  0.26235  0.30903  1.0000
  C   C22       1.0  0.61451  0.27559  0.12642  1.0000
  H   H31       1.0  0.19461  0.65735  0.08656  1.0000
  C   C23       1.0  0.56488  0.26622  0.15588  1.0000
  H   H32       1.0  0.20023  0.67562  0.17277  1.0000
  S   S4        1.0  0.58466  0.68115  0.19569  1.0000
  H   H33       1.0  0.19243  0.60982  0.09169  1.0000
  H   H34       1.0  0.61741  0.72330  0.28727  1.0000
  Fe  Fe2       1.0  0.55755  0.73240  0.20774  1.0000
  C   C24       1.0  0.64706  0.62905  0.27276  1.0000
  C   C25       1.0  0.59642  0.65902  0.25628  1.0000
  H   H35       1.0  0.57235  0.66990  0.26185  1.0000
  C   C26       1.0  0.18412  0.28863  0.16923  1.0000
  H   H36       1.0  0.65804  0.50902  0.28415  1.0000
  H   H37       1.0  0.24667  0.61423  0.11907  1.0000
  H   H38       1.0  0.31764  0.71023  0.23351  1.0000
  H   H39       1.0  0.17969  0.28558  0.27739  1.0000
  S   S5        1.0  0.67119  0.61005  0.30281  1.0000
  C   C27       1.0  0.37870  0.74481  0.15895  1.0000
  H   H40       1.0  0.65238  0.46967  0.20463  1.0000
  H   H41       1.0  0.64046  0.46485  0.24488  1.0000
  H   H42       1.0  0.67339  0.69992  0.29624  1.0000
  H   H43       1.0  0.20071  0.58247  0.14334  1.0000
  C   C28       1.0  0.58557  0.25762  0.13063  1.0000
  C   C29       1.0  0.18973  0.67258  0.14896  1.0000
  C   C30       1.0  0.33574  0.72439  0.24788  1.0000
  H   H44       1.0  0.64062  0.24845  0.19442  1.0000
  H   H45       1.0  0.46903  0.24892  0.23002  1.0000
  H   H46       1.0  0.18139  0.24872  0.50961  1.0000
  H   H47       1.0  0.19787  0.30877  0.55612  1.0000
  C   C31       1.0  0.65925  0.26226  0.46860  1.0000
  C   C32       1.0  0.22212  0.65523  0.55530  1.0000
  H   H48       1.0  0.65704  0.56932  0.41447  1.0000
  H   H49       1.0  0.65442  0.33047  0.48904  1.0000
  H   H50       1.0  0.63500  0.26890  0.47921  1.0000
  H   H51       1.0  0.62785  0.31685  0.43911  1.0000
  C   C33       1.0  0.57431  0.25594  0.52530  1.0000
  H   H52       1.0  0.61182  0.33432  0.53721  1.0000
  H   H53       1.0  0.19488  0.36133  0.52135  1.0000
  H   H54       1.0  0.24696  0.66260  0.56296  1.0000
  H   H55       1.0  0.18250  0.28549  0.34814  1.0000
  H   H56       1.0  0.58993  0.34630  0.48391  1.0000
  C   C34       1.0  0.67729  0.54920  0.41124  1.0000
  H   H57       1.0  0.64806  0.28862  0.41100  1.0000
  C   C35       1.0  0.59256  0.28165  0.54039  1.0000
  C   C36       1.0  0.56875  0.29475  0.47960  1.0000
  C   C37       1.0  0.58554  0.32109  0.49540  1.0000
  C   C38       1.0  0.56266  0.26236  0.49476  1.0000
  S   S6        1.0  0.26308  0.73667  0.55405  1.0000
  C   C39       1.0  0.59792  0.31431  0.52551  1.0000
  H   H58       1.0  0.21475  0.67436  0.53631  1.0000
  S   S7        1.0  0.55842  0.30158  0.44006  1.0000
  Fe  Fe3       1.0  0.54630  0.25021  0.41687  1.0000
  C   C40       1.0  0.65227  0.30871  0.42956  1.0000
  H   H59       1.0  0.22407  0.62811  0.54493  1.0000
  H   H60       1.0  0.67169  0.53316  0.39015  1.0000
  H   H61       1.0  0.27404  0.73315  0.48734  1.0000
  N   N3        1.0  0.67395  0.29411  0.45444  1.0000
  H   H62       1.0  0.66267  0.33260  0.41814  1.0000
  H   H63       1.0  0.67724  0.53081  0.43189  1.0000
  H   H64       1.0  0.67486  0.25052  0.48754  1.0000
  S   S8        1.0  0.58084  0.27057  0.72741  1.0000
  H   H65       1.0  0.50519  0.27863  0.81613  1.0000
  C   C41       1.0  0.62176  0.34542  0.63153  1.0000
  C   C42       1.0  0.63895  0.26739  0.80102  1.0000
  S   S9        1.0  0.45542  0.25484  0.62856  1.0000
  N   N4        1.0  0.64978  0.33189  0.65032  1.0000
  H   H66       1.0  0.20792  0.36908  0.57786  1.0000
  H   H67       1.0  0.60641  0.32329  0.62371  1.0000
  H   H68       1.0  0.18728  0.71261  0.57495  1.0000
  H   H69       1.0  0.61767  0.28218  0.81152  1.0000
  H   H70       1.0  0.65409  0.38077  0.67592  1.0000
  H   H71       1.0  0.23432  0.64059  0.61622  1.0000
  N   N5        1.0  0.19864  0.65668  0.58169  1.0000
  H   H72       1.0  0.63323  0.26328  0.77581  1.0000
  H   H73       1.0  0.65817  0.30146  0.69260  1.0000
  H   H74       1.0  0.62996  0.35955  0.61001  1.0000
  C   C43       1.0  0.63772  0.31202  0.67783  1.0000
  H   H75       1.0  0.62325  0.28883  0.67057  1.0000
  S   S10       1.0  0.54799  0.28362  0.64224  1.0000
  H   H76       1.0  0.21971  0.70309  0.60196  1.0000
  C   C44       1.0  0.67070  0.30783  0.63095  1.0000
  H   H77       1.0  0.54303  0.30361  0.77668  1.0000
  C   C45       1.0  0.53990  0.27510  0.77803  1.0000
  C   C46       1.0  0.21026  0.63251  0.60706  1.0000
  C   C47       1.0  0.19580  0.69363  0.59357  1.0000
  C   C48       1.0  0.66893  0.36229  0.66091  1.0000
  H   H78       1.0  0.60571  0.36412  0.64520  1.0000
  H   H79       1.0  0.65755  0.28371  0.62378  1.0000
  C   C49       1.0  0.51849  0.26099  0.80027  1.0000
  H   H80       1.0  0.21296  0.60445  0.59884  1.0000
  H   H81       1.0  0.62146  0.32906  0.69289  1.0000
  H   H82       1.0  0.19282  0.63251  0.62710  1.0000
  H   H83       1.0  0.17810  0.69597  0.61336  1.0000
  H   H84       1.0  0.43482  0.26619  0.72257  1.0000
  H   H85       1.0  0.21861  0.25088  0.68325  1.0000
  C   C50       1.0  0.18125  0.37229  0.58251  1.0000
  H   H86       1.0  0.66045  0.28483  0.80219  1.0000
  C   C51       1.0  0.55603  0.25253  0.75664  1.0000
  S   S11       1.0  0.61134  0.27250  0.57656  1.0000
  H   H87       1.0  0.19283  0.74650  0.71812  1.0000
  H   H88       1.0  0.64309  0.68353  0.02504  1.0000
  H   H89       1.0  0.62872  0.69421  0.95539  1.0000
  H   H90       1.0  0.62099  0.25999  0.96711  1.0000
  C   C52       1.0  0.61885  0.71397  0.97260  1.0000
  C   C53       1.0  0.66933  0.74550  0.97294  1.0000
  C   C54       1.0  0.20001  0.72623  0.96727  1.0000
  H   H91       1.0  0.20781  0.69943  0.95843  1.0000
  H   H92       1.0  0.18489  0.29912  0.93911  1.0000
  H   H93       1.0  0.19373  0.72335  0.99258  1.0000
  C   C55       1.0  0.25576  0.74060  0.97892  1.0000
  H   H94       1.0  0.54747  0.73251  0.06421  1.0000
  H   H95       1.0  0.64282  0.26251  0.05170  1.0000
  H   H96       1.0  0.60629  0.73594  0.95923  1.0000
  H   H97       1.0  0.66488  0.25515  0.96730  1.0000
  H   H98       1.0  0.63235  0.25385  0.86266  1.0000
  N   N6        1.0  0.64489  0.72770  0.99269  1.0000
  S   S12       1.0  0.22843  0.25284  0.90431  1.0000
  C   C56       1.0  0.18721  0.24905  0.91453  1.0000
  C   C57       1.0  0.66085  0.69777  0.01007  1.0000
  H   H99       1.0  0.62116  0.28572  0.02095  1.0000
  H   H100      1.0  0.24073  0.73007  0.91813  1.0000
  H   H101      1.0  0.26512  0.71439  0.97000  1.0000
  H   H102      1.0  0.66494  0.28246  0.02006  1.0000
  H   H103      1.0  0.59967  0.70088  0.98680  1.0000
  C   C58       1.0  0.64258  0.26766  0.02597  1.0000
  H   H104      1.0  0.25136  0.73750  0.00454  1.0000
  H   H105      1.0  0.67252  0.67796  0.99384  1.0000
  S   S13       1.0  0.21057  0.74370  0.05834  1.0000
  H   H106      1.0  0.61162  0.74110  0.03022  1.0000
  H   H107      1.0  0.67502  0.25619  0.85296  1.0000
  H   H108      1.0  0.67044  0.74546  0.82947  1.0000
  H   H109      1.0  0.23924  0.96100  0.17221  1.0000
  N   N7        1.0  0.66100  0.74991  0.27348  1.0000
  N   N8        1.0  0.50966  0.24364  0.26165  1.0000
  C   C59       1.0  0.25740  0.94154  0.23047  1.0000
  H   H110      1.0  0.61057  0.76478  0.26702  1.0000
  S   S14       1.0  0.31493  0.82912  0.12277  1.0000
  Fe  Fe4       1.0  0.24949  0.77622  0.08005  1.0000
  S   S15       1.0  0.57767  0.22176  0.10627  1.0000
  S   S16       1.0  0.26294  0.76461  0.12996  1.0000
  Fe  Fe5       1.0  0.26194  0.82421  0.13455  1.0000
  S   S17       1.0  0.24069  0.85548  0.17491  1.0000
  H   H111      1.0  0.64831  0.79596  0.30130  1.0000
  H   H112      1.0  0.67485  0.15866  0.21590  1.0000
  H   H113      1.0  0.44126  0.79441  0.14353  1.0000
  C   C60       1.0  0.50234  0.20643  0.27010  1.0000
  H   H114      1.0  0.62160  0.85918  0.14032  1.0000
  H   H115      1.0  0.22546  0.78003  0.18160  1.0000
  C   C61       1.0  0.21377  0.78869  0.26013  1.0000
  C   C62       1.0  0.21585  0.82567  0.26224  1.0000
  C   C63       1.0  0.22321  0.84589  0.23574  1.0000
  C   C64       1.0  0.22792  0.82946  0.20674  1.0000
  C   C65       1.0  0.22354  0.79268  0.20411  1.0000
  H   H116      1.0  0.56943  0.17480  0.30736  1.0000
  H   H117      1.0  0.21228  0.83884  0.28446  1.0000
  H   H118      1.0  0.22608  0.87417  0.23805  1.0000
  H   H119      1.0  0.21905  0.98120  0.26905  1.0000
  H   H120      1.0  0.25733  0.99819  0.19137  1.0000
  S   S18       1.0  0.24471  0.83563  0.08556  1.0000
  C   C66       1.0  0.19803  0.21534  0.16400  1.0000
  C   C67       1.0  0.39021  0.78532  0.20140  1.0000
  H   H121      1.0  0.34862  0.79086  0.17084  1.0000
  H   H122      1.0  0.38388  0.80899  0.21475  1.0000
  Fe  Fe6       1.0  0.49540  0.77300  0.22624  1.0000
  C   C68       1.0  0.37042  0.77528  0.17637  1.0000
  C   C69       1.0  0.19953  0.94336  0.21982  1.0000
  H   H123      1.0  0.20316  0.18703  0.16200  1.0000
  H   H124      1.0  0.46358  0.10772  0.08621  1.0000
  H   H125      1.0  0.55746  0.22968  0.24371  1.0000
  H   H126      1.0  0.66721  0.11182  0.26300  1.0000
  H   H127      1.0  0.30528  0.19556  0.26981  1.0000
  C   C70       1.0  0.33245  0.19372  0.26991  1.0000
  H   H128      1.0  0.54529  0.76206  0.11619  1.0000
  H   H129      1.0  0.34156  0.10578  0.28872  1.0000
  H   H130      1.0  0.56747  0.14890  0.25359  1.0000
  H   H131      1.0  0.34091  0.11527  0.23065  1.0000
  H   H132      1.0  0.29110  0.80191  0.25565  1.0000
  H   H133      1.0  0.62815  0.17070  0.18064  1.0000
  N   N9        1.0  0.22911  0.96482  0.22164  1.0000
  S   S19       1.0  0.27951  0.13800  0.08049  1.0000
  H   H134      1.0  0.51289  0.18718  0.25279  1.0000
  H   H135      1.0  0.47541  0.78933  0.29759  1.0000
  S   S20       1.0  0.58447  0.12591  0.13472  1.0000
  H   H136      1.0  0.35665  0.75416  0.30158  1.0000
  H   H137      1.0  0.47552  0.20237  0.27082  1.0000
  H   H138      1.0  0.43308  0.87901  0.30081  1.0000
  N   N10       1.0  0.43735  0.81008  0.09503  1.0000
  H   H139      1.0  0.63958  0.21297  0.22287  1.0000
  H   H140      1.0  0.39065  0.12806  0.26000  1.0000
  C   C71       1.0  0.21663  0.77218  0.23089  1.0000
  H   H141      1.0  0.61339  0.06149  0.29760  1.0000
  C   C72       1.0  0.23535  0.98148  0.19077  1.0000
  S   S21       1.0  0.55329  0.17950  0.18846  1.0000
  C   C73       1.0  0.30454  0.77990  0.24320  1.0000
  C   C74       1.0  0.61964  0.15847  0.31492  1.0000
  H   H142      1.0  0.30432  0.14206  0.23617  1.0000
  Fe  Fe7       1.0  0.57530  0.12426  0.18641  1.0000
  C   C75       1.0  0.21167  0.23903  0.14258  1.0000
  H   H143      1.0  0.24617  0.00936  0.24768  1.0000
  H   H144      1.0  0.34110  0.21164  0.25094  1.0000
  Fe  Fe8       1.0  0.30750  0.11181  0.11958  1.0000
  S   S22       1.0  0.27550  0.06482  0.12360  1.0000
  S   S23       1.0  0.36064  0.09821  0.11460  1.0000
  Fe  Fe9       1.0  0.24702  0.09847  0.15794  1.0000
  S   S24       1.0  0.23146  0.07417  0.20378  1.0000
  Fe  Fe10      1.0  0.24556  0.09292  0.08691  1.0000
  S   S25       1.0  0.28210  0.14336  0.15725  1.0000
  C   C76       1.0  0.23250  0.10628  0.23348  1.0000
  C   C77       1.0  0.23315  0.14252  0.22571  1.0000
  C   C78       1.0  0.23711  0.16801  0.24913  1.0000
  C   C79       1.0  0.24017  0.15732  0.28046  1.0000
  C   C80       1.0  0.23801  0.12125  0.28850  1.0000
  C   C81       1.0  0.23422  0.09571  0.26500  1.0000
  H   H145      1.0  0.65792  0.79694  0.24442  1.0000
  H   H146      1.0  0.23322  0.06782  0.27129  1.0000
  S   S26       1.0  0.61680  0.10816  0.21801  1.0000
  S   S27       1.0  0.45964  0.17018  0.20446  1.0000
  H   H147      1.0  0.44798  0.84432  0.27502  1.0000
  H   H148      1.0  0.23825  0.19596  0.24281  1.0000
  C   C82       1.0  0.22418  0.99287  0.24553  1.0000
  C   C83       1.0  0.42962  0.14879  0.18314  1.0000
  S   S28       1.0  0.23653  0.22295  0.11187  1.0000
  C   C84       1.0  0.37668  0.14900  0.15772  1.0000
  C   C85       1.0  0.38524  0.11655  0.14331  1.0000
  C   C86       1.0  0.41541  0.09986  0.14960  1.0000
  C   C87       1.0  0.43751  0.11597  0.16937  1.0000
  H   H149      1.0  0.42198  0.07457  0.13883  1.0000
  H   H150      1.0  0.46085  0.10293  0.17366  1.0000
  H   H151      1.0  0.28328  0.76180  0.30097  1.0000
  S   S29       1.0  0.21314  0.12210  0.12148  1.0000
  S   S30       1.0  0.44249  0.77699  0.24063  1.0000
  H   H152      1.0  0.66939  0.13834  0.31579  1.0000
  H   H153      1.0  0.55028  0.13666  0.07857  1.0000
  H   H154      1.0  0.35363  0.16238  0.15226  1.0000
  N   N11       1.0  0.34454  0.15655  0.26531  1.0000
  H   H155      1.0  0.20251  0.92166  0.20217  1.0000
  Fe  Fe11      1.0  0.29793  0.83490  0.07324  1.0000
  C   C88       1.0  0.33148  0.14283  0.23559  1.0000
  S   S31       1.0  0.27134  0.83631  0.31953  1.0000
  H   H156      1.0  0.32279  0.79221  0.22749  1.0000
  H   H157      1.0  0.39078  0.81695  0.11799  1.0000
  C   C89       1.0  0.57337  0.82632  0.31815  1.0000
  H   H158      1.0  0.51203  0.19908  0.29368  1.0000
  H   H159      1.0  0.21455  0.99944  0.18346  1.0000
  H   H160      1.0  0.63112  0.89270  0.11159  1.0000
  H   H161      1.0  0.58144  0.03076  0.29069  1.0000
  C   C90       1.0  0.66327  0.77066  0.30270  1.0000
  C   C91       1.0  0.58749  0.05570  0.30313  1.0000
  H   H162      1.0  0.61083  0.79796  0.09640  1.0000
  C   C92       1.0  0.62334  0.86473  0.11470  1.0000
  C   C93       1.0  0.38064  0.15558  0.26410  1.0000
  Fe  Fe12      1.0  0.25017  0.16488  0.11835  1.0000
  H   H163      1.0  0.57219  0.07782  0.29283  1.0000
  H   H164      1.0  0.65275  0.78226  0.09432  1.0000
  H   H165      1.0  0.23060  0.15095  0.20161  1.0000
  C   C94       1.0  0.39896  0.16518  0.17773  1.0000
  H   H166      1.0  0.39308  0.19106  0.18768  1.0000
  H   H167      1.0  0.19242  0.78744  0.11163  1.0000
  C   C95       1.0  0.65572  0.22716  0.20619  1.0000
  H   H168      1.0  0.39130  0.16526  0.28637  1.0000
  H   H169      1.0  0.56864  0.76951  0.31353  1.0000
  Fe  Fe13      1.0  0.55765  0.17855  0.13612  1.0000
  H   H170      1.0  0.33422  0.79559  0.29700  1.0000
  S   S32       1.0  0.51356  0.75145  0.18016  1.0000
  C   C96       1.0  0.33349  0.13416  0.29170  1.0000
  Fe  Fe14      1.0  0.50623  0.15200  0.18072  1.0000
  S   S33       1.0  0.50833  0.15689  0.12843  1.0000
  C   C97       1.0  0.58979  0.14713  0.26699  1.0000
  S   S34       1.0  0.21192  0.76353  0.29473  1.0000
  H   H171      1.0  0.44372  0.75815  0.11626  1.0000
  Fe  Fe15      1.0  0.53471  0.10369  0.12988  1.0000
  C   C98       1.0  0.34507  0.77246  0.28392  1.0000
  S   S35       1.0  0.52529  0.06710  0.08935  1.0000
  S   S36       1.0  0.58533  0.78237  0.19984  1.0000
  C   C99       1.0  0.59086  0.16169  0.29733  1.0000
  S   S37       1.0  0.24903  0.18910  0.30883  1.0000
  C   C100      1.0  0.45272  0.85821  0.29749  1.0000
  H   H172      1.0  0.24675  0.00779  0.31595  1.0000
  S   S38       1.0  0.51829  0.82593  0.22006  1.0000
  C   C101      1.0  0.64596  0.12604  0.27232  1.0000
  H   H173      1.0  0.26165  0.91978  0.21309  1.0000
  H   H174      1.0  0.25363  0.92885  0.25384  1.0000
  C   C102      1.0  0.54421  0.77801  0.09498  1.0000
  H   H175      1.0  0.47436  0.84886  0.10118  1.0000
  H   H176      1.0  0.39301  0.78141  0.09012  1.0000
  C   C103      1.0  0.54167  0.81523  0.09676  1.0000
  H   H177      1.0  0.38992  0.17266  0.24480  1.0000
  C   C104      1.0  0.64719  0.14103  0.30218  1.0000
  Fe  Fe16      1.0  0.56132  0.80066  0.24447  1.0000
  S   S39       1.0  0.53977  0.83718  0.13291  1.0000
  H   H178      1.0  0.30640  0.13495  0.29371  1.0000
  S   S40       1.0  0.58818  0.83271  0.27996  1.0000
  Fe  Fe17      1.0  0.53979  0.80268  0.17613  1.0000
  H   H179      1.0  0.36487  0.78256  0.26860  1.0000
  S   S41       1.0  0.52801  0.09615  0.18201  1.0000
  C   C105      1.0  0.64495  0.18535  0.16502  1.0000
  N   N12       1.0  0.64607  0.83916  0.09896  1.0000
  H   H180      1.0  0.33821  0.15991  0.21530  1.0000
  C   C106      1.0  0.54542  0.24784  0.26106  1.0000
  Fe  Fe18      1.0  0.31438  0.77051  0.11360  1.0000
  H   H181      1.0  0.34063  0.20451  0.29273  1.0000
  C   C107      1.0  0.61735  0.12896  0.25468  1.0000
  H   H182      1.0  0.59823  0.86329  0.10507  1.0000
  H   H183      1.0  0.18640  0.23864  0.27164  1.0000
  H   H184      1.0  0.41697  0.79977  0.30543  1.0000
  C   C108      1.0  0.63583  0.80234  0.10533  1.0000
  H   H185      1.0  0.47772  0.78681  0.12088  1.0000
  H   H186      1.0  0.23972  0.11292  0.31274  1.0000
  C   C109      1.0  0.44728  0.84700  0.10091  1.0000
  H   H187      1.0  0.63566  0.79632  0.13095  1.0000
  H   H188      1.0  0.17779  0.96013  0.21303  1.0000
  H   H189      1.0  0.28013  0.95690  0.23189  1.0000
  H   H190      1.0  0.47625  0.87201  0.29466  1.0000
  H   H191      1.0  0.39035  0.82693  0.07672  1.0000
  H   H192      1.0  0.50642  0.23419  0.21208  1.0000
  C   C110      1.0  0.41829  0.76490  0.20896  1.0000
  H   H193      1.0  0.62999  0.20544  0.15177  1.0000
  C   C111      1.0  0.45059  0.78630  0.11999  1.0000
  H   H194      1.0  0.43807  0.85678  0.12400  1.0000
  C   C112      1.0  0.48030  0.80574  0.31856  1.0000
  N   N13       1.0  0.32012  0.75426  0.26544  1.0000
  H   H195      1.0  0.50400  0.81858  0.31444  1.0000
  C   C113      1.0  0.67251  0.77148  0.24672  1.0000
  C   C114      1.0  0.40132  0.80884  0.09493  1.0000
  H   H196      1.0  0.43776  0.86574  0.08253  1.0000
  H   H197      1.0  0.65528  0.16587  0.14779  1.0000
  N   N14       1.0  0.67082  0.20232  0.18315  1.0000
  H   H198      1.0  0.44140  0.16794  0.08892  1.0000
  H   H199      1.0  0.20339  0.01141  0.23938  1.0000
  H   H200      1.0  0.19403  0.93063  0.24284  1.0000
  H   H201      1.0  0.55646  0.24169  0.28438  1.0000
  H   H202      1.0  0.34318  0.14347  0.31449  1.0000
  H   H203      1.0  0.40070  0.15198  0.08820  1.0000
  H   H204      1.0  0.67454  0.24066  0.22021  1.0000
  H   H205      1.0  0.28656  0.76673  0.22799  1.0000
  S   S42       1.0  0.53687  0.74904  0.25456  1.0000
  H   H206      1.0  0.42424  0.08836  0.08355  1.0000
  H   H207      1.0  0.67026  0.75692  0.22416  1.0000
  C   C115      1.0  0.42123  0.16040  0.07307  1.0000
  Fe  Fe19      1.0  0.57497  0.19113  0.37713  1.0000
  S   S43       1.0  0.40620  0.93318  0.44434  1.0000
  H   H208      1.0  0.35332  0.82907  0.50202  1.0000
  H   H209      1.0  0.57630  0.10905  0.34358  1.0000
  Fe  Fe20      1.0  0.22468  0.82617  0.39750  1.0000
  S   S44       1.0  0.26462  0.86530  0.39197  1.0000
  S   S45       1.0  0.19596  0.82128  0.44217  1.0000
  S   S46       1.0  0.52995  0.15900  0.37894  1.0000
  Fe  Fe21      1.0  0.29074  0.82071  0.36635  1.0000
  S   S47       1.0  0.34429  0.80785  0.36993  1.0000
  Fe  Fe22      1.0  0.24194  0.87799  0.34530  1.0000
  C   C116      1.0  0.46079  0.85216  0.35336  1.0000
  S   S48       1.0  0.19900  0.84330  0.35317  1.0000
  H   H210      1.0  0.66627  0.80559  0.55343  1.0000
  H   H211      1.0  0.57022  0.23059  0.53665  1.0000
  H   H212      1.0  0.40414  0.19467  0.45415  1.0000
  C   C117      1.0  0.21497  0.77922  0.52770  1.0000
  C   C118      1.0  0.23417  0.96668  0.34900  1.0000
  H   H213      1.0  0.44725  0.18710  0.45916  1.0000
  C   C119      1.0  0.24319  0.21442  0.55484  1.0000
  H   H214      1.0  0.39662  0.13448  0.47791  1.0000
  H   H215      1.0  0.21995  0.93221  0.38693  1.0000
  C   C120      1.0  0.21268  0.79428  0.47225  1.0000
  C   C121      1.0  0.20028  0.79800  0.50271  1.0000
  H   H216      1.0  0.26278  0.83657  0.50355  1.0000
  C   C122      1.0  0.42465  0.19766  0.47089  1.0000
  S   S49       1.0  0.21396  0.22779  0.45272  1.0000
  H   H217      1.0  0.26939  0.88424  0.46429  1.0000
  H   H218      1.0  0.31545  0.79749  0.46590  1.0000
  H   H219      1.0  0.48910  0.07930  0.52286  1.0000
  C   C123      1.0  0.39043  0.89936  0.42130  1.0000
  C   C124      1.0  0.36168  0.90555  0.40434  1.0000
  C   C125      1.0  0.34841  0.87788  0.38703  1.0000
  C   C126      1.0  0.36322  0.84375  0.38757  1.0000
  C   C127      1.0  0.39240  0.83785  0.40382  1.0000
  C   C128      1.0  0.40617  0.86574  0.42035  1.0000
  H   H220      1.0  0.34982  0.93172  0.40435  1.0000
  H   H221      1.0  0.32682  0.88308  0.37313  1.0000
  H   H222      1.0  0.40396  0.81150  0.40438  1.0000
  H   H223      1.0  0.42851  0.86079  0.43306  1.0000
  C   C129      1.0  0.22402  0.95939  0.37966  1.0000
  H   H224      1.0  0.41195  0.12480  0.51657  1.0000
  H   H225      1.0  0.30948  0.89539  0.45082  1.0000
  H   H226      1.0  0.35847  0.86281  0.47246  1.0000
  H   H227      1.0  0.28128  0.82196  0.44934  1.0000
  H   H228      1.0  0.28958  0.85897  0.52936  1.0000
  Fe  Fe23      1.0  0.45892  0.91844  0.45339  1.0000
  H   H229      1.0  0.34522  0.87519  0.51102  1.0000
  H   H230      1.0  0.35485  0.00394  0.41662  1.0000
  S   S50       1.0  0.47685  0.86822  0.47751  1.0000
  S   S51       1.0  0.25874  0.03568  0.54102  1.0000
  C   C130      1.0  0.32813  0.95993  0.55920  1.0000
  C   C131      1.0  0.34288  0.85464  0.49252  1.0000
  C   C132      1.0  0.28888  0.83939  0.51000  1.0000
  H   H231      1.0  0.21010  0.98178  0.42439  1.0000
  C   C133      1.0  0.29542  0.88593  0.47148  1.0000
  H   H232      1.0  0.29788  0.81314  0.51943  1.0000
  H   H233      1.0  0.32191  0.83174  0.43721  1.0000
  C   C134      1.0  0.23874  0.77011  0.46660  1.0000
  H   H234      1.0  0.45967  0.92109  0.53505  1.0000
  H   H235      1.0  0.38179  0.17710  0.53654  1.0000
  C   C135      1.0  0.60256  0.02255  0.34987  1.0000
  C   C136      1.0  0.41667  0.13995  0.49457  1.0000
  C   C137      1.0  0.24198  0.75639  0.52232  1.0000
  H   H236      1.0  0.48328  0.78726  0.33896  1.0000
  C   C138      1.0  0.21831  0.98745  0.40079  1.0000
  C   C139      1.0  0.30675  0.82437  0.45774  1.0000
  N   N15       1.0  0.30852  0.85108  0.48293  1.0000
  S   S52       1.0  0.25272  0.78025  0.37591  1.0000
  H   H237      1.0  0.29654  0.90665  0.49003  1.0000
  H   H238      1.0  0.29568  0.02230  0.41553  1.0000
  Fe  Fe24      1.0  0.23035  0.80035  0.33123  1.0000
  H   H239      1.0  0.44149  0.87288  0.35847  1.0000
  C   C140      1.0  0.54728  0.04566  0.34354  1.0000
  C   C141      1.0  0.50049  0.01489  0.54975  1.0000
  H   H240      1.0  0.51786  0.02070  0.53036  1.0000
  S   S53       1.0  0.49240  0.95388  0.47926  1.0000
  S   S54       1.0  0.49172  0.91192  0.41160  1.0000
  H   H241      1.0  0.65420  0.75537  0.32324  1.0000
  H   H242      1.0  0.36532  0.04862  0.42688  1.0000
  H   H243      1.0  0.67003  0.79472  0.51257  1.0000
  H   H244      1.0  0.46216  0.83373  0.37395  1.0000
  Fe  Fe25      1.0  0.51268  0.86448  0.43753  1.0000
  H   H245      1.0  0.19140  0.16244  0.53922  1.0000
  H   H246      1.0  0.42249  0.79596  0.34709  1.0000
  S   S55       1.0  0.45835  0.21301  0.34129  1.0000
  H   H247      1.0  0.53973  0.02038  0.33256  1.0000
  C   C142      1.0  0.22297  0.02277  0.39138  1.0000
  H   H248      1.0  0.34698  0.17817  0.36748  1.0000
  N   N16       1.0  0.32754  0.02627  0.45538  1.0000
  H   H249      1.0  0.44243  0.17014  0.54505  1.0000
  C   C143      1.0  0.20499  0.23689  0.51563  1.0000
  N   N17       1.0  0.45402  0.83280  0.32412  1.0000
  Fe  Fe26      1.0  0.30305  0.14529  0.40786  1.0000
  S   S56       1.0  0.28202  0.19830  0.39208  1.0000
  S   S57       1.0  0.35448  0.13151  0.42189  1.0000
  Fe  Fe27      1.0  0.23887  0.10860  0.40410  1.0000
  S   S58       1.0  0.21137  0.15776  0.38783  1.0000
  S   S59       1.0  0.21595  0.05744  0.41822  1.0000
  Fe  Fe28      1.0  0.25498  0.16606  0.35714  1.0000
  H   H250      1.0  0.53113  0.06776  0.33447  1.0000
  Fe  Fe29      1.0  0.24024  0.18618  0.42385  1.0000
  H   H251      1.0  0.29576  0.99308  0.48210  1.0000
  S   S60       1.0  0.28014  0.11392  0.36985  1.0000
  S   S61       1.0  0.26380  0.13613  0.44324  1.0000
  C   C144      1.0  0.22623  0.22498  0.49187  1.0000
  H   H252      1.0  0.47457  0.07059  0.45881  1.0000
  N   N18       1.0  0.48840  0.04792  0.56528  1.0000
  C   C145      1.0  0.25645  0.20910  0.49958  1.0000
  H   H253      1.0  0.23637  0.05725  0.35321  1.0000
  H   H254      1.0  0.27328  0.20081  0.48126  1.0000
  H   H255      1.0  0.21520  0.09232  0.48168  1.0000
  C   C146      1.0  0.21351  0.23162  0.54717  1.0000
  N   N19       1.0  0.17779  0.12359  0.50527  1.0000
  H   H256      1.0  0.36672  0.18834  0.49822  1.0000
  H   H257      1.0  0.35257  0.04132  0.49727  1.0000
  H   H258      1.0  0.20549  0.78272  0.55123  1.0000
  H   H259      1.0  0.48462  0.86556  0.35202  1.0000
  C   C147      1.0  0.42911  0.18860  0.36183  1.0000
  C   C148      1.0  0.43899  0.16583  0.38633  1.0000
  C   C149      1.0  0.41600  0.14729  0.40374  1.0000
  C   C150      1.0  0.38278  0.15215  0.39740  1.0000
  C   C151      1.0  0.37265  0.17436  0.37252  1.0000
  C   C152      1.0  0.39587  0.19243  0.35457  1.0000
  H   H260      1.0  0.46437  0.16251  0.39222  1.0000
  H   H261      1.0  0.42407  0.12980  0.42262  1.0000
  H   H262      1.0  0.37851  0.01136  0.45102  1.0000
  H   H263      1.0  0.46236  0.09658  0.55305  1.0000
  H   H264      1.0  0.20470  0.11742  0.54828  1.0000
  C   C153      1.0  0.26498  0.20399  0.53108  1.0000
  H   H265      1.0  0.45099  0.05835  0.53101  1.0000
  C   C154      1.0  0.30081  0.04051  0.43531  1.0000
  H   H266      1.0  0.31014  0.05474  0.49605  1.0000
  H   H267      1.0  0.17980  0.81622  0.50718  1.0000
  H   H268      1.0  0.53481  0.07294  0.56093  1.0000
  C   C155      1.0  0.31232  0.99248  0.55179  1.0000
  H   H269      1.0  0.62890  0.02634  0.34487  1.0000
  H   H270      1.0  0.28848  0.19215  0.53694  1.0000
  H   H271      1.0  0.59055  0.05076  0.42807  1.0000
  N   N20       1.0  0.41864  0.17859  0.50068  1.0000
  C   C156      1.0  0.59097  0.08589  0.35274  1.0000
  H   H272      1.0  0.57072  0.11072  0.44535  1.0000
  C   C157      1.0  0.35788  0.02244  0.43665  1.0000
  H   H273      1.0  0.31486  0.97166  0.44887  1.0000
  H   H274      1.0  0.54310  0.76198  0.36586  1.0000
  C   C158      1.0  0.33264  0.05118  0.48152  1.0000
  C   C159      1.0  0.31873  0.99106  0.46804  1.0000
  H   H275      1.0  0.51336  0.99655  0.56658  1.0000
  H   H276      1.0  0.19774  0.15468  0.46776  1.0000
  H   H277      1.0  0.38836  0.22068  0.52042  1.0000
  C   C160      1.0  0.20070  0.13694  0.52882  1.0000
  H   H278      1.0  0.33916  0.07808  0.47269  1.0000
  H   H279      1.0  0.22498  0.14201  0.51819  1.0000
  H   H280      1.0  0.59570  0.99656  0.33970  1.0000
  C   C161      1.0  0.23335  0.03003  0.36080  1.0000
  C   C162      1.0  0.55405  0.08891  0.44442  1.0000
  C   C163      1.0  0.54354  0.02715  0.43270  1.0000
  H   H281      1.0  0.43977  0.12903  0.48408  1.0000
  S   S62       1.0  0.50743  0.13656  0.46515  1.0000
  C   C164      1.0  0.49996  0.06617  0.45250  1.0000
  H   H282      1.0  0.48009  0.99993  0.53952  1.0000
  H   H283      1.0  0.23402  0.96512  0.54949  1.0000
  H   H284      1.0  0.38805  0.21031  0.33590  1.0000
  H   H285      1.0  0.27770  0.04421  0.44892  1.0000
  H   H286      1.0  0.33830  0.97959  0.48350  1.0000
  C   C165      1.0  0.23888  0.00201  0.33961  1.0000
  C   C166      1.0  0.38750  0.19183  0.51458  1.0000
  C   C167      1.0  0.27841  0.99441  0.54833  1.0000
  H   H287      1.0  0.59980  0.02009  0.37575  1.0000
  H   H288      1.0  0.49363  0.01189  0.43839  1.0000
  C   C168      1.0  0.26030  0.96363  0.55202  1.0000
  S   S63       1.0  0.49792  0.22489  0.42195  1.0000
  S   S64       1.0  0.62165  0.17318  0.35378  1.0000
  H   H289      1.0  0.18285  0.75083  0.41729  1.0000
  S   S65       1.0  0.30693  0.12325  0.55662  1.0000
  H   H290      1.0  0.54239  0.04320  0.36912  1.0000
  Fe  Fe30      1.0  0.50341  0.21142  0.37113  1.0000
  C   C169      1.0  0.47200  0.07157  0.54196  1.0000
  H   H291      1.0  0.58667  0.08484  0.37845  1.0000
  H   H292      1.0  0.44750  0.21359  0.52839  1.0000
  C   C170      1.0  0.46375  0.92734  0.55940  1.0000
  C   C171      1.0  0.52155  0.09424  0.45381  1.0000
  C   C172      1.0  0.51083  0.03281  0.44134  1.0000
  H   H293      1.0  0.30680  0.06690  0.42508  1.0000
  C   C173      1.0  0.55423  0.85143  0.36756  1.0000
  C   C174      1.0  0.56890  0.85565  0.33804  1.0000
  C   C175      1.0  0.54437  0.81776  0.37737  1.0000
  H   H294      1.0  0.46967  0.17581  0.51249  1.0000
  H   H295      1.0  0.55021  0.87432  0.38253  1.0000
  Fe  Fe31      1.0  0.52707  0.94289  0.43951  1.0000
  S   S66       1.0  0.55128  0.89486  0.46193  1.0000
  H   H296      1.0  0.32645  0.01616  0.54891  1.0000
  C   C176      1.0  0.56518  0.05517  0.43439  1.0000
  H   H297      1.0  0.40199  0.83472  0.33085  1.0000
  S   S67       1.0  0.52632  0.90165  0.55062  1.0000
  C   C177      1.0  0.55042  0.78811  0.35816  1.0000
  H   H298      1.0  0.41450  0.94731  0.56699  1.0000
  Fe  Fe32      1.0  0.51353  0.90320  0.49959  1.0000
  S   S68       1.0  0.52241  0.81265  0.41242  1.0000
  S   S69       1.0  0.55720  0.98572  0.41830  1.0000
  Fe  Fe33      1.0  0.52724  0.17447  0.42963  1.0000
  S   S70       1.0  0.57559  0.20069  0.42900  1.0000
  C   C178      1.0  0.44572  0.18479  0.52261  1.0000
  C   C179      1.0  0.30997  0.92941  0.56395  1.0000
  H   H299      1.0  0.24806  0.76649  0.44310  1.0000
  C   C180      1.0  0.27604  0.93120  0.56033  1.0000
  C   C181      1.0  0.19078  0.08931  0.49270  1.0000
  H   H300      1.0  0.19241  0.22037  0.34255  1.0000
  N   N21       1.0  0.58207  0.05242  0.33731  1.0000
  H   H301      1.0  0.26183  0.90777  0.56412  1.0000
  H   H302      1.0  0.61719  0.09166  0.34907  1.0000
  H   H303      1.0  0.19377  0.06869  0.51146  1.0000
  H   H304      1.0  0.54924  0.24211  0.48290  1.0000
  C   C182      1.0  0.42246  0.81503  0.32698  1.0000
  H   H305      1.0  0.35434  0.95868  0.56226  1.0000
  H   H306      1.0  0.57589  0.88186  0.33026  1.0000
  S   S71       1.0  0.54893  0.24264  0.36466  1.0000
  H   H307      1.0  0.42764  0.22670  0.47470  1.0000
  C   C183      1.0  0.56475  0.79239  0.32849  1.0000
  H   H308      1.0  0.19648  0.23920  0.56554  1.0000
  C   C184      1.0  0.25332  0.75107  0.49162  1.0000
  H   H309      1.0  0.65539  0.24120  0.45082  1.0000
  H   H310      1.0  0.17880  0.75457  0.35991  1.0000
  S   S72       1.0  0.24077  0.93198  0.32211  1.0000
  S   S73       1.0  0.36397  0.92411  0.77467  1.0000
  Fe  Fe34      1.0  0.23537  0.83228  0.63306  1.0000
  S   S74       1.0  0.28221  0.85597  0.64765  1.0000
  S   S75       1.0  0.18945  0.85457  0.65456  1.0000
  S   S76       1.0  0.31892  0.79512  0.60417  1.0000
  Fe  Fe35      1.0  0.29956  0.79949  0.65323  1.0000
  S   S77       1.0  0.32693  0.78747  0.69765  1.0000
  Fe  Fe36      1.0  0.29752  0.85017  0.59777  1.0000
  C   C185      1.0  0.22555  0.22525  0.67162  1.0000
  S   S78       1.0  0.25149  0.77558  0.64168  1.0000
  H   H311      1.0  0.57616  0.06911  0.79583  1.0000
  S   S79       1.0  0.23650  0.92431  0.77866  1.0000
  C   C186      1.0  0.30653  0.98441  0.69270  1.0000
  H   H312      1.0  0.48036  0.20061  0.73405  1.0000
  H   H313      1.0  0.45121  0.17519  0.68952  1.0000
  H   H314      1.0  0.29498  0.06625  0.80028  1.0000
  S   S80       1.0  0.46941  0.99704  0.69927  1.0000
  S   S81       1.0  0.41050  0.96644  0.63184  1.0000
  H   H315      1.0  0.24637  0.00230  0.67153  1.0000
  C   C187      1.0  0.19945  0.87027  0.69171  1.0000
  C   C188      1.0  0.22615  0.85518  0.70800  1.0000
  C   C189      1.0  0.23623  0.87021  0.73622  1.0000
  C   C190      1.0  0.21992  0.90071  0.74777  1.0000
  H   H316      1.0  0.39837  0.23569  0.75886  1.0000
  C   C191      1.0  0.48922  0.87845  0.77760  1.0000
  H   H317      1.0  0.23949  0.83230  0.69859  1.0000
  H   H318      1.0  0.25766  0.85937  0.74812  1.0000
  C   C192      1.0  0.61647  0.21075  0.81526  1.0000
  C   C193      1.0  0.35140  0.88712  0.75320  1.0000
  C   C194      1.0  0.34166  0.85629  0.76884  1.0000
  C   C195      1.0  0.33409  0.82574  0.75173  1.0000
  C   C196      1.0  0.33494  0.82639  0.71891  1.0000
  C   C197      1.0  0.34341  0.85776  0.70333  1.0000
  C   C198      1.0  0.35222  0.88783  0.72040  1.0000
  H   H319      1.0  0.34072  0.85563  0.79419  1.0000
  H   H320      1.0  0.32742  0.80165  0.76395  1.0000
  H   H321      1.0  0.34417  0.85845  0.67812  1.0000
  H   H322      1.0  0.35967  0.91156  0.70818  1.0000
  H   H323      1.0  0.43272  0.79547  0.60712  1.0000
  C   C199      1.0  0.41500  0.81850  0.60552  1.0000
  C   C200      1.0  0.44302  0.94945  0.60921  1.0000
  H   H324      1.0  0.35767  0.10466  0.81767  1.0000
  N   N22       1.0  0.28660  0.96409  0.67069  1.0000
  C   C201      1.0  0.26312  0.98856  0.65454  1.0000
  H   H325      1.0  0.61086  0.20419  0.79050  1.0000
  Fe  Fe37      1.0  0.47358  0.95149  0.73302  1.0000
  S   S82       1.0  0.43216  0.92219  0.71226  1.0000
  H   H326      1.0  0.46975  0.88354  0.76104  1.0000
  H   H327      1.0  0.39728  0.17229  0.81975  1.0000
  Fe  Fe38      1.0  0.26869  0.77785  0.59160  1.0000
  Fe  Fe39      1.0  0.40154  0.95294  0.74700  1.0000
  C   C202      1.0  0.26846  0.93702  0.68838  1.0000
  H   H328      1.0  0.29389  0.93145  0.62990  1.0000
  C   C203      1.0  0.47358  0.94243  0.62277  1.0000
  H   H329      1.0  0.39472  0.89101  0.64975  1.0000
  C   C204      1.0  0.24550  0.19858  0.71981  1.0000
  H   H330      1.0  0.56416  0.19816  0.74174  1.0000
  C   C205      1.0  0.25266  0.01400  0.79181  1.0000
  H   H331      1.0  0.45302  0.87495  0.65440  1.0000
  S   S83       1.0  0.44365  0.97839  0.77051  1.0000
  H   H332      1.0  0.55161  0.08773  0.76449  1.0000
  N   N23       1.0  0.41732  0.84210  0.63299  1.0000
  C   C206      1.0  0.45072  0.85565  0.63485  1.0000
  H   H333      1.0  0.29096  0.99860  0.71035  1.0000
  H   H334      1.0  0.25287  0.94951  0.70699  1.0000
  H   H335      1.0  0.25201  0.92208  0.67285  1.0000
  C   C207      1.0  0.19275  0.91521  0.73193  1.0000
  Fe  Fe40      1.0  0.28164  0.07457  0.57312  1.0000
  H   H336      1.0  0.27587  0.00964  0.64129  1.0000
  C   C208      1.0  0.39368  0.87243  0.62955  1.0000
  C   C209      1.0  0.51849  0.89636  0.77479  1.0000
  H   H337      1.0  0.41087  0.83914  0.68304  1.0000
  Fe  Fe41      1.0  0.42454  0.97088  0.68226  1.0000
  H   H338      1.0  0.45748  0.86963  0.61280  1.0000
  N   N24       1.0  0.55540  0.03043  0.76529  1.0000
  H   H339      1.0  0.47743  0.94770  0.64731  1.0000
  H   H340      1.0  0.28521  0.91722  0.70016  1.0000
  C   C210      1.0  0.52494  0.02710  0.78365  1.0000
  C   C211      1.0  0.40988  0.82191  0.66189  1.0000
  C   C212      1.0  0.48516  0.85353  0.80177  1.0000
  H   H341      1.0  0.45373  0.17819  0.76051  1.0000
  H   H342      1.0  0.24790  0.97408  0.63753  1.0000
  H   H343      1.0  0.22899  0.13737  0.69191  1.0000
  H   H344      1.0  0.53844  0.99992  0.72643  1.0000
  C   C213      1.0  0.49923  0.92788  0.60463  1.0000
  C   C214      1.0  0.51433  0.22416  0.80209  1.0000
  C   C215      1.0  0.30819  0.94648  0.64722  1.0000
  H   H345      1.0  0.66907  0.20922  0.77709  1.0000
  H   H346      1.0  0.39015  0.80765  0.60349  1.0000
  H   H347      1.0  0.42745  0.79907  0.66552  1.0000
  S   S84       1.0  0.59893  0.21375  0.65167  1.0000
  H   H348      1.0  0.40206  0.86973  0.81723  1.0000
  S   S85       1.0  0.32866  0.17590  0.79271  1.0000
  C   C216      1.0  0.54387  0.88895  0.79592  1.0000
  Fe  Fe42      1.0  0.34292  0.10877  0.59432  1.0000
  S   S86       1.0  0.31768  0.14085  0.63201  1.0000
  Fe  Fe43      1.0  0.50897  0.24385  0.63562  1.0000
  S   S87       1.0  0.25054  0.10336  0.60847  1.0000
  Fe  Fe44      1.0  0.27936  0.15094  0.59562  1.0000
  H   H349      1.0  0.41481  0.24765  0.68914  1.0000
  Fe  Fe45      1.0  0.29114  0.09070  0.64189  1.0000
  S   S88       1.0  0.32003  0.05737  0.60779  1.0000
  H   H350      1.0  0.32440  0.97370  0.81444  1.0000
  C   C217      1.0  0.31436  0.14701  0.76403  1.0000
  C   C218      1.0  0.33223  0.14105  0.73643  1.0000
  C   C219      1.0  0.32082  0.11774  0.71368  1.0000
  C   C220      1.0  0.29153  0.10037  0.71848  1.0000
  C   C221      1.0  0.27385  0.10592  0.74618  1.0000
  C   C222      1.0  0.28519  0.12934  0.76884  1.0000
  H   H351      1.0  0.35501  0.15401  0.73260  1.0000
  H   H352      1.0  0.33510  0.11262  0.69274  1.0000
  H   H353      1.0  0.27104  0.13381  0.78990  1.0000
  S   S89       1.0  0.39040  0.99965  0.71539  1.0000
  H   H354      1.0  0.45472  0.06291  0.60219  1.0000
  C   C223      1.0  0.47079  0.09545  0.71939  1.0000
  C   C224      1.0  0.30584  0.03919  0.79621  1.0000
  C   C225      1.0  0.23109  0.16121  0.67642  1.0000
  H   H355      1.0  0.38500  0.81078  0.66107  1.0000
  H   H356      1.0  0.37698  0.21647  0.72671  1.0000
  C   C226      1.0  0.43787  0.21422  0.61938  1.0000
  C   C227      1.0  0.40506  0.21319  0.61057  1.0000
  C   C228      1.0  0.39178  0.18079  0.60149  1.0000
  C   C229      1.0  0.41152  0.14964  0.60073  1.0000
  C   C230      1.0  0.44394  0.15056  0.61047  1.0000
  C   C231      1.0  0.45693  0.18265  0.62020  1.0000
  S   S90       1.0  0.24847  0.83308  0.58201  1.0000
  H   H357      1.0  0.57042  0.02971  0.71684  1.0000
  H   H358      1.0  0.45915  0.12654  0.61051  1.0000
  Fe  Fe46      1.0  0.56560  0.24795  0.68135  1.0000
  C   C232      1.0  0.46490  0.03872  0.59025  1.0000
  H   H359      1.0  0.44173  0.13090  0.79965  1.0000
  S   S91       1.0  0.53783  0.21019  0.60152  1.0000
  H   H360      1.0  0.48183  0.18276  0.62813  1.0000
  C   C233      1.0  0.43817  0.94210  0.57749  1.0000
  H   H361      1.0  0.44899  0.06709  0.68148  1.0000
  H   H362      1.0  0.49731  0.12738  0.75182  1.0000
  H   H363      1.0  0.25560  0.00860  0.76633  1.0000
  H   H364      1.0  0.18037  0.93905  0.74072  1.0000
  S   S92       1.0  0.27631  0.07236  0.68981  1.0000
  H   H365      1.0  0.30987  0.03632  0.77048  1.0000
  H   H366      1.0  0.25654  0.16117  0.66728  1.0000
  H   H367      1.0  0.36826  0.86315  0.62780  1.0000
  H   H368      1.0  0.40819  0.18333  0.68494  1.0000
  S   S93       1.0  0.25165  0.20328  0.59390  1.0000
  C   C234      1.0  0.29990  0.97602  0.80337  1.0000
  C   C235      1.0  0.67370  0.21431  0.80233  1.0000
  H   H369      1.0  0.38484  0.11953  0.78764  1.0000
  S   S94       1.0  0.55010  0.12146  0.64828  1.0000
  S   S95       1.0  0.52294  0.92886  0.74556  1.0000
  H   H370      1.0  0.18799  0.79351  0.71102  1.0000
  C   C236      1.0  0.53148  0.20141  0.78150  1.0000
  C   C237      1.0  0.52010  0.12657  0.70604  1.0000
  H   H371      1.0  0.25108  0.09260  0.74994  1.0000
  S   S96       1.0  0.52334  0.21211  0.67802  1.0000
  H   H372      1.0  0.44372  0.02439  0.58074  1.0000
  H   H373      1.0  0.59176  0.06951  0.75657  1.0000
  H   H374      1.0  0.50611  0.04762  0.77658  1.0000
  H   H375      1.0  0.39428  0.18841  0.75711  1.0000
  C   C238      1.0  0.46912  0.08315  0.68863  1.0000
  H   H376      1.0  0.42308  0.15356  0.71520  1.0000
  H   H377      1.0  0.32082  0.00494  0.68016  1.0000
  S   S97       1.0  0.44347  0.07963  0.74753  1.0000
  H   H378      1.0  0.52924  0.03015  0.80925  1.0000
  C   C239      1.0  0.39834  0.21261  0.74256  1.0000
  C   C240      1.0  0.55170  0.21568  0.75827  1.0000
  N   N25       1.0  0.22279  0.19458  0.69332  1.0000
  Fe  Fe47      1.0  0.43597  0.02220  0.73510  1.0000
  H   H379      1.0  0.39015  0.23751  0.61015  1.0000
  H   H380      1.0  0.60244  0.00369  0.76165  1.0000
  H   H381      1.0  0.32591  0.92734  0.65840  1.0000
  H   H382      1.0  0.52821  0.17295  0.78269  1.0000
  H   H383      1.0  0.27140  0.19811  0.71174  1.0000
  H   H384      1.0  0.18162  0.21835  0.71774  1.0000
  H   H385      1.0  0.39846  0.88831  0.60796  1.0000
  C   C241      1.0  0.54820  0.02662  0.73156  1.0000
  H   H386      1.0  0.32259  0.96623  0.63381  1.0000
  H   H387      1.0  0.53999  0.14312  0.71286  1.0000
  C   C242      1.0  0.45658  0.20311  0.74665  1.0000
  Fe  Fe48      1.0  0.55478  0.18069  0.64470  1.0000
  H   H388      1.0  0.46918  0.83369  0.63863  1.0000
  C   C243      1.0  0.49371  0.09095  0.66707  1.0000
  C   C244      1.0  0.51930  0.11254  0.67566  1.0000
  H   H389      1.0  0.49279  0.08030  0.64371  1.0000
  H   H390      1.0  0.21478  0.15771  0.65592  1.0000
  C   C245      1.0  0.19343  0.77310  0.72951  1.0000
  H   H391      1.0  0.24307  0.17661  0.73720  1.0000
  H   H392      1.0  0.51422  0.00046  0.78027  1.0000
  H   H393      1.0  0.32400  0.96653  0.70568  1.0000
  C   C246      1.0  0.49588  0.11788  0.72799  1.0000
  H   H394      1.0  0.24066  0.04088  0.79443  1.0000
  H   H395      1.0  0.46271  0.83934  0.80344  1.0000
  C   C247      1.0  0.57922  0.00217  0.77512  1.0000
  H   H396      1.0  0.56672  0.90238  0.79355  1.0000
  H   H397      1.0  0.52284  0.92229  0.61517  1.0000
  H   H398      1.0  0.45792  0.24145  0.69396  1.0000
  H   H399      1.0  0.30294  0.97002  0.77798  1.0000
  H   H400      1.0  0.19726  0.81446  0.78077  1.0000
  H   H401      1.0  0.20916  0.22279  0.65104  1.0000
  N   N26       1.0  0.28423  0.01152  0.80843  1.0000
  C   C248      1.0  0.56929  0.06576  0.77080  1.0000
  H   H402      1.0  0.52968  0.04696  0.72352  1.0000
  H   H403      1.0  0.47645  0.02119  0.60849  1.0000
  N   N27       1.0  0.42922  0.20930  0.72466  1.0000
  H   H404      1.0  0.25082  0.22726  0.66222  1.0000
  C   C249      1.0  0.18220  0.89965  0.70414  1.0000
  H   H405      1.0  0.23535  0.99430  0.80128  1.0000
  H   H406      1.0  0.21884  0.77699  0.73772  1.0000
  H   H407      1.0  0.33009  0.03775  0.80781  1.0000
  H   H408      1.0  0.56952  0.97512  0.77135  1.0000
  H   H409      1.0  0.58512  0.00425  0.80049  1.0000
  C   C250      1.0  0.42782  0.17902  0.70267  1.0000
  H   H410      1.0  0.24067  0.22411  0.73242  1.0000
  H   H411      1.0  0.45836  0.22547  0.76355  1.0000
  C   C251      1.0  0.43431  0.24262  0.70688  1.0000
  S   S98       1.0  0.33017  0.88960  0.57511  1.0000
  H   H412      1.0  0.28512  0.95450  0.81349  1.0000
  C   C252      1.0  0.53934  0.86485  0.82074  1.0000
  H   H413      1.0  0.39050  0.07558  0.80360  1.0000
  Fe  Fe49      1.0  0.57843  0.24687  0.61179  1.0000
  H   H414      1.0  0.42008  0.83317  0.58332  1.0000
  C   C253      1.0  0.38356  0.10363  0.80973  1.0000
  S   S99       1.0  0.39671  0.11008  0.58559  1.0000
  H   H415      1.0  0.36664  0.18026  0.59395  1.0000
  H   H416      1.0  0.50825  0.09217  0.59010  1.0000
  H   H417      1.0  0.44798  0.08793  0.81782  1.0000
  H   H418      1.0  0.20114  0.74987  0.78966  1.0000
  H   H419      1.0  0.52867  0.04999  0.59749  1.0000
  H   H420      1.0  0.18611  0.17067  0.72220  1.0000
  C   C254      1.0  0.18900  0.19323  0.70544  1.0000
  N   N28       1.0  0.64551  0.23303  0.81732  1.0000
  C   C255      1.0  0.51622  0.06650  0.57904  1.0000
  C   C256      1.0  0.49429  0.92020  0.57297  1.0000
  C   C257      1.0  0.23978  0.92787  0.02980  1.0000
  C   C258      1.0  0.65474  0.14791  0.92409  1.0000
  H   H421      1.0  0.46246  0.88752  0.85693  1.0000
  H   H422      1.0  0.56654  0.02417  0.99281  1.0000
  C   C259      1.0  0.20322  0.02448  0.91173  1.0000
  S   S100      1.0  0.50165  0.82118  0.85721  1.0000
  Fe  Fe50      1.0  0.27149  0.86207  0.87938  1.0000
  S   S101      1.0  0.32149  0.85119  0.89883  1.0000
  Fe  Fe51      1.0  0.21071  0.90798  0.89083  1.0000
  H   H423      1.0  0.44329  0.77032  0.05912  1.0000
  H   H424      1.0  0.44092  0.81555  0.04489  1.0000
  S   S102      1.0  0.25774  0.91824  0.86645  1.0000
  H   H425      1.0  0.64446  0.97500  0.97532  1.0000
  H   H426      1.0  0.35961  0.90166  0.86993  1.0000
  C   C260      1.0  0.32138  0.85817  0.93939  1.0000
  C   C261      1.0  0.30015  0.83961  0.95887  1.0000
  N   N29       1.0  0.24735  0.95546  0.00622  1.0000
  H   H427      1.0  0.49467  0.96237  0.86600  1.0000
  C   C262      1.0  0.34284  0.88223  0.95241  1.0000
  H   H428      1.0  0.35886  0.89714  0.93744  1.0000
  H   H429      1.0  0.28383  0.82094  0.94869  1.0000
  H   H430      1.0  0.18177  0.19839  0.89185  1.0000
  H   H431      1.0  0.20849  0.02586  0.93641  1.0000
  H   H432      1.0  0.46676  0.12364  0.01417  1.0000
  C   C263      1.0  0.61059  0.21595  0.01604  1.0000
  N   N30       1.0  0.43181  0.13166  0.05137  1.0000
  H   H433      1.0  0.42347  0.83801  0.84230  1.0000
  S   S103      1.0  0.22636  0.85331  0.90770  1.0000
  S   S104      1.0  0.20453  0.09057  0.83636  1.0000
  H   H434      1.0  0.41213  0.16647  0.85900  1.0000
  H   H435      1.0  0.44992  0.16825  0.01681  1.0000
  H   H436      1.0  0.59590  0.97742  0.94094  1.0000
  C   C264      1.0  0.53279  0.09081  0.05450  1.0000
  S   S105      1.0  0.32298  0.87639  0.04480  1.0000
  C   C265      1.0  0.66939  0.21048  0.01633  1.0000
  C   C266      1.0  0.25643  0.93821  0.97622  1.0000
  C   C267      1.0  0.27483  0.97660  0.01735  1.0000
  H   H437      1.0  0.26095  0.90908  0.03350  1.0000
  H   H438      1.0  0.21075  0.76556  0.91532  1.0000
  C   C268      1.0  0.34317  0.88762  0.98486  1.0000
  H   H439      1.0  0.59050  0.07346  0.96269  1.0000
  S   S106      1.0  0.48624  0.20693  0.82884  1.0000
  C   C269      1.0  0.24126  0.16089  0.00202  1.0000
  N   N31       1.0  0.22568  0.75260  0.96241  1.0000
  N   N32       1.0  0.41056  0.88793  0.86418  1.0000
  C   C270      1.0  0.41462  0.87224  0.89586  1.0000
  H   H440      1.0  0.26644  0.04341  0.84692  1.0000
  C   C271      1.0  0.59149  0.01223  0.99565  1.0000
  H   H441      1.0  0.39256  0.85765  0.90316  1.0000
  H   H442      1.0  0.60130  0.02242  0.01806  1.0000
  S   S107      1.0  0.52713  0.11265  0.83174  1.0000
  C   C272      1.0  0.64185  0.24205  0.97415  1.0000
  C   C273      1.0  0.49875  0.97186  0.88952  1.0000
  Fe  Fe52      1.0  0.20587  0.83515  0.86186  1.0000
  C   C274      1.0  0.38303  0.91434  0.86411  1.0000
  C   C275      1.0  0.30077  0.84457  0.99148  1.0000
  H   H443      1.0  0.61808  0.77647  0.00271  1.0000
  C   C276      1.0  0.39588  0.15505  0.84101  1.0000
  H   H444      1.0  0.65689  0.01443  0.99521  1.0000
  H   H445      1.0  0.62024  0.18505  0.82811  1.0000
  C   C277      1.0  0.32239  0.86858  0.00442  1.0000
  H   H446      1.0  0.35967  0.90644  0.99483  1.0000
  H   H447      1.0  0.28451  0.83006  0.00656  1.0000
  S   S108      1.0  0.62369  0.10959  0.84155  1.0000
  H   H448      1.0  0.23355  0.94001  0.05290  1.0000
  H   H449      1.0  0.19737  0.96439  0.99205  1.0000
  H   H450      1.0  0.29686  0.95927  0.02219  1.0000
  H   H451      1.0  0.22665  0.14295  0.01712  1.0000
  C   C278      1.0  0.27850  0.01697  0.84234  1.0000
  H   H452      1.0  0.43570  0.85269  0.89659  1.0000
  H   H453      1.0  0.21032  0.99226  0.02373  1.0000
  H   H454      1.0  0.39393  0.14405  0.01783  1.0000
  Fe  Fe53      1.0  0.50722  0.08635  0.87464  1.0000
  H   H455      1.0  0.41914  0.89304  0.91368  1.0000
  C   C279      1.0  0.21423  0.78746  0.97500  1.0000
  H   H456      1.0  0.25021  0.20857  0.95651  1.0000
  C   C280      1.0  0.65303  0.23966  0.85062  1.0000
  H   H457      1.0  0.64914  0.76458  0.03071  1.0000
  H   H458      1.0  0.28175  0.99704  0.99969  1.0000
  C   C281      1.0  0.18897  0.02142  0.84783  1.0000
  H   H459      1.0  0.27919  0.92156  0.97845  1.0000
  H   H460      1.0  0.41087  0.09931  0.01564  1.0000
  S   S109      1.0  0.29155  0.11512  0.85400  1.0000
  S   S110      1.0  0.30521  0.19394  0.88281  1.0000
  H   H461      1.0  0.45456  0.07912  0.05411  1.0000
  Fe  Fe54      1.0  0.29471  0.13940  0.90136  1.0000
  S   S111      1.0  0.32599  0.11270  0.93826  1.0000
  Fe  Fe55      1.0  0.51087  0.16278  0.85596  1.0000
  H   H462      1.0  0.61361  0.01299  0.91871  1.0000
  H   H463      1.0  0.22288  0.06701  0.97682  1.0000
  C   C282      1.0  0.19890  0.05346  0.86083  1.0000
  C   C283      1.0  0.25805  0.07133  0.01382  1.0000
  C   C284      1.0  0.24793  0.07237  0.98256  1.0000
  S   S112      1.0  0.24071  0.14964  0.90636  1.0000
  N   N33       1.0  0.40542  0.11760  0.83391  1.0000
  C   C285      1.0  0.40307  0.09576  0.86277  1.0000
  C   C286      1.0  0.31199  0.08927  0.99752  1.0000
  C   C287      1.0  0.30115  0.09278  0.96656  1.0000
  C   C288      1.0  0.26957  0.08281  0.95892  1.0000
  H   H464      1.0  0.33658  0.09630  0.00346  1.0000
  H   H465      1.0  0.26157  0.08405  0.93487  1.0000
  S   S113      1.0  0.18552  0.88897  0.84776  1.0000
  H   H466      1.0  0.21296  0.07978  0.90309  1.0000
  H   H467      1.0  0.29883  0.07621  0.04509  1.0000
  Fe  Fe56      1.0  0.23835  0.12990  0.85690  1.0000
  H   H468      1.0  0.52536  0.08574  0.97482  1.0000
  C   C289      1.0  0.44407  0.10040  0.06957  1.0000
  H   H469      1.0  0.58878  0.98287  0.99819  1.0000
  H   H470      1.0  0.38043  0.84629  0.84728  1.0000
  H   H471      1.0  0.23286  0.80809  0.97198  1.0000
  H   H472      1.0  0.55890  0.85935  0.83704  1.0000
  H   H473      1.0  0.58862  0.23284  0.01013  1.0000
  H   H474      1.0  0.47739  0.79860  0.06360  1.0000
  C   C290      1.0  0.54059  0.83565  0.06920  1.0000
  H   H475      1.0  0.20860  0.19564  0.04779  1.0000
  H   H476      1.0  0.65800  0.76800  0.95926  1.0000
  H   H477      1.0  0.27161  0.22268  0.99059  1.0000
  C   C291      1.0  0.22372  0.21231  0.03205  1.0000
  C   C292      1.0  0.66685  0.86840  0.95776  1.0000
  C   C293      1.0  0.20591  0.05499  0.89282  1.0000
  H   H478      1.0  0.26039  0.95833  0.95737  1.0000
  C   C294      1.0  0.61496  0.06022  0.96600  1.0000
  S   S114      1.0  0.19413  0.95317  0.92164  1.0000
  H   H479      1.0  0.21260  0.23975  0.03172  1.0000
  H   H480      1.0  0.45626  0.12793  0.83892  1.0000
  N   N34       1.0  0.22629  0.19717  0.00020  1.0000
  C   C295      1.0  0.29047  0.07839  0.02112  1.0000
  H   H481      1.0  0.44528  0.92893  0.87062  1.0000
  N   N35       1.0  0.64110  0.23406  0.00813  1.0000
  S   S115      1.0  0.48753  0.13637  0.89732  1.0000
  H   H482      1.0  0.51619  0.04996  0.02355  1.0000
  Fe  Fe57      1.0  0.25065  0.20245  0.88406  1.0000
  H   H483      1.0  0.43961  0.91600  0.83048  1.0000
  H   H484      1.0  0.30163  0.01534  0.85585  1.0000
  H   H485      1.0  0.59440  0.22447  0.82538  1.0000
  H   H486      1.0  0.20850  0.78559  0.00049  1.0000
  H   H487      1.0  0.41270  0.18478  0.06016  1.0000
  C   C296      1.0  0.49198  0.00761  0.89682  1.0000
  S   S116      1.0  0.47862  0.03745  0.86761  1.0000
  H   H488      1.0  0.67091  0.89928  0.00006  1.0000
  H   H489      1.0  0.18024  0.96587  0.85616  1.0000
  H   H490      1.0  0.51627  0.00667  0.97300  1.0000
  H   H491      1.0  0.55782  0.17223  0.03120  1.0000
  H   H492      1.0  0.63046  0.06791  0.94569  1.0000
  H   H493      1.0  0.38347  0.11155  0.04699  1.0000
  H   H494      1.0  0.37787  0.09686  0.87271  1.0000
  H   H495      1.0  0.47962  0.15244  0.04488  1.0000
  S   S117      1.0  0.22945  0.06437  0.04376  1.0000
  H   H496      1.0  0.41978  0.10516  0.88127  1.0000
  H   H497      1.0  0.26837  0.99110  0.03936  1.0000
  C   C297      1.0  0.51999  0.96164  0.94197  1.0000
  C   C298      1.0  0.54445  0.78183  0.03800  1.0000
  H   H498      1.0  0.38000  0.92698  0.84059  1.0000
  C   C299      1.0  0.54556  0.76131  0.06558  1.0000
  H   H499      1.0  0.51831  0.92141  0.90620  1.0000
  Fe  Fe58      1.0  0.53572  0.82928  0.89766  1.0000
  S   S118      1.0  0.57194  0.87299  0.89961  1.0000
  Fe  Fe59      1.0  0.55260  0.80162  0.96289  1.0000
  S   S119      1.0  0.58985  0.84293  0.97025  1.0000
  H   H500      1.0  0.40999  0.06728  0.85826  1.0000
  Fe  Fe60      1.0  0.55296  0.88069  0.94851  1.0000
  C   C300      1.0  0.44077  0.90592  0.85509  1.0000
  Fe  Fe61      1.0  0.60510  0.83106  0.92082  1.0000
  S   S120      1.0  0.65813  0.82276  0.90880  1.0000
  S   S121      1.0  0.57068  0.78637  0.91498  1.0000
  C   C301      1.0  0.54190  0.81901  0.03990  1.0000
  H   H501      1.0  0.38674  0.93583  0.88147  1.0000
  H   H502      1.0  0.60914  0.20956  0.04156  1.0000
  H   H503      1.0  0.67025  0.20475  0.04194  1.0000
  H   H504      1.0  0.19167  0.79738  0.96299  1.0000
  S   S122      1.0  0.51404  0.84031  0.94524  1.0000
  H   H505      1.0  0.54034  0.83504  0.01879  1.0000
  S   S123      1.0  0.17805  0.78551  0.85443  1.0000
  H   H506      1.0  0.64056  0.21724  0.96005  1.0000
  H   H507      1.0  0.64490  0.88246  0.94995  1.0000
  S   S124      1.0  0.54202  0.93481  0.96881  1.0000
  H   H508      1.0  0.37036  0.15735  0.85000  1.0000
  H   H509      1.0  0.66853  0.18451  0.00386  1.0000
  C   C302      1.0  0.54480  0.12514  0.05627  1.0000
  N   N36       1.0  0.61258  0.02102  0.96867  1.0000
  C   C303      1.0  0.51266  0.94883  0.91214  1.0000
  H   H510      1.0  0.26637  0.16109  0.01186  1.0000
  C   C304      1.0  0.49810  0.02011  0.92699  1.0000
  H   H511      1.0  0.67159  0.79103  0.84231  1.0000
  S   S125      1.0  0.30129  0.77640  0.06280  1.0000
  S   S126      1.0  0.55466  0.08511  0.90063  1.0000
  C   C305      1.0  0.52582  0.07644  0.02503  1.0000
  S   S127      1.0  0.25260  0.83946  0.83467  1.0000
  Fe  Fe62      1.0  0.57275  0.11675  0.85986  1.0000
  S   S128      1.0  0.55852  0.16994  0.87982  1.0000
  H   H512      1.0  0.64467  0.15179  0.94735  1.0000
  C   C306      1.0  0.59839  0.00692  0.93962  1.0000
  C   C307      1.0  0.64547  0.00461  0.97339  1.0000
  H   H513      1.0  0.23692  0.92060  0.96791  1.0000
  H   H514      1.0  0.66295  0.82782  0.05213  1.0000
  S   S129      1.0  0.54661  0.76099  0.00131  1.0000
  C   C308      1.0  0.51164  0.99698  0.94969  1.0000
  C   C309      1.0  0.45027  0.79813  0.06430  1.0000
  C   C310      1.0  0.64869  0.12673  0.87084  1.0000
  C   C311      1.0  0.63608  0.13190  0.90104  1.0000
  H   H515      1.0  0.61182  0.12379  0.90681  1.0000
  C   C312      1.0  0.40389  0.85926  0.84169  1.0000
  C   C313      1.0  0.53092  0.09666  0.99754  1.0000
  Fe  Fe63      1.0  0.53720  0.13814  0.91909  1.0000
  H   H516      1.0  0.49257  0.04770  0.93277  1.0000
  H   H517      1.0  0.60859  0.19051  0.00290  1.0000
  H   H518      1.0  0.24317  0.14857  0.97844  1.0000
  C   C314      1.0  0.21830  0.97918  0.00149  1.0000
  H   H519      1.0  0.27553  0.76007  0.97596  1.0000
  C   C315      1.0  0.54945  0.14531  0.02916  1.0000
  C   C316      1.0  0.19446  0.99210  0.89854  1.0000
  H   H520      1.0  0.24814  0.21389  0.04327  1.0000
  H   H521      1.0  0.65807  0.21424  0.86360  1.0000
  S   S130      1.0  0.54924  0.15833  0.96687  1.0000
  C   C317      1.0  0.54271  0.13125  0.99977  1.0000
  C   C318      1.0  0.63038  0.75362  0.01512  1.0000
  H   H522      1.0  0.22344  0.00078  0.98445  1.0000
  H   H523      1.0  0.62565  0.07178  0.98748  1.0000
  H   H524      1.0  0.21877  0.91186  0.02238  1.0000
  H   H525      1.0  0.25222  0.77538  0.92384  1.0000
  C   C319      1.0  0.45814  0.14460  0.03089  1.0000
  C   C320      1.0  0.50968  0.84773  0.82413  1.0000
  H   H526      1.0  0.66207  0.01079  0.95348  1.0000
  C   C321      1.0  0.23270  0.75606  0.92851  1.0000
  C   C322      1.0  0.40382  0.12123  0.03205  1.0000
  H   H527      1.0  0.57356  0.01863  0.93534  1.0000
  C   C323      1.0  0.18741  0.99062  0.86651  1.0000
  H   H528      1.0  0.26194  0.99667  0.85213  1.0000
  C   C324      1.0  0.24687  0.21993  0.98039  1.0000
  Fe  Fe64      1.0  0.29674  0.17047  0.83539  1.0000
  H   H529      1.0  0.23573  0.24721  0.97739  1.0000
  S   S131      1.0  0.24308  0.18390  0.83478  1.0000
  Fe  Fe65      1.0  0.23402  0.89503  0.82446  1.0000
  H   H530      1.0  0.62084  0.84274  0.05478  1.0000
  C   C325      1.0  0.64562  0.84609  0.06478  1.0000
  H   H531      1.0  0.65317  0.87371  0.05922  1.0000
  H   H532      1.0  0.19460  0.18414  0.96215  1.0000
  C   C326      1.0  0.19340  0.19538  0.98626  1.0000
  H   H533      1.0  0.53842  0.86447  0.07046  1.0000
  H   H534      1.0  0.18301  0.02021  0.82318  1.0000
  C   C327      1.0  0.43934  0.11597  0.82208  1.0000
  H   H535      1.0  0.18130  0.22230  0.98439  1.0000
  Fe  Fe66      1.0  0.71817  0.40546  0.16560  1.0000
  S   S132      1.0  0.75856  0.36347  0.16700  1.0000
  S   S133      1.0  0.72496  0.46244  0.15150  1.0000
  S   S134      1.0  0.70245  0.30955  0.19217  1.0000
  Fe  Fe67      1.0  0.73571  0.34891  0.21305  1.0000
  S   S135      1.0  0.76405  0.33270  0.25595  1.0000
  Fe  Fe68      1.0  0.72134  0.32825  0.14593  1.0000
  S   S136      1.0  0.73044  0.28511  0.11040  1.0000
  H   H536      1.0  0.85157  0.72002  0.21261  1.0000
  C   C328      1.0  0.76982  0.72108  0.22261  1.0000
  C   C329      1.0  0.76414  0.36731  0.28339  1.0000
  C   C330      1.0  0.75842  0.40271  0.27389  1.0000
  H   H537      1.0  0.67938  0.70038  0.25468  1.0000
  H   H538      1.0  0.13836  0.26094  0.12481  1.0000
  C   C331      1.0  0.12794  0.24955  0.29855  1.0000
  H   H539      1.0  0.75528  0.40902  0.24934  1.0000
  H   H540      1.0  0.98812  0.50039  0.08463  1.0000
  H   H541      1.0  0.73317  0.35733  0.08648  1.0000
  C   C332      1.0  0.77258  0.45954  0.19611  1.0000
  H   H542      1.0  0.77101  0.43092  0.19511  1.0000
  H   H543      1.0  0.80552  0.49781  0.31340  1.0000
  N   N37       1.0  0.10226  0.29191  0.09909  1.0000
  C   C333      1.0  0.16558  0.48675  0.16780  1.0000
  C   C334      1.0  0.11381  0.27395  0.12812  1.0000
  H   H544      1.0  0.16266  0.67376  0.15154  1.0000
  C   C335      1.0  0.75393  0.48129  0.17584  1.0000
  H   H545      1.0  0.80663  0.45789  0.23442  1.0000
  H   H546      1.0  0.05151  0.28773  0.11140  1.0000
  C   C336      1.0  0.79268  0.47485  0.21843  1.0000
  H   H547      1.0  0.70145  0.54967  0.21629  1.0000
  C   C337      1.0  0.12529  0.73900  0.12711  1.0000
  Fe  Fe69      1.0  0.78126  0.65688  0.27538  1.0000
  S   S137      1.0  0.75351  0.61556  0.24952  1.0000
  S   S138      1.0  0.79618  0.70805  0.25303  1.0000
  H   H548      1.0  0.89310  0.47057  0.30237  1.0000
  Fe  Fe70      1.0  0.78943  0.57725  0.27204  1.0000
  Fe  Fe71      1.0  0.72536  0.61153  0.29464  1.0000
  S   S139      1.0  0.14170  0.27983  0.21863  1.0000
  C   C338      1.0  0.83717  0.66054  0.18086  1.0000
  H   H549      1.0  0.87879  0.68391  0.22364  1.0000
  C   C339      1.0  0.74000  0.70456  0.21879  1.0000
  C   C340      1.0  0.71969  0.71397  0.19353  1.0000
  C   C341      1.0  0.09514  0.40941  0.07716  1.0000
  H   H550      1.0  0.92658  0.58891  0.08435  1.0000
  H   H551      1.0  0.84309  0.64048  0.19952  1.0000
  C   C342      1.0  0.75597  0.51841  0.17743  1.0000
  H   H552      1.0  0.73258  0.68451  0.23525  1.0000
  S   S140      1.0  0.09333  0.73657  0.15450  1.0000
  H   H553      1.0  0.70950  0.46844  0.22131  1.0000
  C   C343      1.0  0.79356  0.51193  0.22097  1.0000
  C   C344      1.0  0.77540  0.53377  0.20037  1.0000
  H   H554      1.0  0.77653  0.56245  0.20194  1.0000
  H   H555      1.0  0.16482  0.48478  0.29236  1.0000
  H   H556      1.0  0.88875  0.64836  0.14250  1.0000
  S   S141      1.0  0.81963  0.61868  0.29405  1.0000
  H   H557      1.0  0.74172  0.53526  0.16162  1.0000
  S   S142      1.0  0.81619  0.53054  0.25094  1.0000
  H   H558      1.0  0.69676  0.70086  0.19043  1.0000
  C   C345      1.0  0.70261  0.48453  0.24219  1.0000
  H   H559      1.0  0.81496  0.67591  0.18870  1.0000
  H   H560      1.0  0.80644  0.27832  0.08480  1.0000
  H   H561      1.0  0.88760  0.31967  0.07859  1.0000
  C   C346      1.0  0.16380  0.52076  0.11919  1.0000
  H   H562      1.0  0.69839  0.46542  0.26176  1.0000
  H   H563      1.0  0.87566  0.72938  0.14579  1.0000
  H   H564      1.0  0.12604  0.34105  0.10839  1.0000
  H   H565      1.0  0.91487  0.68000  0.15991  1.0000
  C   C347      1.0  0.83315  0.28151  0.08094  1.0000
  H   H566      1.0  0.12019  0.41642  0.07273  1.0000
  H   H567      1.0  0.83367  0.72725  0.15748  1.0000
  H   H568      1.0  0.84445  0.28485  0.10439  1.0000
  H   H569      1.0  0.09026  0.51015  0.24611  1.0000
  C   C348      1.0  0.86981  0.48654  0.30176  1.0000
  C   C349      1.0  0.89361  0.66292  0.16458  1.0000
  H   H570      1.0  0.15034  0.30902  0.08681  1.0000
  Fe  Fe72      1.0  0.14378  0.41476  0.20454  1.0000
  S   S143      1.0  0.09342  0.43591  0.21548  1.0000
  H   H571      1.0  0.68484  0.54368  0.27259  1.0000
  Fe  Fe73      1.0  0.12635  0.33777  0.21504  1.0000
  S   S144      1.0  0.07420  0.35227  0.22643  1.0000
  Fe  Fe74      1.0  0.07732  0.39056  0.18615  1.0000
  S   S145      1.0  0.03605  0.39729  0.15206  1.0000
  Fe  Fe75      1.0  0.09518  0.39604  0.25476  1.0000
  H   H572      1.0  0.85411  0.47487  0.28341  1.0000
  S   S146      1.0  0.12772  0.37205  0.17190  1.0000
  H   H573      1.0  0.75347  0.45748  0.28867  1.0000
  C   C350      1.0  0.04624  0.50657  0.11258  1.0000
  H   H574      1.0  0.90142  0.64271  0.18248  1.0000
  H   H575      1.0  0.13308  0.45494  0.28282  1.0000
  H   H576      1.0  0.06144  0.33950  0.28942  1.0000
  S   S147      1.0  0.14727  0.37874  0.24654  1.0000
  S   S148      1.0  0.69769  0.39317  0.21324  1.0000
  H   H577      1.0  0.70752  0.72260  0.27963  1.0000
  H   H578      1.0  0.15237  0.54953  0.29671  1.0000
  C   C351      1.0  0.05061  0.40043  0.11363  1.0000
  H   H579      1.0  0.06678  0.52423  0.27925  1.0000
  S   S149      1.0  0.08079  0.41050  0.30401  1.0000
  S   S150      1.0  0.77682  0.72195  0.08049  1.0000
  C   C352      1.0  0.72961  0.73940  0.17168  1.0000
  C   C353      1.0  0.17678  0.74342  0.08370  1.0000
  C   C354      1.0  0.08273  0.41018  0.10778  1.0000
  C   C355      1.0  0.13881  0.50698  0.17899  1.0000
  H   H580      1.0  0.07683  0.47796  0.27439  1.0000
  C   C356      1.0  0.68045  0.53286  0.21034  1.0000
  C   C357      1.0  0.03047  0.39135  0.08871  1.0000
  H   H581      1.0  0.14742  0.48550  0.25380  1.0000
  H   H582      1.0  0.09800  0.41852  0.12681  1.0000
  C   C358      1.0  0.06959  0.33987  0.31338  1.0000
  H   H583      1.0  0.00556  0.38392  0.09319  1.0000
  H   H584      1.0  0.11119  0.56650  0.29244  1.0000
  N   N38       1.0  0.11677  0.50943  0.28959  1.0000
  H   H585      1.0  0.05995  0.32185  0.08311  1.0000
  H   H586      1.0  0.72408  0.50056  0.24832  1.0000
  C   C359      1.0  0.15303  0.71779  0.08003  1.0000
  C   C360      1.0  0.16989  0.26481  0.19022  1.0000
  H   H587      1.0  0.89370  0.72070  0.20104  1.0000
  C   C361      1.0  0.87260  0.70306  0.20435  1.0000
  C   C362      1.0  0.12784  0.71499  0.10217  1.0000
  H   H588      1.0  0.06969  0.32817  0.12371  1.0000
  H   H589      1.0  0.13320  0.55077  0.25873  1.0000
  C   C363      1.0  0.96400  0.62795  0.08608  1.0000
  H   H590      1.0  0.02546  0.51239  0.12881  1.0000
  C   C364      1.0  0.06941  0.30810  0.10455  1.0000
  H   H591      1.0  0.12907  0.50180  0.20202  1.0000
  Fe  Fe76      1.0  0.07165  0.68250  0.15806  1.0000
  S   S151      1.0  0.02730  0.66912  0.18659  1.0000
  H   H592      1.0  0.00805  0.56176  0.09353  1.0000
  Fe  Fe77      1.0  0.08389  0.60716  0.13625  1.0000
  S   S152      1.0  0.04076  0.58635  0.16194  1.0000
  Fe  Fe78      1.0  0.01453  0.63601  0.14497  1.0000
  Fe  Fe79      1.0  0.05701  0.62061  0.20145  1.0000
  S   S153      1.0  0.06207  0.59395  0.24852  1.0000
  S   S154      1.0  0.05635  0.65354  0.11517  1.0000
  S   S155      1.0  0.10257  0.63729  0.17700  1.0000
  C   C365      1.0  0.04051  0.59501  0.30882  1.0000
  H   H593      1.0  0.11567  0.29318  0.14780  1.0000
  C   C366      1.0  0.14162  0.48255  0.27919  1.0000
  N   N39       1.0  0.86472  0.68430  0.17509  1.0000
  C   C367      1.0  0.12904  0.54560  0.28416  1.0000
  H   H594      1.0  0.11042  0.69427  0.09982  1.0000
  C   C368      1.0  0.13701  0.54091  0.13047  1.0000
  H   H595      1.0  0.84980  0.69770  0.12798  1.0000
  C   C369      1.0  0.12484  0.53437  0.16055  1.0000
  C   C370      1.0  0.03942  0.61250  0.27979  1.0000
  C   C371      1.0  0.02095  0.64437  0.27657  1.0000
  C   C372      1.0  0.00428  0.65898  0.30266  1.0000
  H   H596      1.0  0.05449  0.57047  0.31171  1.0000
  H   H597      1.0  0.02000  0.65811  0.25428  1.0000
  H   H598      1.0  0.01325  0.74655  0.08632  1.0000
  C   C373      1.0  0.12505  0.32007  0.09012  1.0000
  C   C374      1.0  0.02904  0.55463  0.07786  1.0000
  C   C375      1.0  0.08640  0.50517  0.27157  1.0000
  H   H599      1.0  0.87529  0.51405  0.29370  1.0000
  S   S156      1.0  0.96343  0.63084  0.12700  1.0000
  H   H600      1.0  0.00098  0.66686  0.08008  1.0000
  H   H601      1.0  0.83063  0.64581  0.15932  1.0000
  C   C376      1.0  0.75739  0.43009  0.29612  1.0000
  H   H602      1.0  0.10445  0.55011  0.16961  1.0000
  H   H603      1.0  0.99067  0.68403  0.30042  1.0000
  S   S157      1.0  0.11919  0.57477  0.10720  1.0000
  C   C377      1.0  0.85555  0.71075  0.15057  1.0000
  H   H604      1.0  0.09698  0.25291  0.13592  1.0000
  H   H605      1.0  0.12047  0.27488  0.28639  1.0000
  H   H606      1.0  0.68272  0.61973  0.23623  1.0000
  H   H607      1.0  0.68669  0.51863  0.18813  1.0000
  S   S158      1.0  0.68314  0.37181  0.13982  1.0000
  C   C378      1.0  0.73100  0.30240  0.07223  1.0000
  C   C379      1.0  0.10072  0.26558  0.07353  1.0000
  H   H608      1.0  0.05282  0.47771  0.11502  1.0000
  H   H609      1.0  0.83673  0.35063  0.09747  1.0000
  H   H610      1.0  0.06747  0.52161  0.12092  1.0000
  N   N40       1.0  0.16005  0.25249  0.31381  1.0000
  C   C380      1.0  0.77924  0.74730  0.20129  1.0000
  C   C381      1.0  0.76956  0.35945  0.31511  1.0000
  H   H611      1.0  0.79867  0.34305  0.07852  1.0000
  H   H612      1.0  0.04982  0.57124  0.08487  1.0000
  N   N41       1.0  0.03790  0.51613  0.07984  1.0000
  H   H613      1.0  0.16492  0.60686  0.15575  1.0000
  H   H614      1.0  0.15914  0.63834  0.10415  1.0000
  C   C382      1.0  0.68129  0.71680  0.27619  1.0000
  H   H615      1.0  0.17330  0.52579  0.09593  1.0000
  S   S159      1.0  0.75841  0.56851  0.31443  1.0000
  C   C383      1.0  0.82536  0.34515  0.07440  1.0000
  S   S160      1.0  0.75051  0.65570  0.31887  1.0000
  H   H616      1.0  0.79048  0.49027  0.53996  1.0000
  S   S161      1.0  0.74394  0.43121  0.44242  1.0000
  H   H617      1.0  0.85791  0.48924  0.54105  1.0000
  Fe  Fe80      1.0  0.78145  0.39100  0.45916  1.0000
  S   S162      1.0  0.76564  0.33896  0.47964  1.0000
  Fe  Fe81      1.0  0.77838  0.44029  0.40272  1.0000
  S   S163      1.0  0.75995  0.45665  0.35529  1.0000
  S   S164      1.0  0.80933  0.42935  0.48823  1.0000
  C   C384      1.0  0.75585  0.34344  0.51956  1.0000
  C   C385      1.0  0.75352  0.37710  0.53358  1.0000
  H   H618      1.0  0.72323  0.27342  0.45904  1.0000
  H   H619      1.0  0.75505  0.40096  0.51944  1.0000
  S   S165      1.0  0.80595  0.48249  0.42703  1.0000
  H   H620      1.0  0.82919  0.43783  0.32386  1.0000
  H   H621      1.0  0.77159  0.38045  0.36193  1.0000
  H   H622      1.0  0.82132  0.31149  0.52049  1.0000
  S   S166      1.0  0.81343  0.39571  0.41638  1.0000
  H   H623      1.0  0.16721  0.61703  0.56311  1.0000
  C   C386      1.0  0.84657  0.32147  0.51899  1.0000
  H   H624      1.0  0.86757  0.43260  0.34383  1.0000
  H   H625      1.0  0.75352  0.28673  0.52717  1.0000
  H   H626      1.0  0.04210  0.40629  0.41504  1.0000
  N   N42       1.0  0.70908  0.56641  0.40790  1.0000
  Fe  Fe82      1.0  0.77408  0.47002  0.46796  1.0000
  H   H627      1.0  0.94102  0.71336  0.47239  1.0000
  H   H628      1.0  0.86427  0.70839  0.42638  1.0000
  C   C387      1.0  0.15842  0.28182  0.33682  1.0000
  H   H629      1.0  0.68908  0.61201  0.38280  1.0000
  C   C388      1.0  0.15568  0.73984  0.36167  1.0000
  H   H630      1.0  0.70860  0.74434  0.52583  1.0000
  H   H631      1.0  0.01618  0.45217  0.34188  1.0000
  H   H632      1.0  0.78819  0.62227  0.53550  1.0000
  H   H633      1.0  0.86631  0.66076  0.42236  1.0000
  S   S167      1.0  0.80591  0.60226  0.38332  1.0000
  H   H634      1.0  0.83201  0.44941  0.36435  1.0000
  Fe  Fe83      1.0  0.79873  0.71274  0.52513  1.0000
  H   H635      1.0  0.75402  0.58881  0.49948  1.0000
  C   C389      1.0  0.78851  0.59365  0.53684  1.0000
  C   C390      1.0  0.77027  0.53738  0.51718  1.0000
  C   C391      1.0  0.11001  0.50440  0.32340  1.0000
  H   H636      1.0  0.70295  0.57584  0.35853  1.0000
  C   C392      1.0  0.08027  0.37145  0.32655  1.0000
  C   C393      1.0  0.79656  0.63650  0.40987  1.0000
  C   C394      1.0  0.80094  0.63029  0.44197  1.0000
  C   C395      1.0  0.79316  0.65729  0.46353  1.0000
  C   C396      1.0  0.78132  0.69061  0.45306  1.0000
  C   C397      1.0  0.77683  0.69678  0.42099  1.0000
  C   C398      1.0  0.78461  0.66977  0.39939  1.0000
  H   H637      1.0  0.80995  0.60447  0.45023  1.0000
  H   H638      1.0  0.79622  0.65229  0.48826  1.0000
  H   H639      1.0  0.11265  0.69859  0.39235  1.0000
  H   H640      1.0  0.78197  0.67504  0.37464  1.0000
  C   C399      1.0  0.91460  0.71283  0.46648  1.0000
  H   H641      1.0  0.87147  0.47719  0.50245  1.0000
  C   C400      1.0  0.82286  0.50904  0.33053  1.0000
  H   H642      1.0  0.87221  0.28077  0.56495  1.0000
  H   H643      1.0  0.92753  0.49419  0.48480  1.0000
  S   S168      1.0  0.77327  0.72497  0.47985  1.0000
  H   H644      1.0  0.69366  0.31094  0.49839  1.0000
  H   H645      1.0  0.88089  0.53005  0.35041  1.0000
  C   C401      1.0  0.73508  0.53864  0.40357  1.0000
  S   S169      1.0  0.74605  0.51435  0.49115  1.0000
  C   C402      1.0  0.76927  0.57460  0.51631  1.0000
  H   H646      1.0  0.84607  0.34350  0.50136  1.0000
  H   H647      1.0  0.70397  0.26341  0.42235  1.0000
  C   C403      1.0  0.79017  0.51912  0.53895  1.0000
  H   H648      1.0  0.13229  0.50751  0.33782  1.0000
  H   H649      1.0  0.86250  0.29940  0.50968  1.0000
  H   H650      1.0  0.76791  0.72264  0.41280  1.0000
  H   H651      1.0  0.00288  0.25622  0.54014  1.0000
  C   C404      1.0  0.84527  0.45005  0.34159  1.0000
  H   H652      1.0  0.00222  0.40457  0.43207  1.0000
  H   H653      1.0  0.90868  0.32421  0.53831  1.0000
  H   H654      1.0  0.83633  0.38630  0.54368  1.0000
  H   H655      1.0  0.94387  0.64746  0.46621  1.0000
  C   C405      1.0  0.89189  0.34583  0.54703  1.0000
  H   H656      1.0  0.82786  0.53674  0.32280  1.0000
  H   H657      1.0  0.15779  0.66184  0.55046  1.0000
  H   H658      1.0  0.90763  0.73899  0.45559  1.0000
  C   C406      1.0  0.83668  0.36360  0.56059  1.0000
  Fe  Fe84      1.0  0.06794  0.28660  0.43573  1.0000
  S   S170      1.0  0.03817  0.33563  0.44864  1.0000
  H   H659      1.0  0.15064  0.30758  0.32560  1.0000
  S   S171      1.0  0.05219  0.31142  0.52163  1.0000
  Fe  Fe85      1.0  0.01571  0.30033  0.48466  1.0000
  S   S172      1.0  0.96218  0.30215  0.49603  1.0000
  Fe  Fe86      1.0  0.07715  0.34285  0.48446  1.0000
  S   S173      1.0  0.09386  0.39582  0.50080  1.0000
  C   C407      1.0  0.88889  0.54390  0.51234  1.0000
  S   S174      1.0  0.10930  0.29701  0.46837  1.0000
  C   C408      1.0  0.93326  0.50021  0.50966  1.0000
  C   C409      1.0  0.70828  0.59056  0.38040  1.0000
  H   H660      1.0  0.69031  0.34536  0.46918  1.0000
  C   C410      1.0  0.01807  0.42079  0.41678  1.0000
  C   C411      1.0  0.07171  0.49075  0.46032  1.0000
  C   C412      1.0  0.87477  0.50209  0.35646  1.0000
  H   H661      1.0  0.73134  0.52299  0.38185  1.0000
  C   C413      1.0  0.08787  0.68423  0.55740  1.0000
  H   H662      1.0  0.02212  0.44648  0.42890  1.0000
  C   C414      1.0  0.07721  0.30944  0.36310  1.0000
  C   C415      1.0  0.91217  0.51934  0.55999  1.0000
  H   H663      1.0  0.16406  0.70809  0.41887  1.0000
  C   C416      1.0  0.08978  0.37193  0.35801  1.0000
  C   C417      1.0  0.08808  0.34094  0.37637  1.0000
  N   N43       1.0  0.90353  0.51149  0.52718  1.0000
  H   H664      1.0  0.09871  0.39608  0.36811  1.0000
  H   H665      1.0  0.09561  0.34126  0.40065  1.0000
  S   S175      1.0  0.07489  0.27073  0.38570  1.0000
  C   C418      1.0  0.08294  0.48624  0.42959  1.0000
  H   H666      1.0  0.10595  0.45005  0.39671  1.0000
  H   H667      1.0  0.11092  0.39979  0.43498  1.0000
  C   C419      1.0  0.09703  0.45342  0.42043  1.0000
  H   H668      1.0  0.90407  0.64544  0.48363  1.0000
  H   H669      1.0  0.77410  0.33209  0.32247  1.0000
  C   C420      1.0  0.91240  0.40439  0.45898  1.0000
  C   C421      1.0  0.89611  0.37221  0.45877  1.0000
  C   C422      1.0  0.91188  0.34075  0.46940  1.0000
  C   C423      1.0  0.94379  0.34141  0.48081  1.0000
  C   C424      1.0  0.96020  0.37361  0.48104  1.0000
  C   C425      1.0  0.94452  0.40508  0.47005  1.0000
  H   H670      1.0  0.89950  0.31574  0.46841  1.0000
  H   H671      1.0  0.98476  0.37434  0.49022  1.0000
  H   H672      1.0  0.95719  0.42994  0.47045  1.0000
  H   H673      1.0  0.87150  0.37134  0.44994  1.0000
  C   C426      1.0  0.16861  0.36463  0.52772  1.0000
  H   H674      1.0  0.94498  0.47581  0.52012  1.0000
  H   H675      1.0  0.07350  0.65404  0.51709  1.0000
  H   H676      1.0  0.02293  0.37651  0.36807  1.0000
  C   C427      1.0  0.09987  0.42509  0.44203  1.0000
  H   H677      1.0  0.97653  0.72169  0.52974  1.0000
  C   C428      1.0  0.87987  0.48253  0.52667  1.0000
  C   C429      1.0  0.07528  0.46283  0.48210  1.0000
  H   H678      1.0  0.85753  0.68049  0.45984  1.0000
  S   S176      1.0  0.04178  0.25037  0.46849  1.0000
  H   H679      1.0  0.86696  0.55387  0.52548  1.0000
  H   H680      1.0  0.06704  0.46662  0.50601  1.0000
  H   H681      1.0  0.88117  0.53864  0.48785  1.0000
  H   H682      1.0  0.14038  0.73790  0.49898  1.0000
  H   H683      1.0  0.71522  0.57008  0.45774  1.0000
  H   H684      1.0  0.02842  0.47539  0.37657  1.0000
  C   C430      1.0  0.15903  0.73742  0.41816  1.0000
  C   C431      1.0  0.99929  0.39168  0.37027  1.0000
  C   C432      1.0  0.97147  0.44528  0.38881  1.0000
  H   H685      1.0  0.69737  0.60931  0.43972  1.0000
  H   H686      1.0  0.95428  0.42932  0.40305  1.0000
  H   H687      1.0  0.90092  0.71082  0.48900  1.0000
  S   S177      1.0  0.89280  0.44374  0.44534  1.0000
  H   H688      1.0  0.98920  0.39486  0.34621  1.0000
  C   C433      1.0  0.80803  0.57570  0.55889  1.0000
  H   H689      1.0  0.95170  0.52143  0.50956  1.0000
  C   C434      1.0  0.02543  0.44850  0.36621  1.0000
  N   N44       1.0  0.00355  0.42657  0.38547  1.0000
  H   H690      1.0  0.89067  0.45718  0.53623  1.0000
  C   C435      1.0  0.76182  0.42206  0.32791  1.0000
  C   C436      1.0  0.76823  0.38681  0.33742  1.0000
  C   C437      1.0  0.08916  0.42997  0.47294  1.0000
  N   N45       1.0  0.85803  0.33373  0.54979  1.0000
  H   H691      1.0  0.90653  0.56589  0.51154  1.0000
  H   H692      1.0  0.16141  0.39336  0.52489  1.0000
  C   C438      1.0  0.06814  0.30886  0.33161  1.0000
  H   H693      1.0  0.96003  0.45043  0.36556  1.0000
  H   H694      1.0  0.05026  0.43589  0.36434  1.0000
  H   H695      1.0  0.16207  0.71088  0.35976  1.0000
  H   H696      1.0  0.74021  0.59908  0.43522  1.0000
  H   H697      1.0  0.81000  0.51082  0.35353  1.0000
  N   N46       1.0  0.85322  0.48691  0.33261  1.0000
  H   H698      1.0  0.93078  0.54033  0.56115  1.0000
  Fe  Fe87      1.0  0.83833  0.43748  0.44422  1.0000
  H   H699      1.0  0.91203  0.62552  0.44595  1.0000
  C   C439      1.0  0.75206  0.31280  0.53792  1.0000
  H   H700      1.0  0.98264  0.37462  0.38408  1.0000
  H   H701      1.0  0.73590  0.51951  0.42361  1.0000
  H   H702      1.0  0.75959  0.55045  0.40179  1.0000
  C   C440      1.0  0.91727  0.64880  0.46098  1.0000
  C   C441      1.0  0.80869  0.53840  0.56026  1.0000
  H   H703      1.0  0.08970  0.28186  0.56778  1.0000
  H   H704      1.0  0.06031  0.51573  0.46741  1.0000
  S   S178      1.0  0.84502  0.68035  0.53001  1.0000
  Fe  Fe88      1.0  0.01563  0.63508  0.40577  1.0000
  S   S179      1.0  0.00389  0.58117  0.42472  1.0000
  S   S180      1.0  0.98870  0.66081  0.36555  1.0000
  Fe  Fe89      1.0  0.07140  0.64428  0.45118  1.0000
  S   S181      1.0  0.06546  0.59065  0.47360  1.0000
  S   S182      1.0  0.10939  0.68308  0.46454  1.0000
  Fe  Fe90      1.0  0.05812  0.57139  0.42435  1.0000
  Fe  Fe91      1.0  0.01199  0.60532  0.47196  1.0000
  S   S183      1.0  0.97787  0.59308  0.51193  1.0000
  S   S184      1.0  0.06947  0.62387  0.40209  1.0000
  S   S185      1.0  0.01841  0.66062  0.45276  1.0000
  C   C442      1.0  0.87244  0.68312  0.43817  1.0000
  H   H705      1.0  0.95325  0.68705  0.42064  1.0000
  H   H706      1.0  0.91972  0.71167  0.40328  1.0000
  C   C443      1.0  0.10717  0.69474  0.50427  1.0000
  C   C444      1.0  0.12551  0.72299  0.51510  1.0000
  H   H707      1.0  0.86280  0.50264  0.37997  1.0000
  Fe  Fe92      1.0  0.78617  0.61298  0.33508  1.0000
  H   H708      1.0  0.92281  0.60760  0.55241  1.0000
  C   C445      1.0  0.02384  0.60937  0.33463  1.0000
  S   S186      1.0  0.77417  0.68619  0.56551  1.0000
  H   H709      1.0  0.02485  0.59538  0.35681  1.0000
  H   H710      1.0  0.73208  0.60367  0.37714  1.0000
  S   S187      1.0  0.07864  0.52108  0.40225  1.0000
  C   C446      1.0  0.93449  0.69696  0.54993  1.0000
  C   C447      1.0  0.96493  0.69682  0.53501  1.0000
  C   C448      1.0  0.97984  0.66441  0.52572  1.0000
  C   C449      1.0  0.96389  0.63234  0.53042  1.0000
  C   C450      1.0  0.93482  0.63232  0.54764  1.0000
  H   H711      1.0  0.89355  0.36889  0.53059  1.0000
  H   H712      1.0  0.00351  0.66431  0.51466  1.0000
  H   H713      1.0  0.05920  0.28465  0.32148  1.0000
  C   C451      1.0  0.08792  0.67571  0.52536  1.0000
  H   H714      1.0  0.94061  0.42421  0.55667  1.0000
  C   C452      1.0  0.00623  0.64166  0.33183  1.0000
  H   H715      1.0  0.15441  0.34970  0.51014  1.0000
  C   C453      1.0  0.12484  0.73202  0.54691  1.0000
  C   C454      1.0  0.67822  0.32143  0.47881  1.0000
  H   H716      1.0  0.92258  0.66402  0.39974  1.0000
  H   H717      1.0  0.97382  0.47144  0.40072  1.0000
  Fe  Fe93      1.0  0.08078  0.26442  0.50245  1.0000
  C   C455      1.0  0.92655  0.68658  0.41603  1.0000
  C   C456      1.0  0.10760  0.72795  0.39252  1.0000
  N   N47       1.0  0.90769  0.68284  0.44541  1.0000
  H   H718      1.0  0.09357  0.73392  0.41439  1.0000
  H   H719      1.0  0.89798  0.48618  0.35875  1.0000
  H   H720      1.0  0.11882  0.38527  0.56534  1.0000
  C   C457      1.0  0.71571  0.58718  0.43638  1.0000
  C   C458      1.0  0.92034  0.66459  0.55767  1.0000
  C   C459      1.0  0.74951  0.38001  0.56620  1.0000
  H   H721      1.0  0.71792  0.30756  0.42993  1.0000
  C   C460      1.0  0.70613  0.28408  0.44079  1.0000
  Fe  Fe94      1.0  0.86075  0.72351  0.56204  1.0000
  H   H722      1.0  0.14057  0.27630  0.35587  1.0000
  S   S188      1.0  0.91316  0.73730  0.55714  1.0000
  H   H723      1.0  0.10070  0.47740  0.32842  1.0000
  H   H724      1.0  0.09132  0.52414  0.33212  1.0000
  H   H725      1.0  0.11180  0.34178  0.55050  1.0000
  C   C461      1.0  0.17168  0.31355  0.56227  1.0000
  H   H726      1.0  0.99884  0.40609  0.56086  1.0000
  H   H727      1.0  0.09143  0.73462  0.37228  1.0000
  C   C462      1.0  0.12698  0.35672  0.56715  1.0000
  N   N48       1.0  0.16213  0.35180  0.55992  1.0000
  H   H728      1.0  0.15711  0.29718  0.54605  1.0000
  H   H729      1.0  0.81131  0.35500  0.56384  1.0000
  N   N49       1.0  0.13813  0.74793  0.39127  1.0000
  H   H730      1.0  0.14075  0.74756  0.34080  1.0000
  H   H731      1.0  0.14717  0.74477  0.44086  1.0000
  H   H732      1.0  0.90135  0.35464  0.57003  1.0000
  C   C463      1.0  0.10665  0.71218  0.56822  1.0000
  H   H733      1.0  0.89782  0.66430  0.57089  1.0000
  C   C464      1.0  0.16642  0.64537  0.57075  1.0000
  C   C465      1.0  0.74734  0.31571  0.57037  1.0000
  C   C466      1.0  0.72199  0.73976  0.67257  1.0000
  H   H734      1.0  0.74862  0.40603  0.57709  1.0000
  H   H735      1.0  0.13372  0.74640  0.73126  1.0000
  Fe  Fe95      1.0  0.80426  0.44754  0.68392  1.0000
  S   S189      1.0  0.78255  0.39581  0.69745  1.0000
  C   C467      1.0  0.17670  0.74720  0.77879  1.0000
  C   C468      1.0  0.01326  0.47298  0.64738  1.0000
  H   H736      1.0  0.92707  0.55897  0.77898  1.0000
  Fe  Fe96      1.0  0.78524  0.38242  0.64653  1.0000
  S   S190      1.0  0.74445  0.35195  0.62554  1.0000
  Fe  Fe97      1.0  0.83420  0.37488  0.69913  1.0000
  S   S191      1.0  0.80180  0.43649  0.63233  1.0000
  C   C469      1.0  0.76734  0.30045  0.79926  1.0000
  C   C470      1.0  0.76164  0.31116  0.76821  1.0000
  C   C471      1.0  0.78767  0.32166  0.74914  1.0000
  C   C472      1.0  0.81932  0.32232  0.76127  1.0000
  C   C473      1.0  0.82515  0.31035  0.79188  1.0000
  H   H737      1.0  0.67894  0.32136  0.60913  1.0000
  H   H738      1.0  0.73710  0.31152  0.75896  1.0000
  H   H739      1.0  0.78322  0.32901  0.72504  1.0000
  H   H740      1.0  0.12107  0.34743  0.59123  1.0000
  H   H741      1.0  0.00224  0.46498  0.62477  1.0000
  C   C474      1.0  0.01495  0.30804  0.81880  1.0000
  C   C475      1.0  0.75657  0.43973  0.78204  1.0000
  S   S192      1.0  0.83557  0.35737  0.64901  1.0000
  H   H742      1.0  0.82340  0.52449  0.57774  1.0000
  C   C476      1.0  0.98295  0.40370  0.58107  1.0000
  C   C477      1.0  0.85680  0.30405  0.57269  1.0000
  H   H743      1.0  0.76100  0.46246  0.76580  1.0000
  H   H744      1.0  0.93425  0.74684  0.81163  1.0000
  S   S193      1.0  0.85138  0.34083  0.73974  1.0000
  N   N50       1.0  0.99306  0.73935  0.62444  1.0000
  Fe  Fe98      1.0  0.79464  0.73060  0.59333  1.0000
  H   H745      1.0  0.97645  0.69326  0.60017  1.0000
  H   H746      1.0  0.00902  0.73360  0.67214  1.0000
  H   H747      1.0  0.84803  0.48668  0.72834  1.0000
  C   C478      1.0  0.96561  0.25529  0.59210  1.0000
  C   C479      1.0  0.71836  0.72398  0.70220  1.0000
  H   H748      1.0  0.05629  0.47165  0.60004  1.0000
  S   S194      1.0  0.78095  0.49602  0.70655  1.0000
  C   C480      1.0  0.83574  0.50697  0.74213  1.0000
  H   H749      1.0  0.75156  0.59857  0.70228  1.0000
  C   C481      1.0  0.78758  0.54333  0.75399  1.0000
  C   C482      1.0  0.80306  0.51649  0.73623  1.0000
  H   H750      1.0  0.76769  0.64206  0.70677  1.0000
  H   H751      1.0  0.80722  0.56973  0.63855  1.0000
  H   H752      1.0  0.81713  0.65873  0.67522  1.0000
  Fe  Fe99      1.0  0.79012  0.68237  0.77722  1.0000
  S   S195      1.0  0.83364  0.65330  0.75660  1.0000
  S   S196      1.0  0.74117  0.69079  0.75527  1.0000
  H   H753      1.0  0.00052  0.30918  0.61368  1.0000
  H   H754      1.0  0.74375  0.61429  0.64546  1.0000
  C   C483      1.0  0.77703  0.71539  0.70578  1.0000
  H   H755      1.0  0.04103  0.71459  0.62438  1.0000
  C   C484      1.0  0.85291  0.52436  0.76565  1.0000
  C   C485      1.0  0.83770  0.55214  0.78253  1.0000
  C   C486      1.0  0.80502  0.56158  0.77671  1.0000
  H   H756      1.0  0.79312  0.58298  0.78978  1.0000
  N   N51       1.0  0.78970  0.61121  0.66960  1.0000
  H   H757      1.0  0.69302  0.29862  0.64381  1.0000
  H   H758      1.0  0.79843  0.70662  0.71870  1.0000
  H   H759      1.0  0.83816  0.61823  0.68730  1.0000
  H   H760      1.0  0.77831  0.62573  0.62198  1.0000
  C   C487      1.0  0.76760  0.62767  0.64593  1.0000
  H   H761      1.0  0.74503  0.29189  0.58457  1.0000
  C   C488      1.0  0.77430  0.61399  0.70088  1.0000
  H   H762      1.0  0.76260  0.65649  0.65082  1.0000
  S   S197      1.0  0.81732  0.73122  0.78845  1.0000
  C   C489      1.0  0.82092  0.62995  0.66966  1.0000
  H   H763      1.0  0.81280  0.56009  0.67937  1.0000
  C   C490      1.0  0.79595  0.57316  0.66211  1.0000
  H   H764      1.0  0.76221  0.55061  0.74972  1.0000
  H   H765      1.0  0.79106  0.60375  0.71946  1.0000
  S   S198      1.0  0.83199  0.60022  0.58414  1.0000
  H   H766      1.0  0.02223  0.44804  0.65928  1.0000
  H   H767      1.0  0.03475  0.52097  0.68821  1.0000
  H   H768      1.0  0.89041  0.52909  0.57358  1.0000
  H   H769      1.0  0.83136  0.29488  0.57585  1.0000
  H   H770      1.0  0.83327  0.62823  0.64642  1.0000
  C   C491      1.0  0.74588  0.71182  0.71882  1.0000
  H   H771      1.0  0.84477  0.37397  0.58345  1.0000
  H   H772      1.0  0.08630  0.49864  0.61840  1.0000
  H   H773      1.0  0.00336  0.62000  0.81754  1.0000
  H   H774      1.0  0.97044  0.72455  0.73549  1.0000
  H   H775      1.0  0.77301  0.55801  0.66226  1.0000
  C   C492      1.0  0.14067  0.51710  0.66857  1.0000
  H   H776      1.0  0.99962  0.57080  0.76221  1.0000
  Fe  Fe100     1.0  0.05691  0.35868  0.65705  1.0000
  S   S199      1.0  0.05398  0.30171  0.67250  1.0000
  S   S200      1.0  0.03734  0.37938  0.61129  1.0000
  Fe  Fe101     1.0  0.09943  0.37902  0.71112  1.0000
  S   S201      1.0  0.10080  0.32394  0.73177  1.0000
  Fe  Fe102     1.0  0.10741  0.30553  0.68234  1.0000
  Fe  Fe103     1.0  0.04749  0.32471  0.72051  1.0000
  S   S202      1.0  0.01453  0.29928  0.75539  1.0000
  S   S203      1.0  0.11117  0.36054  0.66245  1.0000
  S   S204      1.0  0.04519  0.38177  0.70416  1.0000
  S   S205      1.0  0.12320  0.42421  0.73535  1.0000
  H   H777      1.0  0.03651  0.29985  0.59109  1.0000
  H   H778      1.0  0.14680  0.32444  0.80242  1.0000
  C   C493      1.0  0.01364  0.32486  0.78946  1.0000
  C   C494      1.0  0.01221  0.36208  0.78750  1.0000
  H   H779      1.0  0.01101  0.37516  0.76488  1.0000
  H   H780      1.0  0.80466  0.73260  0.66560  1.0000
  H   H781      1.0  0.04707  0.54952  0.62148  1.0000
  H   H782      1.0  0.99538  0.61843  0.76002  1.0000
  S   S206      1.0  0.14182  0.26062  0.66860  1.0000
  N   N52       1.0  0.78657  0.42875  0.79915  1.0000
  S   S207      1.0  0.88830  0.42561  0.60037  1.0000
  C   C495      1.0  0.13162  0.45961  0.70980  1.0000
  H   H783      1.0  0.13903  0.42657  0.66921  1.0000
  C   C496      1.0  0.92925  0.41130  0.60469  1.0000
  S   S208      1.0  0.85621  0.42797  0.68936  1.0000
  C   C497      1.0  0.99548  0.39041  0.60938  1.0000
  C   C498      1.0  0.97474  0.38693  0.63536  1.0000
  C   C499      1.0  0.94148  0.39732  0.63298  1.0000
  H   H784      1.0  0.98430  0.37653  0.65731  1.0000
  H   H785      1.0  0.10296  0.29694  0.62216  1.0000
  C   C500      1.0  0.02732  0.53032  0.62585  1.0000
  S   S209      1.0  0.85989  0.57645  0.80957  1.0000
  H   H786      1.0  0.81765  0.43903  0.75957  1.0000
  H   H787      1.0  0.17594  0.72034  0.76787  1.0000
  C   C501      1.0  0.98167  0.59358  0.76376  1.0000
  H   H788      1.0  0.95155  0.70667  0.63300  1.0000
  C   C502      1.0  0.05367  0.50818  0.67284  1.0000
  C   C503      1.0  0.14256  0.48210  0.65743  1.0000
  C   C504      1.0  0.75304  0.74236  0.65917  1.0000
  H   H789      1.0  0.11247  0.29639  0.79747  1.0000
  H   H790      1.0  0.07329  0.66921  0.57357  1.0000
  H   H791      1.0  0.14690  0.47720  0.63277  1.0000
  H   H792      1.0  0.80402  0.39443  0.76239  1.0000
  H   H793      1.0  0.92547  0.39491  0.65308  1.0000
  C   C505      1.0  0.13768  0.45342  0.67796  1.0000
  H   H794      1.0  0.92798  0.62603  0.81820  1.0000
  N   N53       1.0  0.04000  0.49795  0.64228  1.0000
  C   C506      1.0  0.01157  0.38252  0.81487  1.0000
  C   C507      1.0  0.95000  0.41414  0.57875  1.0000
  C   C508      1.0  0.11206  0.27211  0.61236  1.0000
  C   C509      1.0  0.78058  0.73003  0.67570  1.0000
  H   H795      1.0  0.80355  0.48231  0.80204  1.0000
  H   H796      1.0  0.86562  0.31234  0.59612  1.0000
  H   H797      1.0  0.07333  0.52771  0.66976  1.0000
  C   C510      1.0  0.74699  0.34922  0.58464  1.0000
  H   H798      1.0  0.84968  0.31018  0.80097  1.0000
  H   H799      1.0  0.15838  0.74765  0.79817  1.0000
  C   C511      1.0  0.13134  0.49454  0.72118  1.0000
  Fe  Fe104     1.0  0.86155  0.70005  0.77271  1.0000
  H   H800      1.0  0.96438  0.59144  0.74386  1.0000
  Fe  Fe105     1.0  0.85243  0.41272  0.63877  1.0000
  C   C512      1.0  0.94149  0.62521  0.79553  1.0000
  H   H801      1.0  0.12713  0.49943  0.74587  1.0000
  H   H802      1.0  0.95447  0.65072  0.79331  1.0000
  H   H803      1.0  0.87825  0.51711  0.76998  1.0000
  H   H804      1.0  0.83518  0.40875  0.78819  1.0000
  H   H805      1.0  0.99053  0.68450  0.63905  1.0000
  C   C513      1.0  0.81203  0.41735  0.77642  1.0000
  H   H806      1.0  0.05066  0.67044  0.74469  1.0000
  S   S210      1.0  0.11872  0.67690  0.75807  1.0000
  C   C514      1.0  0.02638  0.73508  0.61131  1.0000
  Fe  Fe106     1.0  0.10460  0.65737  0.71047  1.0000
  S   S211      1.0  0.08323  0.60358  0.70379  1.0000
  H   H807      1.0  0.00779  0.25018  0.64020  1.0000
  Fe  Fe107     1.0  0.09884  0.67704  0.64154  1.0000
  S   S212      1.0  0.07636  0.62543  0.62916  1.0000
  H   H808      1.0  0.99342  0.48509  0.66211  1.0000
  Fe  Fe108     1.0  0.04706  0.63282  0.67323  1.0000
  S   S213      1.0  0.99465  0.61634  0.67508  1.0000
  Fe  Fe109     1.0  0.11467  0.60112  0.66063  1.0000
  S   S214      1.0  0.14141  0.55274  0.64184  1.0000
  S   S215      1.0  0.06627  0.68716  0.68277  1.0000
  S   S216      1.0  0.13950  0.65234  0.67000  1.0000
  C   C515      1.0  0.97714  0.70450  0.62417  1.0000
  C   C516      1.0  0.13566  0.52330  0.70055  1.0000
  H   H809      1.0  0.69426  0.72127  0.71222  1.0000
  H   H810      1.0  0.13516  0.55021  0.70945  1.0000
  H   H811      1.0  0.91350  0.30856  0.80792  1.0000
  H   H812      1.0  0.01014  0.41135  0.81329  1.0000
  C   C517      1.0  0.08379  0.68189  0.78186  1.0000
  C   C518      1.0  0.05294  0.67768  0.76890  1.0000
  C   C519      1.0  0.02489  0.68268  0.78731  1.0000
  C   C520      1.0  0.13194  0.30382  0.81415  1.0000
  C   C521      1.0  0.08650  0.69023  0.81371  1.0000
  C   C522      1.0  0.92710  0.69523  0.72693  1.0000
  C   C523      1.0  0.96046  0.70125  0.72467  1.0000
  C   C524      1.0  0.98119  0.67663  0.70935  1.0000
  C   C525      1.0  0.96866  0.64653  0.69523  1.0000
  C   C526      1.0  0.93516  0.64051  0.69729  1.0000
  C   C527      1.0  0.91441  0.66470  0.71341  1.0000
  H   H813      1.0  0.00689  0.68089  0.70886  1.0000
  H   H814      1.0  0.92525  0.61727  0.68634  1.0000
  H   H815      1.0  0.88856  0.66023  0.71462  1.0000
  H   H816      1.0  0.01665  0.52374  0.60272  1.0000
  S   S217      1.0  0.10931  0.72181  0.60830  1.0000
  H   H817      1.0  0.00116  0.68023  0.77685  1.0000
  H   H818      1.0  0.07632  0.45614  0.63503  1.0000
  H   H819      1.0  0.06443  0.48464  0.68562  1.0000
  H   H820      1.0  0.92307  0.62464  0.77642  1.0000
  H   H821      1.0  0.16800  0.30301  0.58643  1.0000
  S   S218      1.0  0.90190  0.72618  0.74682  1.0000
  C   C528      1.0  0.13199  0.24901  0.63021  1.0000
  H   H822      1.0  0.67815  0.37792  0.64061  1.0000
  H   H823      1.0  0.77006  0.37560  0.80730  1.0000
  H   H824      1.0  0.00808  0.54462  0.63991  1.0000
  S   S219      1.0  0.84066  0.69984  0.60618  1.0000
  C   C529      1.0  0.06586  0.48037  0.62306  1.0000
  C   C530      1.0  0.00967  0.29632  0.59175  1.0000
  H   H825      1.0  0.14763  0.64803  0.58960  1.0000
  N   N54       1.0  0.00145  0.25824  0.59057  1.0000
  H   H826      1.0  0.69072  0.35305  0.67461  1.0000
  N   N55       1.0  0.96433  0.59397  0.79422  1.0000
  H   H827      1.0  0.73665  0.44826  0.79839  1.0000
  H   H828      1.0  0.02601  0.72633  0.58640  1.0000
  H   H829      1.0  0.74749  0.41751  0.76755  1.0000
  Fe  Fe110     1.0  0.84147  0.63309  0.80560  1.0000
  H   H830      1.0  0.95548  0.26729  0.61404  1.0000
  C   C531      1.0  0.10439  0.26353  0.58148  1.0000
  Fe  Fe111     1.0  0.82266  0.65827  0.57355  1.0000
  H   H831      1.0  0.92216  0.49508  0.57225  1.0000
  C   C532      1.0  0.79928  0.29918  0.81079  1.0000
  H   H832      1.0  0.99890  0.31173  0.57168  1.0000
  H   H833      1.0  0.96202  0.53676  0.79673  1.0000
  C   C533      1.0  0.94573  0.56102  0.79774  1.0000
  C   C534      1.0  0.79818  0.45916  0.81749  1.0000
  H   H834      1.0  0.07821  0.34470  0.82017  1.0000
  S   S220      1.0  0.87270  0.67796  0.82036  1.0000
  C   C535      1.0  0.02747  0.69027  0.81921  1.0000
  H   H835      1.0  0.17673  0.36329  0.60705  1.0000
  H   H836      1.0  0.17465  0.40130  0.58123  1.0000
  H   H837      1.0  0.14796  0.27969  0.81806  1.0000
  C   C536      1.0  0.77950  0.39866  0.82045  1.0000
  H   H838      1.0  0.93236  0.56052  0.82054  1.0000
  C   C537      1.0  0.98826  0.59601  0.81996  1.0000
  H   H839      1.0  0.01630  0.27920  0.82029  1.0000
  H   H840      1.0  0.00531  0.57233  0.82035  1.0000
  H   H841      1.0  0.95365  0.26934  0.57188  1.0000
  C   C538      1.0  0.92900  0.33804  0.88161  1.0000
  S   S221      1.0  0.79052  0.30406  0.89809  1.0000
  Fe  Fe112     1.0  0.75749  0.29918  0.93984  1.0000
  S   S222      1.0  0.74774  0.34421  0.97331  1.0000
  Fe  Fe113     1.0  0.75659  0.73616  0.03314  1.0000
  C   C539      1.0  0.73700  0.35214  0.03625  1.0000
  H   H842      1.0  0.91254  0.68734  0.01719  1.0000
  H   H843      1.0  0.13522  0.72766  0.86285  1.0000
  H   H844      1.0  0.77960  0.46847  0.83496  1.0000
  Fe  Fe114     1.0  0.80819  0.24878  0.91128  1.0000
  C   C540      1.0  0.73792  0.32858  0.01090  1.0000
  C   C541      1.0  0.73357  0.29218  0.01618  1.0000
  C   C542      1.0  0.88138  0.30837  0.86314  1.0000
  H   H845      1.0  0.06108  0.51536  0.03446  1.0000
  N   N56       1.0  0.83942  0.31226  0.06014  1.0000
  C   C543      1.0  0.98588  0.64792  0.06860  1.0000
  H   H846      1.0  0.97596  0.59779  0.84325  1.0000
  H   H847      1.0  0.73302  0.27407  0.99670  1.0000
  H   H848      1.0  0.72942  0.71799  0.86725  1.0000
  H   H849      1.0  0.87201  0.28633  0.84866  1.0000
  H   H850      1.0  0.74006  0.38038  0.03226  1.0000
  H   H851      1.0  0.84390  0.29377  0.94837  1.0000
  C   C544      1.0  0.91166  0.74498  0.87056  1.0000
  C   C545      1.0  0.73077  0.27901  0.04684  1.0000
  H   H852      1.0  0.15465  0.69940  0.06059  1.0000
  H   H853      1.0  0.09899  0.71078  0.90679  1.0000
  H   H854      1.0  0.05339  0.72116  0.02860  1.0000
  Fe  Fe115     1.0  0.96982  0.74344  0.94639  1.0000
  H   H855      1.0  0.88690  0.73521  0.86588  1.0000
  H   H856      1.0  0.95957  0.25878  0.96931  1.0000
  H   H857      1.0  0.08804  0.52313  0.06667  1.0000
  H   H858      1.0  0.72891  0.25065  0.05094  1.0000
  C   C546      1.0  0.79689  0.72895  0.90629  1.0000
  S   S223      1.0  0.74786  0.69409  0.99676  1.0000
  H   H859      1.0  0.87745  0.69764  0.04150  1.0000
  H   H860      1.0  0.75974  0.72746  0.83832  1.0000
  H   H861      1.0  0.00309  0.50152  0.04494  1.0000
  C   C547      1.0  0.76413  0.70726  0.96059  1.0000
  C   C548      1.0  0.77406  0.68195  0.93818  1.0000
  C   C549      1.0  0.79057  0.69282  0.91095  1.0000
  C   C550      1.0  0.06634  0.50815  0.05932  1.0000
  H   H862      1.0  0.77003  0.65393  0.94237  1.0000
  H   H863      1.0  0.79923  0.67319  0.89416  1.0000
  C   C551      1.0  0.83392  0.66398  0.00666  1.0000
  H   H864      1.0  0.91619  0.36455  0.87997  1.0000
  H   H865      1.0  0.82176  0.68370  0.02267  1.0000
  H   H866      1.0  0.12513  0.25281  0.06886  1.0000
  H   H867      1.0  0.86697  0.33316  0.85753  1.0000
  C   C552      1.0  0.73317  0.33909  0.06691  1.0000
  Fe  Fe116     1.0  0.82551  0.70472  0.83483  1.0000
  H   H868      1.0  0.83571  0.63791  0.01922  1.0000
  H   H869      1.0  0.72216  0.70850  0.82646  1.0000
  H   H870      1.0  0.11745  0.33364  0.06787  1.0000
  H   H871      1.0  0.15982  0.34691  0.85629  1.0000
  Fe  Fe117     1.0  0.75151  0.27561  0.87226  1.0000
  H   H872      1.0  0.07717  0.28215  0.84206  1.0000
  H   H873      1.0  0.08603  0.29834  0.88047  1.0000
  N   N57       1.0  0.11775  0.31713  0.84394  1.0000
  H   H874      1.0  0.87598  0.30148  0.88792  1.0000
  H   H875      1.0  0.92985  0.26622  0.88524  1.0000
  Fe  Fe118     1.0  0.05359  0.29420  0.95054  1.0000
  S   S224      1.0  0.07444  0.34641  0.93645  1.0000
  Fe  Fe119     1.0  0.99335  0.32910  0.98041  1.0000
  S   S225      1.0  0.00937  0.38433  0.96911  1.0000
  S   S226      1.0  0.94403  0.32359  0.00283  1.0000
  Fe  Fe120     1.0  0.02331  0.36149  0.92239  1.0000
  S   S227      1.0  0.01263  0.39196  0.87805  1.0000
  Fe  Fe121     1.0  0.05864  0.36378  0.98447  1.0000
  S   S228      1.0  0.09214  0.39436  0.01488  1.0000
  S   S229      1.0  0.00337  0.30776  0.93230  1.0000
  S   S230      1.0  0.04167  0.31013  0.00001  1.0000
  C   C553      1.0  0.06506  0.73541  0.04819  1.0000
  H   H876      1.0  0.80178  0.38890  0.83308  1.0000
  H   H877      1.0  0.82887  0.36883  0.05901  1.0000
  H   H878      1.0  0.02765  0.38208  0.03902  1.0000
  H   H879      1.0  0.88062  0.33908  0.04062  1.0000
  C   C554      1.0  0.01323  0.36580  0.84422  1.0000
  C   C555      1.0  0.01534  0.32853  0.84617  1.0000
  H   H880      1.0  0.17711  0.73430  0.95477  1.0000
  H   H881      1.0  0.01729  0.31543  0.86865  1.0000
  C   C556      1.0  0.13821  0.27406  0.93937  1.0000
  C   C557      1.0  0.88775  0.30655  0.97310  1.0000
  H   H882      1.0  0.87729  0.33067  0.98319  1.0000
  S   S231      1.0  0.08700  0.74283  0.96689  1.0000
  Fe  Fe122     1.0  0.04106  0.72030  0.94815  1.0000
  H   H883      1.0  0.88645  0.29178  0.04456  1.0000
  C   C558      1.0  0.93419  0.27802  0.86170  1.0000
  S   S232      1.0  0.81928  0.74361  0.87400  1.0000
  C   C559      1.0  0.92046  0.29693  0.97881  1.0000
  N   N58       1.0  0.91674  0.31290  0.85813  1.0000
  H   H884      1.0  0.76076  0.40633  0.83834  1.0000
  C   C560      1.0  0.93437  0.26652  0.96470  1.0000
  C   C561      1.0  0.86272  0.71121  0.98102  1.0000
  H   H885      1.0  0.85262  0.73176  0.99746  1.0000
  C   C562      1.0  0.98787  0.64394  0.03607  1.0000
  H   H886      1.0  0.11190  0.26449  0.86313  1.0000
  C   C563      1.0  0.86897  0.28584  0.95320  1.0000
  H   H887      1.0  0.12621  0.29507  0.95275  1.0000
  H   H888      1.0  0.84594  0.71049  0.96058  1.0000
  C   C564      1.0  0.14429  0.32552  0.86580  1.0000
  H   H889      1.0  0.92593  0.25843  0.84414  1.0000
  H   H890      1.0  0.11038  0.69311  0.82387  1.0000
  H   H891      1.0  0.06052  0.69997  0.85721  1.0000
  H   H892      1.0  0.16053  0.30171  0.87031  1.0000
  H   H893      1.0  0.96101  0.28052  0.85881  1.0000
  H   H894      1.0  0.80406  0.28978  0.83432  1.0000
  C   C565      1.0  0.05832  0.69409  0.83252  1.0000
  H   H895      1.0  0.92572  0.32775  0.90597  1.0000
  H   H896      1.0  0.13441  0.33470  0.88885  1.0000
  H   H897      1.0  0.94874  0.33083  0.82160  1.0000
  C   C566      1.0  0.04300  0.39018  0.05811  1.0000
  H   H898      1.0  0.82639  0.32996  0.01354  1.0000
  C   C567      1.0  0.76899  0.74328  0.95487  1.0000
  H   H899      1.0  0.07344  0.47927  0.05998  1.0000
  C   C568      1.0  0.82403  0.30647  0.02938  1.0000
  H   H900      1.0  0.68114  0.72663  0.95601  1.0000
  C   C569      1.0  0.88307  0.25569  0.93872  1.0000
  H   H901      1.0  0.92326  0.74133  0.06359  1.0000
  H   H902      1.0  0.88416  0.62293  0.98492  1.0000
  N   N59       1.0  0.86633  0.67588  0.99643  1.0000
  H   H903      1.0  0.92938  0.72285  0.86492  1.0000
  H   H904      1.0  0.68054  0.70718  0.02560  1.0000
  H   H905      1.0  0.82099  0.45192  0.83042  1.0000
  C   C570      1.0  0.96736  0.62069  0.02076  1.0000
  C   C571      1.0  0.09753  0.34972  0.83771  1.0000
  C   C572      1.0  0.88090  0.64989  0.97408  1.0000
  C   C573      1.0  0.13293  0.74462  0.88318  1.0000
  H   H906      1.0  0.08523  0.35978  0.85943  1.0000
  H   H907      1.0  0.00584  0.65824  0.02297  1.0000
  S   S233      1.0  0.73425  0.29087  0.82387  1.0000
  C   C574      1.0  0.87501  0.31583  0.05586  1.0000
  H   H908      1.0  0.89120  0.65221  0.03608  1.0000
  S   S234      1.0  0.95555  0.69311  0.92326  1.0000
  S   S235      1.0  0.03323  0.66746  0.92494  1.0000
  Fe  Fe123     1.0  0.99989  0.69989  0.89336  1.0000
  S   S236      1.0  0.99162  0.69298  0.84184  1.0000
  Fe  Fe124     1.0  0.98945  0.66528  0.95678  1.0000
  S   S237      1.0  0.96852  0.61703  0.97989  1.0000
  S   S238      1.0  0.00026  0.71529  0.98257  1.0000
  H   H909      1.0  0.81734  0.66070  0.98639  1.0000
  H   H910      1.0  0.90554  0.65800  0.96618  1.0000
  H   H911      1.0  0.90964  0.35334  0.82254  1.0000
  H   H912      1.0  0.92957  0.58247  0.02640  1.0000
  C   C575      1.0  0.11254  0.73503  0.90807  1.0000
  S   S239      1.0  0.71662  0.27613  0.91284  1.0000
  C   C576      1.0  0.88781  0.67843  0.02402  1.0000
  H   H913      1.0  0.86549  0.64736  0.95283  1.0000
  H   H914      1.0  0.95551  0.34249  0.87839  1.0000
  C   C577      1.0  0.94530  0.60073  0.03818  1.0000
  H   H915      1.0  0.88661  0.72070  0.97231  1.0000
  S   S240      1.0  0.79490  0.65760  0.82492  1.0000
  C   C578      1.0  0.07548  0.39868  0.05244  1.0000
  H   H916      1.0  0.83504  0.28278  0.01723  1.0000
  H   H917      1.0  0.79757  0.30186  0.03203  1.0000
  H   H918      1.0  0.09092  0.73930  0.04110  1.0000
  C   C579      1.0  0.73300  0.72787  0.84285  1.0000
  H   H919      1.0  0.02200  0.56273  0.05358  1.0000
  C   C580      1.0  0.17145  0.27621  0.93182  1.0000
  H   H920      1.0  0.09212  0.27838  0.05126  1.0000
  C   C581      1.0  0.09732  0.28936  0.85798  1.0000
  C   C582      1.0  0.92235  0.32702  0.82618  1.0000
  H   H921      1.0  0.06506  0.71747  0.06901  1.0000
  C   C583      1.0  0.00999  0.49509  0.06961  1.0000
  H   H922      1.0  0.84317  0.25617  0.07076  1.0000
  C   C584      1.0  0.94345  0.60456  0.07085  1.0000
  H   H923      1.0  0.01593  0.46591  0.07086  1.0000
  H   H924      1.0  0.11235  0.37167  0.82809  1.0000
  C   C585      1.0  0.06500  0.78809  0.08037  1.0000
  H   H925      1.0  0.14652  0.78419  0.14930  1.0000
  H   H926      1.0  0.69709  0.82435  0.09996  1.0000
  C   C586      1.0  0.69210  0.22214  0.16156  1.0000
  C   C587      1.0  0.17433  0.76739  0.10867  1.0000
  H   H927      1.0  0.05349  0.81470  0.08543  1.0000
  C   C588      1.0  0.67945  0.84355  0.11106  1.0000
  H   H928      1.0  0.70234  0.15541  0.18319  1.0000
  Fe  Fe125     1.0  0.80669  0.77067  0.07423  1.0000
  S   S241      1.0  0.77021  0.80815  0.09718  1.0000
  Fe  Fe126     1.0  0.73865  0.76054  0.09892  1.0000
  H   H929      1.0  0.17117  0.19605  0.31337  1.0000
  H   H930      1.0  0.70291  0.20459  0.14307  1.0000
  H   H931      1.0  0.70986  0.18636  0.21424  1.0000
  C   C589      1.0  0.69039  0.17448  0.19986  1.0000
  H   H932      1.0  0.80209  0.76051  0.20437  1.0000
  H   H933      1.0  0.06445  0.77231  0.10252  1.0000
  H   H934      1.0  0.69865  0.77815  0.24933  1.0000
  C   C590      1.0  0.14833  0.76552  0.13004  1.0000
  S   S242      1.0  0.86023  0.76604  0.08508  1.0000
  H   H935      1.0  0.71269  0.23424  0.17419  1.0000
  H   H936      1.0  0.68065  0.83867  0.13681  1.0000
  H   H937      1.0  0.09115  0.79204  0.07444  1.0000
  H   H938      1.0  0.68890  0.77785  0.30752  1.0000
  C   C591      1.0  0.17717  0.22821  0.18778  1.0000
  H   H939      1.0  0.76702  0.77595  0.15892  1.0000
  S   S243      1.0  0.70529  0.74955  0.13908  1.0000
  H   H940      1.0  0.68838  0.87077  0.10610  1.0000
  H   H941      1.0  0.16633  0.20967  0.20402  1.0000
  H   H942      1.0  0.12848  0.22821  0.28050  1.0000
  C   C592      1.0  0.75939  0.75604  0.17555  1.0000
  H   H943      1.0  0.10856  0.24341  0.31597  1.0000
  H   H944      1.0  0.08361  0.24402  0.07938  1.0000
  H   H945      1.0  0.67837  0.24428  0.14942  1.0000
  H   H946      1.0  0.15267  0.80244  0.39199  1.0000
  H   H947      1.0  0.13496  0.14393  0.52919  1.0000
  H   H948      1.0  0.15697  0.14079  0.46122  1.0000
  H   H949      1.0  0.72514  0.78998  0.48770  1.0000
  H   H950      1.0  0.12795  0.10776  0.50300  1.0000
  S   S244      1.0  0.81679  0.75878  0.55240  1.0000
  C   C593      1.0  0.16868  0.21865  0.33013  1.0000
  H   H951      1.0  0.14991  0.21180  0.34796  1.0000
  H   H952      1.0  0.00779  0.21367  0.55926  1.0000
  C   C594      1.0  0.73433  0.80604  0.50753  1.0000
  C   C595      1.0  0.72923  0.82070  0.56244  1.0000
  S   S245      1.0  0.10526  0.21994  0.53027  1.0000
  C   C596      1.0  0.71822  0.76130  0.54482  1.0000
  H   H953      1.0  0.75537  0.81320  0.56674  1.0000
  H   H954      1.0  0.73290  0.83463  0.50041  1.0000
  H   H955      1.0  0.14758  0.09912  0.54006  1.0000
  H   H956      1.0  0.72766  0.84981  0.55728  1.0000
  H   H957      1.0  0.04071  0.24381  0.55901  1.0000
  C   C597      1.0  0.01372  0.24234  0.56098  1.0000
  H   H958      1.0  0.16447  0.17626  0.48821  1.0000
  C   C598      1.0  0.13020  0.78660  0.39281  1.0000
  H   H959      1.0  0.76062  0.79824  0.51041  1.0000
  C   C599      1.0  0.68099  0.81022  0.53185  1.0000
  N   N60       1.0  0.71566  0.79961  0.53665  1.0000
  H   H960      1.0  0.74406  0.75274  0.54854  1.0000
  C   C600      1.0  0.11578  0.23137  0.56856  1.0000
  C   C601      1.0  0.14565  0.11829  0.52010  1.0000
  H   H961      1.0  0.11736  0.79370  0.41508  1.0000
  H   H962      1.0  0.11440  0.79559  0.37295  1.0000
  H   H963      1.0  0.13920  0.75383  0.55511  1.0000
  H   H964      1.0  0.67811  0.83903  0.52566  1.0000
  H   H965      1.0  0.17452  0.07858  0.47439  1.0000
  H   H966      1.0  0.70485  0.75532  0.56693  1.0000
  C   C602      1.0  0.17404  0.14992  0.47951  1.0000
  H   H967      1.0  0.17121  0.18984  0.68613  1.0000
  H   H968      1.0  0.15486  0.81401  0.79088  1.0000
  S   S246      1.0  0.75707  0.76072  0.62164  1.0000
  C   C603      1.0  0.13538  0.20794  0.58651  1.0000
  H   H969      1.0  0.16755  0.83341  0.75418  1.0000
  H   H970      1.0  0.01132  0.21021  0.61721  1.0000
  H   H971      1.0  0.11787  0.77342  0.76261  1.0000
  C   C604      1.0  0.91639  0.76863  0.81816  1.0000
  C   C605      1.0  0.72388  0.77583  0.80571  1.0000
  H   H972      1.0  0.69619  0.23017  0.80388  1.0000
  H   H973      1.0  0.12999  0.79398  0.72623  1.0000
  C   C606      1.0  0.13633  0.77238  0.74337  1.0000
  H   H974      1.0  0.16167  0.91142  0.69151  1.0000
  H   H975      1.0  0.89170  0.75955  0.81174  1.0000
  H   H976      1.0  0.00640  0.77870  0.65818  1.0000
  C   C607      1.0  0.99463  0.75239  0.65701  1.0000
  H   H977      1.0  0.97394  0.75744  0.58017  1.0000
  H   H978      1.0  0.95844  0.22691  0.59148  1.0000
  H   H979      1.0  0.94821  0.76784  0.61313  1.0000
  C   C608      1.0  0.14378  0.21691  0.61725  1.0000
  H   H980      1.0  0.15906  0.19877  0.63088  1.0000
  C   C609      1.0  0.97413  0.76544  0.60521  1.0000
  H   H981      1.0  0.70067  0.74933  0.65981  1.0000
  H   H982      1.0  0.92165  0.79212  0.80314  1.0000
  N   N61       1.0  0.16974  0.77594  0.75567  1.0000
  H   H983      1.0  0.98465  0.79240  0.60613  1.0000
  H   H984      1.0  0.03986  0.76039  0.61216  1.0000
  H   H985      1.0  0.71249  0.75746  0.78877  1.0000
  H   H986      1.0  0.71331  0.80311  0.80146  1.0000
  H   H987      1.0  0.14436  0.18304  0.57662  1.0000
  H   H988      1.0  0.04377  0.24125  0.61706  1.0000
  C   C610      1.0  0.17240  0.81102  0.77097  1.0000
  H   H989      1.0  0.96980  0.75537  0.66761  1.0000
  H   H990      1.0  0.71606  0.81598  0.58493  1.0000
  C   C611      1.0  0.01669  0.23911  0.61744  1.0000
  H   H991      1.0  0.75037  0.77618  0.79981  1.0000
  H   H992      1.0  0.67911  0.18812  0.81380  1.0000
  S   S247      1.0  0.78938  0.78212  0.02540  1.0000
  C   C612      1.0  0.73440  0.78895  0.86010  1.0000
  N   N62       1.0  0.71861  0.76417  0.83847  1.0000
  C   C613      1.0  0.70909  0.82287  0.94959  1.0000
  C   C614      1.0  0.72382  0.83262  0.97765  1.0000
  C   C615      1.0  0.70973  0.85949  0.99623  1.0000
  C   C616      1.0  0.91298  0.75937  0.04609  1.0000
  C   C617      1.0  0.78568  0.75417  0.92806  1.0000
  H   H993      1.0  0.74604  0.81927  0.98515  1.0000
  H   H994      1.0  0.00016  0.78868  0.06951  1.0000
  C   C618      1.0  0.68579  0.15997  0.91680  1.0000
  H   H995      1.0  0.00055  0.74904  0.04617  1.0000
  S   S248      1.0  0.07865  0.24235  0.93712  1.0000
  S   S249      1.0  0.72542  0.86676  0.03364  1.0000
  H   H996      1.0  0.95728  0.81372  0.84561  1.0000
  Fe  Fe127     1.0  0.74987  0.81525  0.04887  1.0000
  C   C619      1.0  0.91471  0.78505  0.99366  1.0000
  H   H997      1.0  0.17727  0.17815  0.00044  1.0000
  H   H998      1.0  0.69057  0.13250  0.84080  1.0000
  C   C620      1.0  0.88302  0.77705  0.05168  1.0000
  C   C621      1.0  0.69876  0.15447  0.88672  1.0000
  S   S250      1.0  0.77900  0.24647  0.95556  1.0000
  C   C622      1.0  0.95133  0.78938  0.85924  1.0000
  S   S251      1.0  0.70733  0.18256  0.94552  1.0000
  H   H999      1.0  0.71947  0.80107  0.93606  1.0000
  H   H1000     1.0  0.72306  0.16305  0.88120  1.0000
  C   C623      1.0  0.91565  0.24584  0.94476  1.0000
  S   S252      1.0  0.93160  0.78627  0.95572  1.0000
  H   H1001     1.0  0.84807  0.81616  0.03409  1.0000
  S   S253      1.0  0.77162  0.22048  0.88222  1.0000
  H   H1002     1.0  0.73155  0.78026  0.88490  1.0000
  C   C624      1.0  0.12819  0.78751  0.93647  1.0000
  H   H1003     1.0  0.12321  0.19425  0.90573  1.0000
  C   C625      1.0  0.87021  0.80082  0.02919  1.0000
  H   H1004     1.0  0.87538  0.82236  0.98250  1.0000
  H   H1005     1.0  0.12627  0.80416  0.95706  1.0000
  H   H1006     1.0  0.95360  0.79580  0.88461  1.0000
  H   H1007     1.0  0.92657  0.22244  0.93370  1.0000
  H   H1008     1.0  0.79012  0.78221  0.92437  1.0000
  N   N63       1.0  0.04795  0.76983  0.05487  1.0000
  H   H1009     1.0  0.76109  0.79034  0.85536  1.0000
  Fe  Fe128     1.0  0.74036  0.22347  0.92542  1.0000
  C   C626      1.0  0.88597  0.80476  0.00017  1.0000
  C   C627      1.0  0.67999  0.83997  0.94015  1.0000
  C   C628      1.0  0.68040  0.13720  0.86389  1.0000
  H   H1010     1.0  0.07314  0.79742  0.01813  1.0000
  C   C629      1.0  0.04784  0.79247  0.02637  1.0000
  C   C630      1.0  0.14787  0.79762  0.91113  1.0000
  H   H1011     1.0  0.03513  0.77954  0.00663  1.0000
  C   C631      1.0  0.13669  0.21709  0.91316  1.0000
  C   C632      1.0  0.12069  0.24465  0.92976  1.0000
  H   H1012     1.0  0.89805  0.83041  0.84618  1.0000
  C   C633      1.0  0.11064  0.75614  0.93494  1.0000
  C   C634      1.0  0.15072  0.77577  0.88473  1.0000
  S   S254      1.0  0.01149  0.75286  0.91370  1.0000
  C   C635      1.0  0.89384  0.80555  0.85975  1.0000
  H   H1013     1.0  0.89463  0.81223  0.88519  1.0000
  H   H1014     1.0  0.97034  0.76846  0.85361  1.0000
  H   H1015     1.0  0.03531  0.81877  0.03050  1.0000
  N   N64       1.0  0.91830  0.77720  0.85187  1.0000
  H   H1016     1.0  0.67839  0.75561  0.86991  1.0000
  C   C636      1.0  0.16984  0.21939  0.90535  1.0000
  C   C637      1.0  0.92853  0.76306  0.01698  1.0000
  C   C638      1.0  0.01398  0.76327  0.06465  1.0000
  H   H1017     1.0  0.75986  0.76280  0.97123  1.0000
  H   H1018     1.0  0.68922  0.75653  0.98730  1.0000
  C   C639      1.0  0.68171  0.87818  0.98589  1.0000
  H   H1019     1.0  0.69283  0.22266  0.00948  1.0000
  C   C640      1.0  0.68321  0.76395  0.84526  1.0000
  S   S255      1.0  0.86116  0.23216  0.91085  1.0000
  H   H1020     1.0  0.16103  0.82210  0.91214  1.0000
  S   S256      1.0  0.71563  0.77014  0.05228  1.0000
  H   H1021     1.0  0.86861  0.79703  0.85465  1.0000
  H   H1022     1.0  0.72348  0.81645  0.85822  1.0000
  H   H1023     1.0  0.91296  0.75046  0.89614  1.0000
  H   H1024     1.0  0.95071  0.74816  0.01247  1.0000
