data_image0
_chemical_formula_structural       H3NH3FeCSHFeHSHS2FeHCFeCHC2FeSC2HSC2SH3C2H4NC4H12SHSCHFeHC2H2FeHCHFeNHFeS2FeS2FeSFeS3CHSFeSFeS2FeS2FeSFeS3H2C2H2CHC6H4C6H3C2H2C8H4C6H3C2H2C2HCHNCH2CH6SH4CSH4CH4NHCH3FeHSH3SCH6C3SHCHSH4C2H5NH6FeHSCHFeHSH3FeS2H2C3HC3H4C2H3CSCH2CNH4C2H4CHNHC2HNHCH3CH2CSCHSH2C2FeS2FeS2FeSFeS3HSH6FeSFeS2FeS2FeSFeS3C3H4C3H3C6H4CHCH2C7HNCH3C6H4CHCH2C2HNC2NCH2CH5FeHCHCNCH4CH5CHNC4H17CHCHSH3NH5C2HC3H2C4H2SHCH2CNHSH5NCH2CHC3HFeH2CH2CHCH2C3HFeSHCH2FeS2FeS2FeSFeS3HSFeS2FeS2FeS2FeSFeS3C2H4CH4C6H4C6H4FeC3H3CH2C7HNHCHFeH2SH7CHSHNH7CH2C2H3CH3NCHC2H3C3H2CHCH2CH4SH4CHCHCHNC3H4C5HNSH3C4HC2H2CH7CHCHCSCNHS2H3CH3FeSHSFe2HSCH2SFeSC2HCFeS2FeS2FeSFeS3HCSFeSFeS2FeS2FeSFeS3CHCHCH4C6H5CSH2NHCHCH2C6H4C5H3C2H2NC4H10SCH4CH3CH3SC2HNCSFeC2H2SHCH2C2HNH2CHNH3C2H3C2H3C2H5CHSH2C2H4CH3NCH2CHCHFeC4H2CSHCHCH3CH2SHSHCH6CNCHS2FeH2C2SFeHNCH4CHCHCHFeCH2CH2CH2FeSHS2CHC2HC2SHSHCSCH3SCH2CFeH2NC4H2SHCH2FeC2H7CNHFeCH3CHS2FeSHFeSFeS2FeS2FeSFeS3FeS2FeS2FeSFeS3C6H4C3HSHCH2CSH2C6H4C6H11C2S2CHCHNC4H12NC2H6CHN2HCHCNC3HCHC3H3C3H11SHCH2CH2CH3CHSH2FeH5CHCHCHCH3CHNCHCHFeH5C2HCHC3NH4SHC2SH2SH2CHCHSHSH4CFe2C3HCHCNCHCH3SCSHC2HFeSH2NH3C5HFeH2CHCHC2SCH2CH5CFeH3CNFeCS3H2FeSFeS2FeS2FeSFeS3FeS2FeS2FeSFeS3CH2C2HCHCH2C3HC6H5C6H5C7H4SHCNCSHFeCHNC4H14C2HN2C4H12C2H4C2H3C3H4NCH3FeSH2C2HCNH2SH8CHC2HCH7CSCH3SH2CH4C2HCH4CHCH2CHFeSFeSFeS2FeS2FeSFeS3FeS2FeS2FeSFeS3CHC2HC3H4CHC7H4C6H4C6H12CH3CHCHCH5NC4H11FeH2SHCNH2CHCHC2HSCHC2HC3H2CNSHNHC2HCHCH4CHNH4SHCH5SH3CHCH2C2HCNCH9NSH7CSH5CH2S2H2SC2SHFeS2NHCFeCH2CHCH3CHCSCH2FeHC4FeHCHCH2CSFeC2SCH4CFeH2CHC4SCHCNHCH2C2FeSFeSFeS2FeS2FeSFeS3FeS2FeS2FeSFeS3C6H5C2HCH2CHCH2SHC6H4C6H4CH8CH2C2HNHCNH5CH3NHCH2C3FeH5NC4H5CH5CH3CHSHCHCH3SHCHC2SCH2CHNH2SHCH9CSHCNH2C2HSCHCH3CHCH7CH4SC3H2SHFeCSFeCSHC2SC3HC2H2FeH2CHC2HCNHSCHC4H2FeH4CHSFeH4CHNHC2H4CHC2H2SH2C2HFeH6FeSNH2FeSHC4HSH3CH2CH3CH2CHCNH3CSH3C2H2CH2CHCSH2CH2CHFeS2FeS2FeSFeS3HNH2FeSFeS2FeS2FeSFeS4HC2H2C6H4CHC3H4CHC6H4C2HCH3CH2C3NCHC3H2CH2NH2CFeH2CH2CSHC2H4FeHSH2C2H2CHFeC2HSCFe2CH4CH2C4SHSHCH2CH2SH8C2NCHCH3CH5SHC2HNHCH4C2HNCH7CH3CH3SH2SH2CSH3C3FeC3SH8FeC2NSCSNC3H2CHFeHFeSFeS2FeS2FeSFeS3FeS2FeS2FeSFeS3CHC2NC2H2CH4CHC3HC7H5CNCH2C3H3CHC6H5C4H2CN2C4H12CH2CHCSH3CH4CSH4FeHSCH6CHCH2SCHCNHCH5SH2CH4CH3CHFeHFeHCH4SHCH3C4H2S3FeSHFeS2FeS2FeSFeS3CHCSH2CSFeS2FeS2FeSFeS3CH2C3H4C6SH2C6H4FeC2H3CH3C6H6C2H3CH3NHCH2FeH5SH4FeH3NH2NH2CH7NC4H2C4H7CH4FeCHCHC2SCH2C2NC3H4CHCH3CHCSH5FeHCH2C2HCSFeHCSCH2SH2CHC3H9CNH2CSCFeHCH4CHC2H2C2HCH3S2NC2HSH3SHFeH6SCH2CFeS2FeS2FeSFeS5FeSHFeS2FeS2FeSFeS3C2H2CHCH3C6H4C6H4CHC2SH3CHNC3H3C3H6FeHSC2HCHC4HCHCHSFeCHCHNCH2CHNHCH4CH2NCH3C2H2CH4CHCH3SHCHNHCH2CHCHFeCH5C2H2NFeCHCH3FeHCHSCHCH7FeH6SC2H5C2H3SCSCHNHCH2C3H2CHSHC2HS2NH2
_chemical_formula_sum              "H1536 N96 Fe192 C960 S384"
_cell_length_a       69.7149
_cell_length_b       69.8181
_cell_length_c       49.1062
_cell_angle_alpha    85.379
_cell_angle_beta     85.627
_cell_angle_gamma    87.406

_space_group_name_H-M_alt    "P 1"
_space_group_IT_number       1

loop_
  _space_group_symop_operation_xyz
  'x, y, z'

loop_
  _atom_site_type_symbol
  _atom_site_label
  _atom_site_symmetry_multiplicity
  _atom_site_fract_x
  _atom_site_fract_y
  _atom_site_fract_z
  _atom_site_occupancy
  H   H1        1.0  0.08008  0.09311  0.05181  1.0000
  H   H2        1.0  0.34320  0.02439  0.42763  1.0000
  H   H3        1.0  0.33960  0.05955  0.45963  1.0000
  N   N1        1.0  0.07849  0.12130  0.06685  1.0000
  H   H4        1.0  0.10202  0.14014  0.05846  1.0000
  H   H5        1.0  0.32850  0.04589  0.39168  1.0000
  H   H6        1.0  0.23258  0.03661  0.12035  1.0000
  Fe  Fe1       1.0  0.30980  0.01401  0.48100  1.0000
  C   C1        1.0  0.09177  0.13507  0.07571  1.0000
  S   S1        1.0  0.07797  0.21889  0.03685  1.0000
  H   H7        1.0  0.05390  0.10570  0.08385  1.0000
  Fe  Fe2       1.0  0.10939  0.21251  0.04164  1.0000
  H   H8        1.0  0.08381  0.14798  0.08335  1.0000
  S   S2        1.0  0.12927  0.23226  0.05919  1.0000
  H   H9        1.0  0.06018  0.14366  0.04881  1.0000
  S   S3        1.0  0.05266  0.17622  0.08527  1.0000
  S   S4        1.0  0.10534  0.18244  0.06108  1.0000
  Fe  Fe3       1.0  0.20763  0.01299  0.05232  1.0000
  H   H10       1.0  0.29788  0.02067  0.37731  1.0000
  C   C2        1.0  0.15573  0.09341  0.04618  1.0000
  Fe  Fe4       1.0  0.17877  0.04656  0.04263  1.0000
  C   C3        1.0  0.33408  0.06063  0.43893  1.0000
  H   H11       1.0  0.03043  0.18239  0.03629  1.0000
  C   C4        1.0  0.01572  0.16843  0.10222  1.0000
  C   C5        1.0  0.02817  0.17424  0.07969  1.0000
  Fe  Fe5       1.0  0.07427  0.18800  0.05248  1.0000
  S   S5        1.0  0.30177  0.01565  0.43558  1.0000
  C   C6        1.0  0.06844  0.13028  0.04334  1.0000
  C   C7        1.0  0.08960  0.10390  0.05855  1.0000
  H   H12       1.0  0.10041  0.12854  0.09246  1.0000
  S   S6        1.0  0.17671  0.01785  0.06702  1.0000
  C   C8        1.0  0.12788  0.25760  0.05972  1.0000
  C   C9        1.0  0.06419  0.11610  0.08974  1.0000
  S   S7        1.0  0.16831  0.07378  0.06310  1.0000
  H   H13       1.0  0.32122  0.05160  0.44001  1.0000
  H   H14       1.0  0.09767  0.09689  0.07563  1.0000
  H   H15       1.0  0.15115  0.25690  0.08617  1.0000
  C   C10       1.0  0.14085  0.12588  0.04730  1.0000
  C   C11       1.0  0.15080  0.10999  0.06011  1.0000
  H   H16       1.0  0.07129  0.10950  0.10796  1.0000
  H   H17       1.0  0.32916  0.07584  0.43428  1.0000
  H   H18       1.0  0.13749  0.13866  0.05809  1.0000
  H   H19       1.0  0.15487  0.11063  0.08083  1.0000
  N   N2        1.0  0.21539  0.06244  0.11140  1.0000
  C   C12       1.0  0.21931  0.07086  0.13698  1.0000
  C   C13       1.0  0.19701  0.05249  0.11558  1.0000
  C   C14       1.0  0.23116  0.04851  0.10401  1.0000
  C   C15       1.0  0.21401  0.07786  0.08907  1.0000
  H   H20       1.0  0.23306  0.07854  0.13456  1.0000
  H   H21       1.0  0.22050  0.05951  0.15416  1.0000
  H   H22       1.0  0.20759  0.08132  0.14324  1.0000
  H   H23       1.0  0.19400  0.04540  0.09698  1.0000
  H   H24       1.0  0.19722  0.04122  0.13291  1.0000
  H   H25       1.0  0.18461  0.06269  0.11988  1.0000
  H   H26       1.0  0.05557  0.12906  0.09620  1.0000
  H   H27       1.0  0.24527  0.05544  0.10055  1.0000
  H   H28       1.0  0.22859  0.04173  0.08491  1.0000
  H   H29       1.0  0.21099  0.07193  0.06952  1.0000
  H   H30       1.0  0.22758  0.08575  0.08527  1.0000
  H   H31       1.0  0.20202  0.08846  0.09373  1.0000
  S   S8        1.0  0.21017  0.04241  0.02924  1.0000
  H   H32       1.0  0.02124  0.16555  0.12222  1.0000
  S   S9        1.0  0.31268  0.04213  0.50031  1.0000
  C   C16       1.0  0.02089  0.17792  0.05382  1.0000
  H   H33       1.0  0.33593  0.07025  0.38498  1.0000
  Fe  Fe6       1.0  0.10926  0.17254  0.01862  1.0000
  H   H34       1.0  0.05806  0.12044  0.03631  1.0000
  C   C17       1.0  0.13556  0.12525  0.02046  1.0000
  C   C18       1.0  0.34105  0.05533  0.39129  1.0000
  H   H35       1.0  0.07885  0.13422  0.02561  1.0000
  H   H36       1.0  0.10042  0.10750  0.04118  1.0000
  Fe  Fe7       1.0  0.34301  0.03215  0.50691  1.0000
  H   H37       1.0  0.33991  0.08051  0.49545  1.0000
  C   C19       1.0  0.15050  0.09283  0.01935  1.0000
  H   H38       1.0  0.34246  0.11601  0.48967  1.0000
  Fe  Fe8       1.0  0.20046  0.02914  0.99216  1.0000
  N   N3        1.0  0.22213  0.09799  0.67185  1.0000
  H   H39       1.0  0.33250  0.10485  0.79026  1.0000
  Fe  Fe9       1.0  0.26091  0.07333  0.79711  1.0000
  S   S10       1.0  0.25931  0.10583  0.79235  1.0000
  S   S11       1.0  0.26112  0.05354  0.83719  1.0000
  Fe  Fe10      1.0  0.26840  0.07004  0.73458  1.0000
  S   S12       1.0  0.26686  0.10198  0.72587  1.0000
  S   S13       1.0  0.27472  0.04665  0.70419  1.0000
  Fe  Fe11      1.0  0.28496  0.10381  0.76160  1.0000
  S   S14       1.0  0.30727  0.12699  0.75253  1.0000
  Fe  Fe12      1.0  0.24139  0.10218  0.75695  1.0000
  S   S15       1.0  0.21808  0.12481  0.74589  1.0000
  S   S16       1.0  0.28811  0.07168  0.76864  1.0000
  S   S17       1.0  0.24136  0.06982  0.76333  1.0000
  C   C20       1.0  0.34028  0.11682  0.78023  1.0000
  H   H40       1.0  0.16106  0.10524  0.84261  1.0000
  S   S18       1.0  0.28748  0.04551  0.57281  1.0000
  Fe  Fe13      1.0  0.08448  0.20665  0.99611  1.0000
  S   S19       1.0  0.07348  0.22068  0.95725  1.0000
  Fe  Fe14      1.0  0.07028  0.17436  0.79683  1.0000
  S   S20       1.0  0.08269  0.20143  0.80833  1.0000
  S   S21       1.0  0.03926  0.17007  0.81371  1.0000
  Fe  Fe15      1.0  0.11015  0.15863  0.77397  1.0000
  S   S22       1.0  0.12511  0.18490  0.78289  1.0000
  S   S23       1.0  0.12655  0.13104  0.76267  1.0000
  Fe  Fe16      1.0  0.10729  0.18261  0.82265  1.0000
  S   S24       1.0  0.12199  0.18223  0.86147  1.0000
  Fe  Fe17      1.0  0.09933  0.20155  0.76735  1.0000
  S   S25       1.0  0.10299  0.22962  0.74139  1.0000
  S   S26       1.0  0.09370  0.15545  0.81509  1.0000
  S   S27       1.0  0.08539  0.17540  0.75445  1.0000
  H   H41       1.0  0.03353  0.14940  0.90729  1.0000
  H   H42       1.0  0.04814  0.19545  0.93031  1.0000
  C   C21       1.0  0.15982  0.11861  0.82882  1.0000
  C   C22       1.0  0.22385  0.08852  0.64585  1.0000
  H   H43       1.0  0.27216  0.07706  0.65889  1.0000
  H   H44       1.0  0.03556  0.17016  0.75470  1.0000
  C   C23       1.0  0.03690  0.19696  0.91526  1.0000
  H   H45       1.0  0.10725  0.23272  0.79909  1.0000
  C   C24       1.0  0.08598  0.20959  0.93014  1.0000
  C   C25       1.0  0.08437  0.21704  0.90305  1.0000
  C   C26       1.0  0.09522  0.20854  0.88161  1.0000
  C   C27       1.0  0.10779  0.19278  0.88745  1.0000
  C   C28       1.0  0.10918  0.18528  0.91447  1.0000
  C   C29       1.0  0.09807  0.19348  0.93572  1.0000
  H   H46       1.0  0.07501  0.22952  0.89866  1.0000
  H   H47       1.0  0.09432  0.21451  0.86072  1.0000
  H   H48       1.0  0.11877  0.17299  0.91903  1.0000
  H   H49       1.0  0.09897  0.18724  0.95641  1.0000
  C   C30       1.0  0.27965  0.04713  0.66767  1.0000
  C   C31       1.0  0.28602  0.03003  0.65577  1.0000
  C   C32       1.0  0.28924  0.02942  0.62700  1.0000
  C   C33       1.0  0.28571  0.04584  0.60948  1.0000
  C   C34       1.0  0.27943  0.06299  0.62142  1.0000
  C   C35       1.0  0.27671  0.06372  0.65023  1.0000
  H   H50       1.0  0.25684  0.01798  0.79856  1.0000
  H   H51       1.0  0.13646  0.10801  0.98586  1.0000
  H   H52       1.0  0.12971  0.24888  0.92761  1.0000
  C   C36       1.0  0.01934  0.17310  0.79332  1.0000
  C   C37       1.0  0.33138  0.12942  0.76096  1.0000
  H   H53       1.0  0.17044  0.15397  0.80864  1.0000
  H   H54       1.0  0.25128  0.10736  0.66740  1.0000
  C   C38       1.0  0.03373  0.16261  0.91850  1.0000
  C   C39       1.0  0.26634  0.02123  0.77961  1.0000
  C   C40       1.0  0.15203  0.12936  0.75848  1.0000
  C   C41       1.0  0.16159  0.11114  0.75932  1.0000
  C   C42       1.0  0.18189  0.10938  0.75652  1.0000
  C   C43       1.0  0.19273  0.12588  0.75221  1.0000
  C   C44       1.0  0.18313  0.14402  0.75098  1.0000
  C   C45       1.0  0.16293  0.14578  0.75438  1.0000
  H   H55       1.0  0.15324  0.09835  0.76231  1.0000
  H   H56       1.0  0.18908  0.09531  0.75716  1.0000
  H   H57       1.0  0.19139  0.15686  0.74722  1.0000
  H   H58       1.0  0.15578  0.15986  0.75323  1.0000
  C   C46       1.0  0.22033  0.04330  0.91624  1.0000
  C   C47       1.0  0.21353  0.05334  0.89255  1.0000
  C   C48       1.0  0.22582  0.05708  0.86854  1.0000
  C   C49       1.0  0.24514  0.05052  0.86760  1.0000
  C   C50       1.0  0.25190  0.04037  0.89123  1.0000
  C   C51       1.0  0.14417  0.13602  0.86540  1.0000
  H   H59       1.0  0.12944  0.24927  0.99100  1.0000
  H   H60       1.0  0.22027  0.06480  0.85065  1.0000
  H   H61       1.0  0.17191  0.11813  0.81267  1.0000
  C   C52       1.0  0.02136  0.17202  0.76492  1.0000
  C   C53       1.0  0.17876  0.13614  0.85683  1.0000
  H   H62       1.0  0.24081  0.07701  0.69230  1.0000
  H   H63       1.0  0.26676  0.03516  0.89091  1.0000
  C   C54       1.0  0.15120  0.01480  0.94949  1.0000
  C   C55       1.0  0.10753  0.24694  0.78871  1.0000
  H   H64       1.0  0.14470  0.12286  0.87971  1.0000
  C   C56       1.0  0.22598  0.08362  0.69475  1.0000
  H   H65       1.0  0.14617  0.11825  0.81843  1.0000
  N   N4        1.0  0.03695  0.17983  0.89942  1.0000
  C   C57       1.0  0.02138  0.18217  0.88045  1.0000
  H   H66       1.0  0.18067  0.12335  0.87159  1.0000
  H   H67       1.0  0.22121  0.09895  0.62805  1.0000
  C   C58       1.0  0.23970  0.03695  0.91541  1.0000
  H   H68       1.0  0.33522  0.10367  0.60200  1.0000
  H   H69       1.0  0.24525  0.02917  0.93327  1.0000
  H   H70       1.0  0.28837  0.01705  0.66885  1.0000
  H   H71       1.0  0.17959  0.14921  0.86825  1.0000
  H   H72       1.0  0.27667  0.07581  0.60820  1.0000
  H   H73       1.0  0.05861  0.19034  0.86897  1.0000
  S   S28       1.0  0.20372  0.03845  0.94558  1.0000
  H   H74       1.0  0.14474  0.15328  0.81420  1.0000
  H   H75       1.0  0.14451  0.14863  0.87787  1.0000
  H   H76       1.0  0.19141  0.09545  0.67800  1.0000
  H   H77       1.0  0.28561  0.01695  0.82497  1.0000
  C   C59       1.0  0.23625  0.11329  0.67052  1.0000
  S   S29       1.0  0.16909  0.03503  0.00508  1.0000
  H   H78       1.0  0.05612  0.16489  0.87108  1.0000
  H   H79       1.0  0.29910  0.03321  0.75228  1.0000
  H   H80       1.0  0.29393  0.01608  0.61833  1.0000
  H   H81       1.0  0.02280  0.19926  0.92707  1.0000
  C   C60       1.0  0.15832  0.15326  0.82476  1.0000
  H   H82       1.0  0.21575  0.07174  0.69625  1.0000
  H   H83       1.0  0.19121  0.13605  0.84119  1.0000
  H   H84       1.0  0.22450  0.09031  0.71466  1.0000
  H   H85       1.0  0.15798  0.16672  0.83553  1.0000
  N   N5        1.0  0.16027  0.13600  0.84398  1.0000
  H   H86       1.0  0.12998  0.13690  0.85625  1.0000
  C   C61       1.0  0.05570  0.17756  0.88354  1.0000
  H   H87       1.0  0.03977  0.21021  0.90167  1.0000
  H   H88       1.0  0.01969  0.16391  0.93081  1.0000
  H   H89       1.0  0.30929  0.01379  0.80804  1.0000
  Fe  Fe18      1.0  0.30508  0.02682  0.54196  1.0000
  H   H90       1.0  0.23381  0.12441  0.65348  1.0000
  S   S30       1.0  0.33583  0.01812  0.54892  1.0000
  H   H91       1.0  0.14529  0.01283  0.97125  1.0000
  H   H92       1.0  0.20083  0.11401  0.69574  1.0000
  H   H93       1.0  0.21336  0.07693  0.64613  1.0000
  S   S31       1.0  0.07782  0.17645  0.01124  1.0000
  C   C62       1.0  0.11594  0.24822  0.94061  1.0000
  H   H94       1.0  0.23849  0.08175  0.64198  1.0000
  H   H95       1.0  0.13910  0.02001  0.93700  1.0000
  H   H96       1.0  0.19861  0.05834  0.89279  1.0000
  H   H97       1.0  0.23527  0.12078  0.68984  1.0000
  H   H98       1.0  0.15422  0.08020  0.00836  1.0000
  H   H99       1.0  0.02380  0.19452  0.86493  1.0000
  C   C63       1.0  0.20247  0.10657  0.67639  1.0000
  C   C64       1.0  0.10664  0.24935  0.76030  1.0000
  C   C65       1.0  0.29453  0.02005  0.80542  1.0000
  S   S32       1.0  0.12236  0.14441  0.00346  1.0000
  H   H100      1.0  0.19899  0.11743  0.65945  1.0000
  C   C66       1.0  0.34173  0.14494  0.74821  1.0000
  H   H101      1.0  0.04522  0.16043  0.93313  1.0000
  S   S33       1.0  0.11628  0.20219  0.99976  1.0000
  H   H102      1.0  0.06781  0.17569  0.89718  1.0000
  H   H103      1.0  0.26673  0.03711  0.77646  1.0000
  H   H104      1.0  0.33227  0.13205  0.56741  1.0000
  H   H105      1.0  0.11579  0.23392  0.95245  1.0000
  C   C67       1.0  0.29794  0.01738  0.75646  1.0000
  C   C68       1.0  0.14044  0.10865  0.00663  1.0000
  H   H106      1.0  0.29168  0.01219  0.73829  1.0000
  H   H107      1.0  0.33500  0.15476  0.73326  1.0000
  H   H108      1.0  0.29557  0.03596  0.80271  1.0000
  H   H109      1.0  0.25946  0.01622  0.76187  1.0000
  H   H110      1.0  0.09465  0.24868  0.98873  1.0000
  N   N6        1.0  0.28591  0.01253  0.78201  1.0000
  H   H111      1.0  0.16179  0.02641  0.94811  1.0000
  H   H112      1.0  0.02050  0.16914  0.86904  1.0000
  H   H113      1.0  0.10401  0.24862  0.92671  1.0000
  H   H114      1.0  0.34352  0.11698  0.54245  1.0000
  H   H115      1.0  0.17895  0.01122  0.90909  1.0000
  H   H116      1.0  0.31281  0.01104  0.75740  1.0000
  Fe  Fe19      1.0  0.19004  0.49814  0.03642  1.0000
  H   H117      1.0  0.33640  0.49446  0.40993  1.0000
  S   S34       1.0  0.18109  0.46794  0.05162  1.0000
  C   C69       1.0  0.13551  0.50137  0.03952  1.0000
  H   H118      1.0  0.33399  0.44802  0.45171  1.0000
  Fe  Fe20      1.0  0.11372  0.34562  0.03781  1.0000
  H   H119      1.0  0.04440  0.31184  0.10383  1.0000
  S   S35       1.0  0.12868  0.32303  0.06499  1.0000
  H   H120      1.0  0.07881  0.34951  0.11269  1.0000
  H   H121      1.0  0.30372  0.49342  0.45587  1.0000
  H   H122      1.0  0.04697  0.33705  0.10753  1.0000
  Fe  Fe21      1.0  0.07535  0.36729  0.03440  1.0000
  S   S36       1.0  0.04639  0.36735  0.05806  1.0000
  S   S37       1.0  0.10260  0.37413  0.05264  1.0000
  H   H123      1.0  0.09989  0.33347  0.11267  1.0000
  H   H124      1.0  0.14456  0.40985  0.04671  1.0000
  C   C70       1.0  0.02682  0.37228  0.03765  1.0000
  C   C71       1.0  0.08242  0.30255  0.09855  1.0000
  C   C72       1.0  0.16057  0.43556  0.04857  1.0000
  H   H125      1.0  0.12690  0.50720  0.10741  1.0000
  C   C73       1.0  0.14099  0.28594  0.07599  1.0000
  C   C74       1.0  0.12828  0.29801  0.06123  1.0000
  C   C75       1.0  0.11524  0.28979  0.04548  1.0000
  H   H126      1.0  0.15108  0.29206  0.08823  1.0000
  H   H127      1.0  0.30404  0.45400  0.40896  1.0000
  H   H128      1.0  0.09669  0.50387  0.08542  1.0000
  H   H129      1.0  0.16680  0.43044  0.06747  1.0000
  C   C76       1.0  0.30233  0.48544  0.43744  1.0000
  C   C77       1.0  0.16518  0.45375  0.03601  1.0000
  H   H130      1.0  0.10535  0.29895  0.03394  1.0000
  H   H131      1.0  0.21267  0.44952  0.02035  1.0000
  H   H132      1.0  0.11882  0.46917  0.06015  1.0000
  C   C78       1.0  0.14795  0.42385  0.03688  1.0000
  S   S38       1.0  0.22102  0.50539  0.02481  1.0000
  C   C79       1.0  0.33685  0.48389  0.42806  1.0000
  H   H133      1.0  0.32326  0.46471  0.47441  1.0000
  H   H134      1.0  0.32975  0.45309  0.40180  1.0000
  C   C80       1.0  0.10502  0.50587  0.06521  1.0000
  N   N7        1.0  0.31935  0.47252  0.43187  1.0000
  H   H135      1.0  0.07379  0.28952  0.10343  1.0000
  H   H136      1.0  0.06098  0.30318  0.14638  1.0000
  H   H137      1.0  0.09743  0.49843  0.05017  1.0000
  H   H138      1.0  0.08429  0.31226  0.15000  1.0000
  C   C81       1.0  0.08549  0.33620  0.10439  1.0000
  C   C82       1.0  0.05425  0.32397  0.09927  1.0000
  H   H139      1.0  0.05592  0.32690  0.07658  1.0000
  H   H140      1.0  0.09703  0.29924  0.10591  1.0000
  H   H141      1.0  0.06334  0.32829  0.15065  1.0000
  H   H142      1.0  0.08812  0.33926  0.08193  1.0000
  C   C83       1.0  0.07028  0.31565  0.14081  1.0000
  H   H143      1.0  0.14969  0.50281  0.08897  1.0000
  N   N8        1.0  0.07309  0.31959  0.11079  1.0000
  H   H144      1.0  0.08429  0.30499  0.07587  1.0000
  C   C84       1.0  0.12529  0.47752  0.07532  1.0000
  C   C85       1.0  0.11473  0.26953  0.04528  1.0000
  H   H145      1.0  0.30035  0.49647  0.42010  1.0000
  N   N9        1.0  0.12510  0.49833  0.06673  1.0000
  H   H146      1.0  0.15076  0.49615  0.04022  1.0000
  C   C86       1.0  0.32121  0.45792  0.45518  1.0000
  H   H147      1.0  0.33855  0.49202  0.44626  1.0000
  H   H148      1.0  0.31552  0.47344  0.38876  1.0000
  H   H149      1.0  0.30823  0.44912  0.45895  1.0000
  C   C87       1.0  0.31707  0.46281  0.40672  1.0000
  H   H150      1.0  0.28886  0.47737  0.44102  1.0000
  H   H151      1.0  0.11719  0.47458  0.09553  1.0000
  C   C88       1.0  0.14097  0.26597  0.07493  1.0000
  S   S39       1.0  0.08591  0.33815  0.02287  1.0000
  C   C89       1.0  0.02821  0.38566  0.01487  1.0000
  H   H152      1.0  0.14027  0.47155  0.07727  1.0000
  S   S40       1.0  0.31954  0.49576  0.50894  1.0000
  H   H153      1.0  0.12898  0.49354  0.02389  1.0000
  H   H154      1.0  0.10438  0.26310  0.03392  1.0000
  C   C90       1.0  0.13469  0.50862  0.08675  1.0000
  C   C91       1.0  0.13985  0.43023  0.01240  1.0000
  Fe  Fe22      1.0  0.23967  0.44669  0.76697  1.0000
  S   S41       1.0  0.24611  0.47696  0.77549  1.0000
  S   S42       1.0  0.20853  0.44363  0.75694  1.0000
  Fe  Fe23      1.0  0.28179  0.43289  0.77278  1.0000
  S   S43       1.0  0.29058  0.46205  0.78206  1.0000
  S   S44       1.0  0.30244  0.40759  0.76367  1.0000
  Fe  Fe24      1.0  0.26295  0.46322  0.80978  1.0000
  S   S45       1.0  0.26302  0.47080  0.85485  1.0000
  Fe  Fe25      1.0  0.27282  0.47295  0.74704  1.0000
  S   S46       1.0  0.28360  0.49577  0.71372  1.0000
  S   S47       1.0  0.25531  0.43298  0.80243  1.0000
  S   S48       1.0  0.26526  0.44378  0.73665  1.0000
  H   H155      1.0  0.04340  0.33708  0.97105  1.0000
  S   S49       1.0  0.08359  0.38177  0.99311  1.0000
  H   H156      1.0  0.17543  0.27812  0.73160  1.0000
  H   H157      1.0  0.30577  0.45667  0.71080  1.0000
  H   H158      1.0  0.04131  0.38110  0.95728  1.0000
  H   H159      1.0  0.10745  0.26973  0.72494  1.0000
  H   H160      1.0  0.05598  0.33626  0.92307  1.0000
  H   H161      1.0  0.15721  0.32769  0.77395  1.0000
  Fe  Fe26      1.0  0.09694  0.35306  0.98334  1.0000
  S   S50       1.0  0.09344  0.33696  0.94649  1.0000
  Fe  Fe27      1.0  0.13278  0.36309  0.76086  1.0000
  S   S51       1.0  0.12655  0.35314  0.80495  1.0000
  S   S52       1.0  0.16488  0.36594  0.74951  1.0000
  Fe  Fe28      1.0  0.09012  0.35978  0.74947  1.0000
  S   S53       1.0  0.08109  0.34992  0.79280  1.0000
  S   S54       1.0  0.06991  0.35964  0.71569  1.0000
  Fe  Fe29      1.0  0.10042  0.37278  0.80292  1.0000
  S   S55       1.0  0.09468  0.39146  0.83781  1.0000
  Fe  Fe30      1.0  0.10808  0.33125  0.79041  1.0000
  S   S56       1.0  0.10935  0.30125  0.81083  1.0000
  S   S57       1.0  0.10764  0.38445  0.75958  1.0000
  S   S58       1.0  0.11609  0.33945  0.74626  1.0000
  C   C92       1.0  0.03307  0.35691  0.74317  1.0000
  C   C93       1.0  0.04474  0.35632  0.71853  1.0000
  C   C94       1.0  0.03638  0.35231  0.69474  1.0000
  H   H162      1.0  0.03932  0.36020  0.76164  1.0000
  H   H163      1.0  0.04515  0.35194  0.67561  1.0000
  H   H164      1.0  0.25141  0.47366  0.69855  1.0000
  H   H165      1.0  0.19501  0.44049  0.95345  1.0000
  C   C95       1.0  0.10908  0.28150  0.79078  1.0000
  C   C96       1.0  0.10906  0.28393  0.76221  1.0000
  C   C97       1.0  0.23620  0.50356  0.66862  1.0000
  H   H166      1.0  0.18858  0.32706  0.74743  1.0000
  H   H167      1.0  0.10957  0.29817  0.75191  1.0000
  H   H168      1.0  0.33440  0.47437  0.74294  1.0000
  C   C98       1.0  0.09465  0.35220  0.91640  1.0000
  C   C99       1.0  0.09584  0.37208  0.91740  1.0000
  C   C100      1.0  0.09530  0.38424  0.89330  1.0000
  C   C101      1.0  0.09417  0.37645  0.86814  1.0000
  C   C102      1.0  0.09338  0.35654  0.86715  1.0000
  C   C103      1.0  0.09345  0.34444  0.89127  1.0000
  H   H169      1.0  0.09704  0.37813  0.93671  1.0000
  H   H170      1.0  0.09601  0.39963  0.89413  1.0000
  H   H171      1.0  0.09259  0.35038  0.84784  1.0000
  H   H172      1.0  0.09260  0.32906  0.89039  1.0000
  C   C104      1.0  0.24899  0.48494  0.87862  1.0000
  H   H173      1.0  0.23917  0.46507  0.67139  1.0000
  C   C105      1.0  0.23305  0.49666  0.87133  1.0000
  H   H174      1.0  0.19648  0.47390  0.98968  1.0000
  H   H175      1.0  0.05171  0.37984  0.92282  1.0000
  C   C106      1.0  0.25426  0.48449  0.90584  1.0000
  C   C107      1.0  0.10789  0.26785  0.74698  1.0000
  C   C108      1.0  0.33604  0.41857  0.78422  1.0000
  C   C109      1.0  0.03208  0.30182  0.73996  1.0000
  C   C110      1.0  0.29091  0.49434  0.67820  1.0000
  C   C111      1.0  0.28792  0.47815  0.66420  1.0000
  C   C112      1.0  0.29339  0.47800  0.63591  1.0000
  H   H176      1.0  0.04820  0.30800  0.78608  1.0000
  N   N10       1.0  0.03395  0.35622  0.93773  1.0000
  C   C113      1.0  0.10867  0.26296  0.80390  1.0000
  H   H177      1.0  0.28140  0.46571  0.67500  1.0000
  H   H178      1.0  0.29083  0.46547  0.62527  1.0000
  H   H179      1.0  0.02208  0.30007  0.75869  1.0000
  C   C114      1.0  0.19681  0.42177  0.75500  1.0000
  C   C115      1.0  0.20671  0.40387  0.75651  1.0000
  C   C116      1.0  0.19680  0.38691  0.75450  1.0000
  C   C117      1.0  0.17687  0.38763  0.75146  1.0000
  C   C118      1.0  0.16696  0.40551  0.75010  1.0000
  C   C119      1.0  0.17692  0.42248  0.75170  1.0000
  H   H180      1.0  0.22204  0.40310  0.75892  1.0000
  H   H181      1.0  0.20464  0.37317  0.75542  1.0000
  H   H182      1.0  0.15169  0.40630  0.74733  1.0000
  H   H183      1.0  0.16916  0.43626  0.75026  1.0000
  C   C120      1.0  0.32733  0.40561  0.76919  1.0000
  H   H184      1.0  0.19669  0.30616  0.73005  1.0000
  C   C121      1.0  0.20818  0.47156  0.97345  1.0000
  H   H185      1.0  0.32746  0.43011  0.79311  1.0000
  H   H186      1.0  0.16294  0.30533  0.79287  1.0000
  C   C122      1.0  0.04258  0.34395  0.91647  1.0000
  C   C123      1.0  0.01581  0.36556  0.92867  1.0000
  H   H187      1.0  0.21923  0.48234  0.97510  1.0000
  N   N11       1.0  0.16788  0.30501  0.74905  1.0000
  C   C124      1.0  0.15699  0.31178  0.77368  1.0000
  C   C125      1.0  0.15896  0.31347  0.72425  1.0000
  N   N12       1.0  0.33667  0.45698  0.70850  1.0000
  C   C126      1.0  0.18797  0.31106  0.74832  1.0000
  H   H188      1.0  0.09268  0.27445  0.98930  1.0000
  H   H189      1.0  0.24423  0.45896  0.95691  1.0000
  C   C127      1.0  0.06494  0.30089  0.72069  1.0000
  H   H190      1.0  0.24865  0.49546  0.94588  1.0000
  H   H191      1.0  0.20210  0.47489  0.95320  1.0000
  H   H192      1.0  0.06367  0.31623  0.71242  1.0000
  H   H193      1.0  0.17421  0.27691  0.76842  1.0000
  H   H194      1.0  0.20763  0.48056  0.65983  1.0000
  Fe  Fe31      1.0  0.32489  0.50874  0.54826  1.0000
  H   H195      1.0  0.32463  0.48561  0.71268  1.0000
  C   C128      1.0  0.01682  0.34848  0.69537  1.0000
  H   H196      1.0  0.19511  0.30513  0.76688  1.0000
  C   C129      1.0  0.16753  0.28379  0.75001  1.0000
  N   N13       1.0  0.05231  0.29734  0.74602  1.0000
  C   C130      1.0  0.04755  0.37110  0.94219  1.0000
  H   H197      1.0  0.15249  0.27883  0.75093  1.0000
  H   H198      1.0  0.23842  0.49761  0.64818  1.0000
  H   H199      1.0  0.01972  0.33284  0.96107  1.0000
  H   H200      1.0  0.23842  0.43432  0.95555  1.0000
  C   C131      1.0  0.33653  0.47587  0.72016  1.0000
  H   H201      1.0  0.06933  0.27319  0.76228  1.0000
  H   H202      1.0  0.08031  0.29771  0.72442  1.0000
  H   H203      1.0  0.20722  0.42282  0.97537  1.0000
  H   H204      1.0  0.16044  0.47406  0.00155  1.0000
  H   H205      1.0  0.03252  0.33289  0.91195  1.0000
  C   C132      1.0  0.20141  0.43794  0.97357  1.0000
  H   H206      1.0  0.14391  0.26307  0.96536  1.0000
  N   N14       1.0  0.15293  0.40350  0.83456  1.0000
  C   C133      1.0  0.14258  0.39167  0.85682  1.0000
  C   C134      1.0  0.16068  0.42031  0.84584  1.0000
  C   C135      1.0  0.13948  0.41021  0.81361  1.0000
  C   C136      1.0  0.16895  0.39185  0.82196  1.0000
  H   H207      1.0  0.13635  0.37898  0.84893  1.0000
  H   H208      1.0  0.13037  0.40004  0.86670  1.0000
  H   H209      1.0  0.15219  0.38627  0.87306  1.0000
  H   H210      1.0  0.16862  0.42952  0.82951  1.0000
  H   H211      1.0  0.14894  0.42944  0.85541  1.0000
  H   H212      1.0  0.17088  0.41579  0.86174  1.0000
  H   H213      1.0  0.14658  0.41972  0.79695  1.0000
  H   H214      1.0  0.12680  0.41840  0.82263  1.0000
  H   H215      1.0  0.13377  0.39792  0.80403  1.0000
  H   H216      1.0  0.17765  0.40064  0.80608  1.0000
  H   H217      1.0  0.16357  0.37962  0.81184  1.0000
  H   H218      1.0  0.17891  0.38579  0.83739  1.0000
  H   H219      1.0  0.22957  0.46104  0.70635  1.0000
  H   H220      1.0  0.22715  0.45284  0.93386  1.0000
  H   H221      1.0  0.19778  0.50051  0.67805  1.0000
  H   H222      1.0  0.33201  0.38040  0.74658  1.0000
  H   H223      1.0  0.12890  0.27504  0.99052  1.0000
  C   C137      1.0  0.30219  0.49384  0.62116  1.0000
  H   H224      1.0  0.08278  0.26276  0.96250  1.0000
  C   C138      1.0  0.24392  0.49557  0.92540  1.0000
  H   H225      1.0  0.13828  0.45348  0.98091  1.0000
  S   S59       1.0  0.12411  0.41614  0.99638  1.0000
  H   H226      1.0  0.06098  0.36452  0.95029  1.0000
  H   H227      1.0  0.06123  0.29183  0.70436  1.0000
  H   H228      1.0  0.22881  0.49731  0.85053  1.0000
  N   N15       1.0  0.22591  0.49014  0.68892  1.0000
  H   H229      1.0  0.01832  0.37466  0.90914  1.0000
  H   H230      1.0  0.31772  0.43339  0.70862  1.0000
  H   H231      1.0  0.23536  0.45851  0.00663  1.0000
  H   H232      1.0  0.05126  0.26707  0.74082  1.0000
  H   H233      1.0  0.14169  0.30789  0.77450  1.0000
  C   C139      1.0  0.05776  0.30979  0.76692  1.0000
  C   C140      1.0  0.02995  0.34423  0.96360  1.0000
  H   H234      1.0  0.12757  0.28451  0.92965  1.0000
  C   C141      1.0  0.22392  0.49838  0.71585  1.0000
  C   C142      1.0  0.11380  0.28275  0.94245  1.0000
  C   C143      1.0  0.20662  0.48686  0.68004  1.0000
  H   H235      1.0  0.18949  0.43915  0.98984  1.0000
  H   H236      1.0  0.21661  0.48837  0.73181  1.0000
  C   C144      1.0  0.33865  0.39056  0.75808  1.0000
  C   C145      1.0  0.05444  0.27694  0.75646  1.0000
  C   C146      1.0  0.23698  0.47163  0.69137  1.0000
  C   C147      1.0  0.01238  0.38959  0.99895  1.0000
  H   H237      1.0  0.04462  0.27369  0.77504  1.0000
  H   H238      1.0  0.16703  0.30897  0.70523  1.0000
  S   S60       1.0  0.12589  0.35867  0.99717  1.0000
  H   H239      1.0  0.03012  0.31690  0.73131  1.0000
  C   C148      1.0  0.30544  0.50990  0.63525  1.0000
  H   H240      1.0  0.25073  0.50645  0.67505  1.0000
  H   H241      1.0  0.14386  0.30899  0.72389  1.0000
  C   C149      1.0  0.14447  0.44845  0.99988  1.0000
  N   N16       1.0  0.21652  0.45172  0.97631  1.0000
  H   H242      1.0  0.32690  0.46924  0.67014  1.0000
  S   S61       1.0  0.30837  0.49269  0.58530  1.0000
  H   H243      1.0  0.02346  0.35300  0.98013  1.0000
  H   H244      1.0  0.26672  0.47574  0.91168  1.0000
  H   H245      1.0  0.15864  0.32951  0.72318  1.0000
  H   H246      1.0  0.04652  0.35261  0.89694  1.0000
  H   H247      1.0  0.10190  0.28418  0.92844  1.0000
  N   N17       1.0  0.11365  0.26407  0.95898  1.0000
  C   C150      1.0  0.33876  0.45976  0.67826  1.0000
  H   H248      1.0  0.19862  0.47670  0.69503  1.0000
  H   H249      1.0  0.31664  0.44489  0.73990  1.0000
  C   C151      1.0  0.23224  0.44932  0.95473  1.0000
  H   H250      1.0  0.05684  0.32524  0.75935  1.0000
  C   C152      1.0  0.31840  0.44759  0.71724  1.0000
  C   C153      1.0  0.22282  0.50788  0.89084  1.0000
  C   C154      1.0  0.09514  0.26248  0.97565  1.0000
  H   H251      1.0  0.11197  0.29507  0.95566  1.0000
  Fe  Fe32      1.0  0.11207  0.38668  0.01025  1.0000
  H   H252      1.0  0.33850  0.44585  0.66872  1.0000
  H   H253      1.0  0.07281  0.30650  0.77247  1.0000
  C   C155      1.0  0.22423  0.44809  0.00358  1.0000
  H   H254      1.0  0.04135  0.39326  0.00988  1.0000
  H   H255      1.0  0.01344  0.40014  0.98157  1.0000
  C   C156      1.0  0.01316  0.35325  0.74374  1.0000
  H   H256      1.0  0.23827  0.50123  0.72293  1.0000
  C   C157      1.0  0.12966  0.26280  0.97723  1.0000
  H   H257      1.0  0.23088  0.43335  0.00639  1.0000
  H   H258      1.0  0.02734  0.29246  0.72466  1.0000
  C   C158      1.0  0.22812  0.50741  0.91804  1.0000
  C   C159      1.0  0.29972  0.51017  0.66349  1.0000
  C   C160      1.0  0.15702  0.46017  0.01159  1.0000
  H   H259      1.0  0.10898  0.26095  0.82595  1.0000
  Fe  Fe33      1.0  0.32098  0.52545  0.48751  1.0000
  S   S62       1.0  0.29925  0.53647  0.45607  1.0000
  H   H260      1.0  0.22772  0.56719  0.22914  1.0000
  C   C161      1.0  0.21462  0.53339  0.21852  1.0000
  H   H261      1.0  0.22082  0.53261  0.19709  1.0000
  H   H262      1.0  0.12584  0.64252  0.06064  1.0000
  Fe  Fe34      1.0  0.28488  0.59850  0.25523  1.0000
  S   S63       1.0  0.29594  0.56797  0.25151  1.0000
  S   S64       1.0  0.30296  0.62513  0.25351  1.0000
  Fe  Fe35      1.0  0.24396  0.58617  0.27275  1.0000
  S   S65       1.0  0.25323  0.55480  0.27215  1.0000
  S   S66       1.0  0.21130  0.59020  0.27729  1.0000
  Fe  Fe36      1.0  0.27956  0.56196  0.29275  1.0000
  S   S67       1.0  0.29726  0.54428  0.32481  1.0000
  Fe  Fe37      1.0  0.26842  0.56362  0.23115  1.0000
  S   S68       1.0  0.26275  0.54356  0.19747  1.0000
  S   S69       1.0  0.26900  0.59258  0.29665  1.0000
  S   S70       1.0  0.25879  0.59479  0.23164  1.0000
  H   H263      1.0  0.25047  0.51504  0.16396  1.0000
  S   S71       1.0  0.08769  0.66291  0.04007  1.0000
  Fe  Fe38      1.0  0.09165  0.69247  0.05344  1.0000
  S   S72       1.0  0.09095  0.70277  0.09552  1.0000
  S   S73       1.0  0.11916  0.69713  0.02773  1.0000
  Fe  Fe39      1.0  0.08187  0.67120  0.27489  1.0000
  S   S74       1.0  0.08438  0.68177  0.23060  1.0000
  S   S75       1.0  0.05242  0.67218  0.29800  1.0000
  Fe  Fe40      1.0  0.12601  0.66565  0.27707  1.0000
  S   S76       1.0  0.13115  0.67603  0.23290  1.0000
  S   S77       1.0  0.15313  0.66106  0.30021  1.0000
  Fe  Fe41      1.0  0.10851  0.69903  0.24167  1.0000
  S   S78       1.0  0.11227  0.72960  0.22347  1.0000
  Fe  Fe42      1.0  0.10657  0.65768  0.22663  1.0000
  S   S79       1.0  0.10640  0.63981  0.19066  1.0000
  S   S80       1.0  0.10487  0.69008  0.28644  1.0000
  S   S81       1.0  0.10260  0.64561  0.27037  1.0000
  C   C162      1.0  0.03144  0.67188  0.27975  1.0000
  C   C163      1.0  0.03246  0.66738  0.25240  1.0000
  H   H264      1.0  0.22696  0.53223  0.23181  1.0000
  H   H265      1.0  0.04626  0.66384  0.24206  1.0000
  H   H266      1.0  0.20581  0.52057  0.22387  1.0000
  H   H267      1.0  0.17871  0.56654  0.20486  1.0000
  C   C164      1.0  0.10248  0.74514  0.27297  1.0000
  H   H268      1.0  0.19358  0.55300  0.18109  1.0000
  H   H269      1.0  0.17792  0.71620  0.32610  1.0000
  H   H270      1.0  0.09826  0.73095  0.28085  1.0000
  H   H271      1.0  0.12094  0.66208  0.08184  1.0000
  C   C165      1.0  0.09622  0.68444  0.12037  1.0000
  C   C166      1.0  0.10720  0.68858  0.14161  1.0000
  C   C167      1.0  0.11023  0.67476  0.16310  1.0000
  C   C168      1.0  0.10279  0.65654  0.16306  1.0000
  C   C169      1.0  0.09243  0.65204  0.14127  1.0000
  C   C170      1.0  0.08895  0.66612  0.11996  1.0000
  H   H272      1.0  0.11327  0.70253  0.14171  1.0000
  H   H273      1.0  0.11848  0.67821  0.17961  1.0000
  H   H274      1.0  0.08653  0.63795  0.14140  1.0000
  H   H275      1.0  0.08026  0.66298  0.10366  1.0000
  C   C171      1.0  0.19628  0.61112  0.28142  1.0000
  C   C172      1.0  0.20205  0.62684  0.29432  1.0000
  C   C173      1.0  0.18879  0.64220  0.29973  1.0000
  C   C174      1.0  0.16984  0.64217  0.29170  1.0000
  C   C175      1.0  0.16432  0.62678  0.27794  1.0000
  C   C176      1.0  0.17739  0.61123  0.27319  1.0000
  H   H276      1.0  0.21647  0.62682  0.30105  1.0000
  H   H277      1.0  0.19317  0.65399  0.31051  1.0000
  H   H278      1.0  0.14976  0.62654  0.27179  1.0000
  H   H279      1.0  0.17269  0.59912  0.26343  1.0000
  Fe  Fe43      1.0  0.21410  0.53185  0.04870  1.0000
  C   C177      1.0  0.24370  0.56402  0.12260  1.0000
  C   C178      1.0  0.25081  0.56330  0.14896  1.0000
  C   C179      1.0  0.25345  0.54564  0.16413  1.0000
  H   H280      1.0  0.15211  0.69758  0.27136  1.0000
  H   H281      1.0  0.24224  0.57775  0.11089  1.0000
  H   H282      1.0  0.25468  0.57638  0.15722  1.0000
  C   C180      1.0  0.21569  0.56801  0.21548  1.0000
  H   H283      1.0  0.13521  0.63991  0.13419  1.0000
  H   H284      1.0  0.03754  0.66958  0.05050  1.0000
  C   C181      1.0  0.29961  0.53971  0.41946  1.0000
  C   C182      1.0  0.28329  0.54813  0.40722  1.0000
  C   C183      1.0  0.28249  0.55018  0.37841  1.0000
  C   C184      1.0  0.29785  0.54338  0.36132  1.0000
  C   C185      1.0  0.31425  0.53505  0.37354  1.0000
  C   C186      1.0  0.31527  0.53356  0.40232  1.0000
  C   C187      1.0  0.12613  0.64676  0.08192  1.0000
  H   H285      1.0  0.26974  0.55656  0.36952  1.0000
  N   N18       1.0  0.20314  0.55149  0.22179  1.0000
  H   H286      1.0  0.34349  0.71072  0.19332  1.0000
  C   C188      1.0  0.32827  0.62577  0.24705  1.0000
  H   H287      1.0  0.22227  0.56846  0.19409  1.0000
  Fe  Fe44      1.0  0.17508  0.53958  0.02424  1.0000
  H   H288      1.0  0.11554  0.63796  0.09493  1.0000
  H   H289      1.0  0.18642  0.71581  0.29057  1.0000
  S   S82       1.0  0.07284  0.70794  0.02329  1.0000
  H   H290      1.0  0.06436  0.73279  0.12277  1.0000
  H   H291      1.0  0.17576  0.58615  0.01544  1.0000
  H   H292      1.0  0.32808  0.52753  0.41131  1.0000
  H   H293      1.0  0.17375  0.65527  0.08165  1.0000
  H   H294      1.0  0.09823  0.73238  0.13142  1.0000
  H   H295      1.0  0.01238  0.67944  0.31420  1.0000
  H   H296      1.0  0.15872  0.74677  0.31572  1.0000
  C   C189      1.0  0.33834  0.61443  0.22807  1.0000
  H   H297      1.0  0.16286  0.71858  0.25446  1.0000
  S   S83       1.0  0.23061  0.54911  0.07700  1.0000
  H   H298      1.0  0.11118  0.61951  0.01773  1.0000
  N   N19       1.0  0.07500  0.73896  0.16095  1.0000
  H   H299      1.0  0.14291  0.71809  0.33910  1.0000
  H   H300      1.0  0.17443  0.69555  0.30775  1.0000
  H   H301      1.0  0.10567  0.73799  0.16405  1.0000
  H   H302      1.0  0.13996  0.66433  0.12235  1.0000
  H   H303      1.0  0.16775  0.74656  0.28042  1.0000
  H   H304      1.0  0.32627  0.52978  0.36063  1.0000
  H   H305      1.0  0.15997  0.65289  0.05279  1.0000
  C   C190      1.0  0.01554  0.66694  0.23855  1.0000
  H   H306      1.0  0.11414  0.58387  0.02524  1.0000
  H   H307      1.0  0.15958  0.64739  0.12869  1.0000
  C   C191      1.0  0.02367  0.67121  0.04190  1.0000
  C   C192      1.0  0.24089  0.52960  0.12655  1.0000
  H   H308      1.0  0.01651  0.66320  0.21753  1.0000
  H   H309      1.0  0.17784  0.54075  0.20688  1.0000
  H   H310      1.0  0.33676  0.71898  0.22661  1.0000
  C   C193      1.0  0.19471  0.55160  0.25032  1.0000
  H   H311      1.0  0.20614  0.55067  0.26511  1.0000
  H   H312      1.0  0.18516  0.53936  0.25590  1.0000
  H   H313      1.0  0.18606  0.56513  0.25366  1.0000
  N   N20       1.0  0.15576  0.72004  0.29774  1.0000
  C   C194      1.0  0.15195  0.71353  0.27085  1.0000
  H   H314      1.0  0.09567  0.75765  0.31150  1.0000
  C   C195      1.0  0.14036  0.71371  0.31844  1.0000
  C   C196      1.0  0.15620  0.74127  0.29570  1.0000
  H   H315      1.0  0.33076  0.64731  0.27547  1.0000
  H   H316      1.0  0.33081  0.69530  0.21900  1.0000
  H   H317      1.0  0.14233  0.74800  0.28911  1.0000
  C   C197      1.0  0.12700  0.59209  0.02145  1.0000
  C   C198      1.0  0.16167  0.59329  0.01571  1.0000
  C   C199      1.0  0.10933  0.74843  0.24553  1.0000
  H   H318      1.0  0.32368  0.59048  0.27611  1.0000
  H   H319      1.0  0.13941  0.69775  0.32017  1.0000
  C   C200      1.0  0.09483  0.74164  0.14869  1.0000
  H   H320      1.0  0.23735  0.51649  0.11807  1.0000
  C   C201      1.0  0.17449  0.71159  0.30592  1.0000
  H   H321      1.0  0.32883  0.57018  0.34674  1.0000
  H   H322      1.0  0.20767  0.58195  0.21842  1.0000
  C   C202      1.0  0.18759  0.55299  0.20280  1.0000
  H   H323      1.0  0.32021  0.60454  0.30518  1.0000
  H   H324      1.0  0.08444  0.71506  0.18776  1.0000
  H   H325      1.0  0.15400  0.67199  0.07453  1.0000
  H   H326      1.0  0.13761  0.71895  0.26456  1.0000
  S   S84       1.0  0.18406  0.52308  0.06260  1.0000
  H   H327      1.0  0.05895  0.71682  0.18453  1.0000
  H   H328      1.0  0.33483  0.55241  0.30505  1.0000
  H   H329      1.0  0.10887  0.74384  0.03053  1.0000
  H   H330      1.0  0.31133  0.58077  0.30702  1.0000
  C   C203      1.0  0.34210  0.70622  0.21563  1.0000
  H   H331      1.0  0.27108  0.55302  0.42016  1.0000
  C   C204      1.0  0.24842  0.52883  0.15264  1.0000
  H   H332      1.0  0.12603  0.71994  0.31308  1.0000
  C   C205      1.0  0.23868  0.54722  0.11108  1.0000
  H   H333      1.0  0.33064  0.60462  0.21729  1.0000
  N   N21       1.0  0.14563  0.64404  0.09180  1.0000
  C   C206      1.0  0.15226  0.62372  0.09026  1.0000
  C   C207      1.0  0.15896  0.65659  0.07449  1.0000
  C   C208      1.0  0.14511  0.64914  0.12049  1.0000
  H   H334      1.0  0.16699  0.62114  0.09741  1.0000
  H   H335      1.0  0.15267  0.61941  0.06887  1.0000
  H   H336      1.0  0.14246  0.61391  0.10310  1.0000
  H   H337      1.0  0.13555  0.52426  0.08024  1.0000
  C   C209      1.0  0.02265  0.67257  0.01349  1.0000
  C   C210      1.0  0.32354  0.58974  0.29879  1.0000
  C   C211      1.0  0.34066  0.57975  0.33860  1.0000
  C   C212      1.0  0.33845  0.63857  0.26066  1.0000
  C   C213      1.0  0.10914  0.75799  0.01976  1.0000
  H   H338      1.0  0.13553  0.51690  0.03220  1.0000
  N   N22       1.0  0.34203  0.58172  0.30834  1.0000
  S   S85       1.0  0.14665  0.55695  0.02496  1.0000
  H   H339      1.0  0.07472  0.70851  0.15717  1.0000
  H   H340      1.0  0.10450  0.52155  0.05869  1.0000
  H   H341      1.0  0.33749  0.59390  0.34723  1.0000
  C   C214      1.0  0.12527  0.61230  0.01720  1.0000
  C   C215      1.0  0.14518  0.58247  0.02058  1.0000
  C   C216      1.0  0.07320  0.71899  0.17314  1.0000
  C   C217      1.0  0.01332  0.67602  0.29302  1.0000
  H   H342      1.0  0.09693  0.75676  0.14037  1.0000
  C   C218      1.0  0.06130  0.74274  0.13942  1.0000
  C   C219      1.0  0.10088  0.76032  0.29027  1.0000
  H   H343      1.0  0.08080  0.74981  0.19907  1.0000
  H   H344      1.0  0.04621  0.74062  0.14783  1.0000
  C   C220      1.0  0.07070  0.75245  0.18252  1.0000
  H   H345      1.0  0.05587  0.75085  0.19227  1.0000
  H   H346      1.0  0.06225  0.75766  0.12975  1.0000
  H   H347      1.0  0.19742  0.55651  0.90884  1.0000
  H   H348      1.0  0.16885  0.59979  0.95586  1.0000
  H   H349      1.0  0.17016  0.56566  0.97459  1.0000
  H   H350      1.0  0.30210  0.52282  0.67396  1.0000
  H   H351      1.0  0.19970  0.58431  0.96976  1.0000
  C   C221      1.0  0.17247  0.59475  0.93505  1.0000
  H   H352      1.0  0.15860  0.59308  0.92582  1.0000
  C   C222      1.0  0.17333  0.56159  0.95325  1.0000
  H   H353      1.0  0.31211  0.52223  0.62428  1.0000
  C   C223      1.0  0.10753  0.75998  0.99145  1.0000
  S   S86       1.0  0.09724  0.68299  0.97720  1.0000
  C   C224      1.0  0.18851  0.57021  0.90843  1.0000
  N   N23       1.0  0.18417  0.57652  0.93634  1.0000
  H   H354      1.0  0.15930  0.55922  0.94492  1.0000
  S   S87       1.0  0.10506  0.73977  0.97271  1.0000
  S   S88       1.0  0.32364  0.53907  0.52749  1.0000
  H   H355      1.0  0.18023  0.60643  0.92264  1.0000
  H   H356      1.0  0.18159  0.54757  0.95431  1.0000
  H   H357      1.0  0.17511  0.56767  0.89853  1.0000
  C   C225      1.0  0.20240  0.57947  0.94869  1.0000
  H   H358      1.0  0.21151  0.56592  0.95014  1.0000
  H   H359      1.0  0.21104  0.59053  0.93636  1.0000
  H   H360      1.0  0.19669  0.58113  0.89504  1.0000
  Fe  Fe45      1.0  0.10008  0.71091  0.99642  1.0000
  S   S89       1.0  0.17848  0.51383  0.99940  1.0000
  H   H361      1.0  0.21077  0.51710  0.88467  1.0000
  S   S90       1.0  0.04356  0.67009  0.99141  1.0000
  Fe  Fe46      1.0  0.07125  0.67902  0.00701  1.0000
  Fe  Fe47      1.0  0.20897  0.52232  0.98824  1.0000
  H   H362      1.0  0.22819  0.51765  0.66597  1.0000
  S   S91       1.0  0.21519  0.52272  0.94138  1.0000
  C   C226      1.0  0.14174  0.62307  0.01167  1.0000
  H   H363      1.0  0.21540  0.51224  0.71500  1.0000
  H   H364      1.0  0.17276  0.62170  0.00705  1.0000
  S   S92       1.0  0.14049  0.64847  0.00559  1.0000
  Fe  Fe48      1.0  0.11393  0.66869  0.01136  1.0000
  S   S93       1.0  0.20461  0.54946  0.01077  1.0000
  C   C227      1.0  0.15993  0.61346  0.01105  1.0000
  C   C228      1.0  0.12447  0.95467  0.02147  1.0000
  H   H365      1.0  0.11190  0.96298  0.02876  1.0000
  C   C229      1.0  0.11156  0.77426  0.03410  1.0000
  Fe  Fe49      1.0  0.24678  0.96760  0.24510  1.0000
  S   S94       1.0  0.25499  0.93705  0.23632  1.0000
  S   S95       1.0  0.23058  0.98784  0.21399  1.0000
  Fe  Fe50      1.0  0.25852  0.96094  0.30609  1.0000
  S   S96       1.0  0.26654  0.92992  0.29976  1.0000
  S   S97       1.0  0.26167  0.96564  0.35182  1.0000
  Fe  Fe51      1.0  0.28108  0.94063  0.25977  1.0000
  S   S98       1.0  0.31215  0.93198  0.24662  1.0000
  Fe  Fe52      1.0  0.23962  0.92921  0.27744  1.0000
  S   S99       1.0  0.22156  0.90272  0.28685  1.0000
  S   S100      1.0  0.27411  0.97194  0.26617  1.0000
  S   S101      1.0  0.23039  0.95941  0.28601  1.0000
  H   H366      1.0  0.20042  0.00746  0.12749  1.0000
  C   C230      1.0  0.22900  0.99555  0.11894  1.0000
  S   S102      1.0  0.07109  0.84832  0.04083  1.0000
  Fe  Fe53      1.0  0.08111  0.87468  0.05739  1.0000
  S   S103      1.0  0.07042  0.88319  0.09895  1.0000
  Fe  Fe54      1.0  0.10488  0.82748  0.28017  1.0000
  S   S104      1.0  0.09013  0.85341  0.29851  1.0000
  S   S105      1.0  0.10365  0.79779  0.30212  1.0000
  Fe  Fe55      1.0  0.11473  0.84945  0.22579  1.0000
  S   S106      1.0  0.10034  0.87665  0.23928  1.0000
  S   S107      1.0  0.12826  0.84696  0.18332  1.0000
  Fe  Fe56      1.0  0.11557  0.86944  0.27770  1.0000
  S   S108      1.0  0.13056  0.89516  0.29092  1.0000
  Fe  Fe57      1.0  0.07650  0.85826  0.25829  1.0000
  S   S109      1.0  0.04565  0.86263  0.24621  1.0000
  S   S110      1.0  0.13129  0.84295  0.26299  1.0000
  S   S111      1.0  0.08996  0.83158  0.24139  1.0000
  C   C231      1.0  0.10584  0.77894  0.28012  1.0000
  H   H367      1.0  0.19588  0.83824  0.03019  1.0000
  C   C232      1.0  0.15925  0.83424  0.05035  1.0000
  H   H368      1.0  0.11653  0.79652  0.24463  1.0000
  C   C233      1.0  0.02441  0.86007  0.26808  1.0000
  H   H369      1.0  0.20164  0.00310  0.17823  1.0000
  H   H370      1.0  0.21865  0.95895  0.35025  1.0000
  H   H371      1.0  0.06426  0.78297  0.32024  1.0000
  H   H372      1.0  0.04698  0.82005  0.34414  1.0000
  C   C234      1.0  0.08655  0.87307  0.12220  1.0000
  C   C235      1.0  0.09737  0.85623  0.11682  1.0000
  C   C236      1.0  0.11047  0.84837  0.13539  1.0000
  C   C237      1.0  0.11229  0.85702  0.15972  1.0000
  C   C238      1.0  0.10125  0.87368  0.16520  1.0000
  C   C239      1.0  0.08849  0.88177  0.14642  1.0000
  H   H373      1.0  0.09543  0.84905  0.09860  1.0000
  H   H374      1.0  0.11884  0.83538  0.13118  1.0000
  H   H375      1.0  0.10287  0.88072  0.18349  1.0000
  H   H376      1.0  0.08043  0.89494  0.15050  1.0000
  H   H377      1.0  0.30033  0.94243  0.34049  1.0000
  C   C240      1.0  0.27369  0.97945  0.37438  1.0000
  S   S112      1.0  0.22981  0.00040  0.08232  1.0000
  H   H378      1.0  0.22459  0.90588  0.34869  1.0000
  H   H379      1.0  0.12892  0.90102  0.20096  1.0000
  N   N24       1.0  0.02649  0.87879  0.16246  1.0000
  H   H380      1.0  0.04980  0.83457  0.31234  1.0000
  C   C241      1.0  0.32612  0.91308  0.26285  1.0000
  H   H381      1.0  0.14018  0.88711  0.17456  1.0000
  C   C242      1.0  0.31891  0.90215  0.28621  1.0000
  H   H382      1.0  0.25830  0.97678  0.16864  1.0000
  H   H383      1.0  0.30415  0.90448  0.29406  1.0000
  C   C243      1.0  0.19629  0.90112  0.28618  1.0000
  C   C244      1.0  0.18389  0.91743  0.28464  1.0000
  C   C245      1.0  0.16378  0.91539  0.28655  1.0000
  C   C246      1.0  0.15592  0.89707  0.28877  1.0000
  C   C247      1.0  0.16836  0.88079  0.28952  1.0000
  C   C248      1.0  0.18841  0.88283  0.28855  1.0000
  H   H384      1.0  0.18975  0.93160  0.28236  1.0000
  H   H385      1.0  0.15426  0.92807  0.28594  1.0000
  H   H386      1.0  0.16251  0.86661  0.29152  1.0000
  H   H387      1.0  0.19789  0.87013  0.28984  1.0000
  C   C249      1.0  0.06009  0.79280  0.01663  1.0000
  C   C250      1.0  0.24517  0.98666  0.13105  1.0000
  C   C251      1.0  0.24564  0.98348  0.15988  1.0000
  C   C252      1.0  0.23006  0.98956  0.17728  1.0000
  C   C253      1.0  0.11187  0.79270  0.02042  1.0000
  H   H388      1.0  0.17750  0.86786  0.04284  1.0000
  H   H389      1.0  0.14216  0.91276  0.17198  1.0000
  H   H390      1.0  0.06845  0.81743  0.32194  1.0000
  C   C254      1.0  0.29136  0.00725  0.38444  1.0000
  C   C255      1.0  0.05255  0.81994  0.32231  1.0000
  H   H391      1.0  0.11956  0.76974  0.21422  1.0000
  H   H392      1.0  0.16918  0.83585  0.06663  1.0000
  N   N25       1.0  0.15966  0.89740  0.20146  1.0000
  C   C256      1.0  0.15860  0.87999  0.22063  1.0000
  C   C257      1.0  0.17659  0.89546  0.18169  1.0000
  C   C258      1.0  0.16149  0.91441  0.21701  1.0000
  C   C259      1.0  0.14196  0.89971  0.18657  1.0000
  H   H393      1.0  0.15685  0.86687  0.20972  1.0000
  H   H394      1.0  0.14615  0.88113  0.23610  1.0000
  H   H395      1.0  0.17183  0.87764  0.23200  1.0000
  H   H396      1.0  0.17564  0.88267  0.16974  1.0000
  H   H397      1.0  0.17782  0.90835  0.16687  1.0000
  H   H398      1.0  0.19020  0.89373  0.19233  1.0000
  H   H399      1.0  0.16225  0.92788  0.20328  1.0000
  H   H400      1.0  0.17475  0.91312  0.22844  1.0000
  H   H401      1.0  0.14899  0.91615  0.23231  1.0000
  H   H402      1.0  0.04669  0.89848  0.14207  1.0000
  S   S113      1.0  0.11223  0.86692  0.04870  1.0000
  C   C260      1.0  0.29121  0.00100  0.41255  1.0000
  H   H403      1.0  0.11320  0.77252  0.05591  1.0000
  H   H404      1.0  0.03675  0.87739  0.03033  1.0000
  H   H405      1.0  0.04778  0.82070  0.26873  1.0000
  H   H406      1.0  0.22661  0.95116  0.38322  1.0000
  C   C261      1.0  0.21384  0.99840  0.16515  1.0000
  H   H407      1.0  0.02335  0.80678  0.01910  1.0000
  H   H408      1.0  0.05028  0.78449  0.03162  1.0000
  H   H409      1.0  0.25754  0.98226  0.11802  1.0000
  C   C262      1.0  0.20505  0.92001  0.39224  1.0000
  H   H410      1.0  0.04406  0.79546  0.26767  1.0000
  H   H411      1.0  0.30640  0.93905  0.30491  1.0000
  H   H412      1.0  0.21720  0.91956  0.40579  1.0000
  S   S114      1.0  0.14378  0.98761  0.02536  1.0000
  C   C263      1.0  0.11244  0.78227  0.25261  1.0000
  C   C264      1.0  0.30692  0.94932  0.32096  1.0000
  H   H413      1.0  0.26676  0.95993  0.40973  1.0000
  N   N26       1.0  0.04349  0.80515  0.30822  1.0000
  C   C265      1.0  0.27371  0.97309  0.40241  1.0000
  S   S115      1.0  0.11572  0.81264  0.03902  1.0000
  Fe  Fe58      1.0  0.10207  0.84202  0.02825  1.0000
  C   C266      1.0  0.02236  0.80860  0.31015  1.0000
  C   C267      1.0  0.28247  0.98366  0.42127  1.0000
  H   H414      1.0  0.04885  0.86584  0.18664  1.0000
  H   H415      1.0  0.23068  0.92840  0.33133  1.0000
  S   S116      1.0  0.07883  0.89401  0.01891  1.0000
  H   H416      1.0  0.05224  0.86243  0.15078  1.0000
  C   C268      1.0  0.03563  0.89761  0.15965  1.0000
  H   H417      1.0  0.06665  0.80330  0.27698  1.0000
  H   H418      1.0  0.03464  0.84905  0.17200  1.0000
  C   C269      1.0  0.14254  0.96305  0.01870  1.0000
  C   C270      1.0  0.33088  0.88819  0.29961  1.0000
  H   H419      1.0  0.28276  0.00190  0.34422  1.0000
  N   N27       1.0  0.21005  0.93063  0.36558  1.0000
  H   H420      1.0  0.03630  0.86819  0.30450  1.0000
  H   H421      1.0  0.24005  0.92156  0.36378  1.0000
  C   C271      1.0  0.02355  0.87289  0.02301  1.0000
  H   H422      1.0  0.04289  0.90016  0.17840  1.0000
  N   N28       1.0  0.16598  0.84445  0.02402  1.0000
  H   H423      1.0  0.32016  0.96294  0.36475  1.0000
  H   H424      1.0  0.20160  0.90488  0.38955  1.0000
  H   H425      1.0  0.28212  0.97855  0.44269  1.0000
  C   C272      1.0  0.16713  0.86520  0.02757  1.0000
  C   C273      1.0  0.05079  0.80619  0.27910  1.0000
  H   H426      1.0  0.15293  0.87162  0.03476  1.0000
  H   H427      1.0  0.19697  0.93893  0.32801  1.0000
  H   H428      1.0  0.32522  0.87998  0.31784  1.0000
  C   C274      1.0  0.33867  0.93749  0.33190  1.0000
  C   C275      1.0  0.18520  0.83653  0.01491  1.0000
  H   H429      1.0  0.18039  0.93736  0.35785  1.0000
  H   H430      1.0  0.33917  0.92673  0.31625  1.0000
  H   H431      1.0  0.31822  0.98219  0.33863  1.0000
  C   C276      1.0  0.02358  0.86376  0.29575  1.0000
  C   C277      1.0  0.11420  0.76706  0.23540  1.0000
  H   H432      1.0  0.02491  0.90965  0.15596  1.0000
  H   H433      1.0  0.15790  0.81859  0.04828  1.0000
  H   H434      1.0  0.20176  0.95842  0.37981  1.0000
  H   H435      1.0  0.19229  0.92684  0.40320  1.0000
  H   H436      1.0  0.19045  0.91583  0.34359  1.0000
  C   C278      1.0  0.22711  0.92116  0.35191  1.0000
  H   H437      1.0  0.33276  0.93030  0.35162  1.0000
  S   S117      1.0  0.34084  0.00493  0.48596  1.0000
  H   H438      1.0  0.01822  0.82283  0.29993  1.0000
  H   H439      1.0  0.02891  0.87579  0.11904  1.0000
  C   C279      1.0  0.19371  0.93070  0.34807  1.0000
  C   C280      1.0  0.21439  0.95065  0.36996  1.0000
  H   H440      1.0  0.06724  0.80339  0.02790  1.0000
  H   H441      1.0  0.01637  0.80848  0.33184  1.0000
  H   H442      1.0  0.29752  0.96207  0.31515  1.0000
  H   H443      1.0  0.04309  0.78461  0.34331  1.0000
  C   C281      1.0  0.12243  0.93564  0.01486  1.0000
  H   H444      1.0  0.07210  0.76766  0.17418  1.0000
  H   H445      1.0  0.04195  0.77433  0.31106  1.0000
  H   H446      1.0  0.32596  0.97624  0.28966  1.0000
  N   N29       1.0  0.32684  0.95479  0.32363  1.0000
  C   C282      1.0  0.21316  0.00106  0.13630  1.0000
  H   H447      1.0  0.34160  0.97306  0.34772  1.0000
  H   H448      1.0  0.03944  0.82638  0.01665  1.0000
  C   C283      1.0  0.33486  0.96347  0.29695  1.0000
  H   H449      1.0  0.14474  0.83980  0.05783  1.0000
  C   C284      1.0  0.01140  0.87859  0.18531  1.0000
  H   H450      1.0  0.33523  0.95307  0.28078  1.0000
  Fe  Fe59      1.0  0.16993  0.00578  0.02783  1.0000
  C   C285      1.0  0.04837  0.78591  0.32130  1.0000
  C   C286      1.0  0.28278  0.99658  0.36552  1.0000
  C   C287      1.0  0.32677  0.96886  0.34460  1.0000
  C   C288      1.0  0.01782  0.87564  0.13669  1.0000
  H   H451      1.0  0.01499  0.79751  0.30018  1.0000
  H   H452      1.0  0.10839  0.92945  0.01711  1.0000
  C   C289      1.0  0.04117  0.86334  0.16823  1.0000
  S   S118      1.0  0.20080  0.99915  0.01389  1.0000
  H   H453      1.0  0.01761  0.88076  0.20506  1.0000
  C   C290      1.0  0.06302  0.81409  0.97536  1.0000
  H   H454      1.0  0.07478  0.80500  0.96582  1.0000
  C   C291      1.0  0.03384  0.81501  0.00507  1.0000
  H   H455      1.0  0.03135  0.77862  0.99179  1.0000
  H   H456      1.0  0.13962  0.97927  0.96423  1.0000
  H   H457      1.0  0.06977  0.82501  0.98648  1.0000
  C   C292      1.0  0.28477  0.99142  0.78658  1.0000
  H   H458      1.0  0.15227  0.96761  0.93663  1.0000
  H   H459      1.0  0.27577  0.98729  0.80570  1.0000
  S   S119      1.0  0.29920  0.99940  0.52219  1.0000
  H   H460      1.0  0.27828  0.98532  0.76929  1.0000
  S   S120      1.0  0.10153  0.85848  0.98717  1.0000
  H   H461      1.0  0.16901  0.92496  0.99427  1.0000
  C   C293      1.0  0.17626  0.99046  0.95733  1.0000
  H   H462      1.0  0.17106  0.98852  0.97928  1.0000
  H   H463      1.0  0.15635  0.00477  0.89772  1.0000
  H   H464      1.0  0.18315  0.97655  0.95154  1.0000
  H   H465      1.0  0.10686  0.78004  0.95578  1.0000
  H   H466      1.0  0.03364  0.79443  0.96107  1.0000
  H   H467      1.0  0.11048  0.80890  0.98137  1.0000
  C   C294      1.0  0.16796  0.99993  0.91134  1.0000
  N   N30       1.0  0.04963  0.80240  0.99390  1.0000
  C   C295      1.0  0.04157  0.78769  0.97846  1.0000
  H   H468      1.0  0.17502  0.98658  0.90370  1.0000
  S   S121      1.0  0.34204  0.96273  0.54575  1.0000
  S   S122      1.0  0.04552  0.86309  0.97701  1.0000
  Fe  Fe60      1.0  0.33074  0.99171  0.52730  1.0000
  H   H469      1.0  0.18477  0.82090  0.01194  1.0000
  H   H470      1.0  0.13367  0.98571  0.92971  1.0000
  C   C296      1.0  0.10995  0.79479  0.99218  1.0000
  C   C297      1.0  0.14584  0.98167  0.94267  1.0000
  S   S123      1.0  0.13616  0.90125  0.99456  1.0000
  Fe  Fe61      1.0  0.07100  0.86680  0.00139  1.0000
  H   H471      1.0  0.05314  0.77787  0.96983  1.0000
  N   N31       1.0  0.16029  0.99670  0.94016  1.0000
  C   C298      1.0  0.10796  0.77844  0.97772  1.0000
  H   H472      1.0  0.18763  0.00127  0.95555  1.0000
  H   H473      1.0  0.15676  0.84944  0.98306  1.0000
  H   H474      1.0  0.02574  0.82254  0.98840  1.0000
  H   H475      1.0  0.29930  0.98436  0.78848  1.0000
  C   C299      1.0  0.02371  0.86573  0.99721  1.0000
  H   H476      1.0  0.05543  0.82213  0.95855  1.0000
  C   C300      1.0  0.13842  0.92485  0.00478  1.0000
  H   H477      1.0  0.17272  0.95822  0.00728  1.0000
  C   C301      1.0  0.15654  0.93320  0.00196  1.0000
  H   H478      1.0  0.07150  0.78248  0.00899  1.0000
  Fe  Fe62      1.0  0.10959  0.88418  0.00866  1.0000
  C   C302      1.0  0.15234  0.84178  0.00316  1.0000
  H   H479      1.0  0.15092  0.82628  0.00007  1.0000
  H   H480      1.0  0.19068  0.84393  0.99509  1.0000
  C   C303      1.0  0.15866  0.95212  0.00920  1.0000
  H   H481      1.0  0.17159  0.87347  0.00792  1.0000
  H   H482      1.0  0.13774  0.84751  0.00951  1.0000
  C   C304      1.0  0.37331  0.11528  0.49116  1.0000
  H   H483      1.0  0.49687  0.22503  0.48909  1.0000
  H   H484      1.0  0.45034  0.22330  0.45588  1.0000
  Fe  Fe63      1.0  0.59418  0.20845  0.49733  1.0000
  S   S124      1.0  0.59079  0.23406  0.46628  1.0000
  H   H485      1.0  0.37732  0.06258  0.40216  1.0000
  S   S125      1.0  0.62236  0.19275  0.50465  1.0000
  S   S126      1.0  0.57922  0.18094  0.49288  1.0000
  C   C305      1.0  0.50947  0.16913  0.49745  1.0000
  H   H486      1.0  0.66895  0.18992  0.50824  1.0000
  C   C306      1.0  0.48501  0.21968  0.47816  1.0000
  C   C307      1.0  0.36565  0.06689  0.41745  1.0000
  H   H487      1.0  0.36664  0.02881  0.41094  1.0000
  C   C308      1.0  0.35546  0.03423  0.42609  1.0000
  C   C309      1.0  0.65485  0.09143  0.49223  1.0000
  S   S127      1.0  0.37455  0.14063  0.48813  1.0000
  H   H488      1.0  0.36176  0.03299  0.44637  1.0000
  S   S128      1.0  0.36983  0.04949  0.49688  1.0000
  H   H489      1.0  0.64082  0.10782  0.45964  1.0000
  C   C310      1.0  0.35388  0.08675  0.49457  1.0000
  S   S129      1.0  0.41775  0.17916  0.48873  1.0000
  C   C311      1.0  0.37052  0.07484  0.49605  1.0000
  H   H490      1.0  0.48624  0.22612  0.45665  1.0000
  H   H491      1.0  0.51147  0.16938  0.47535  1.0000
  H   H492      1.0  0.40145  0.07416  0.49621  1.0000
  S   S130      1.0  0.47176  0.16285  0.49053  1.0000
  C   C312      1.0  0.45081  0.21637  0.47704  1.0000
  H   H493      1.0  0.62475  0.04458  0.48654  1.0000
  H   H494      1.0  0.40382  0.10961  0.49252  1.0000
  C   C313      1.0  0.38987  0.10336  0.49322  1.0000
  Fe  Fe64      1.0  0.60664  0.16521  0.50507  1.0000
  H   H495      1.0  0.66271  0.08185  0.47871  1.0000
  H   H496      1.0  0.63779  0.02654  0.50660  1.0000
  N   N32       1.0  0.46593  0.22425  0.49192  1.0000
  C   C314      1.0  0.38849  0.08325  0.49528  1.0000
  C   C315      1.0  0.63296  0.11949  0.49846  1.0000
  C   C316      1.0  0.64248  0.10622  0.48146  1.0000
  C   C317      1.0  0.35534  0.10688  0.49144  1.0000
  H   H497      1.0  0.48759  0.20384  0.47743  1.0000
  H   H498      1.0  0.40334  0.23463  0.48629  1.0000
  S   S131      1.0  0.61991  0.13949  0.48337  1.0000
  H   H499      1.0  0.47397  0.25178  0.50318  1.0000
  C   C318      1.0  0.40682  0.24684  0.49695  1.0000
  H   H500      1.0  0.45331  0.20062  0.47535  1.0000
  H   H501      1.0  0.43633  0.21855  0.48776  1.0000
  Fe  Fe65      1.0  0.39922  0.15448  0.50577  1.0000
  C   C319      1.0  0.46281  0.24532  0.49217  1.0000
  C   C320      1.0  0.59864  0.25779  0.46739  1.0000
  H   H502      1.0  0.37197  0.06624  0.43773  1.0000
  H   H503      1.0  0.53911  0.17466  0.50218  1.0000
  H   H504      1.0  0.46306  0.25244  0.47103  1.0000
  H   H505      1.0  0.64403  0.05128  0.50570  1.0000
  H   H506      1.0  0.36134  0.08220  0.41215  1.0000
  H   H507      1.0  0.66116  0.17374  0.48506  1.0000
  H   H508      1.0  0.44856  0.24915  0.50258  1.0000
  C   C321      1.0  0.63172  0.04158  0.50614  1.0000
  N   N33       1.0  0.34909  0.05428  0.41838  1.0000
  H   H509      1.0  0.35195  0.05063  0.37520  1.0000
  Fe  Fe66      1.0  0.44140  0.16244  0.51024  1.0000
  C   C322      1.0  0.67262  0.17602  0.49900  1.0000
  H   H510      1.0  0.66708  0.13904  0.49306  1.0000
  H   H511      1.0  0.60155  0.06687  0.50888  1.0000
  H   H512      1.0  0.60202  0.25690  0.51077  1.0000
  C   C323      1.0  0.49124  0.16577  0.51063  1.0000
  H   H513      1.0  0.59478  0.03188  0.51196  1.0000
  S   S132      1.0  0.59769  0.16371  0.54998  1.0000
  S   S133      1.0  0.58449  0.20968  0.54166  1.0000
  Fe  Fe67      1.0  0.61160  0.19214  0.54879  1.0000
  S   S134      1.0  0.63128  0.20017  0.57962  1.0000
  H   H514      1.0  0.45341  0.12543  0.67072  1.0000
  Fe  Fe68      1.0  0.41502  0.15277  0.56089  1.0000
  S   S135      1.0  0.40971  0.13922  0.60341  1.0000
  Fe  Fe69      1.0  0.45210  0.17677  0.74357  1.0000
  S   S136      1.0  0.44154  0.20719  0.73379  1.0000
  S   S137      1.0  0.48259  0.16820  0.72784  1.0000
  Fe  Fe70      1.0  0.41126  0.16403  0.76482  1.0000
  S   S138      1.0  0.39801  0.19366  0.75704  1.0000
  S   S139      1.0  0.39310  0.13927  0.78360  1.0000
  Fe  Fe71      1.0  0.41634  0.19429  0.71773  1.0000
  S   S140      1.0  0.40506  0.20727  0.67874  1.0000
  Fe  Fe72      1.0  0.42431  0.20383  0.77409  1.0000
  S   S141      1.0  0.42264  0.22799  0.80190  1.0000
  S   S142      1.0  0.42803  0.16395  0.72392  1.0000
  S   S143      1.0  0.43653  0.17411  0.78554  1.0000
  Fe  Fe73      1.0  0.63012  0.16927  0.77544  1.0000
  S   S144      1.0  0.63585  0.18189  0.73221  1.0000
  S   S145      1.0  0.65598  0.16071  0.79988  1.0000
  Fe  Fe74      1.0  0.58620  0.17466  0.77295  1.0000
  S   S146      1.0  0.58899  0.18692  0.72955  1.0000
  S   S147      1.0  0.55634  0.17538  0.79469  1.0000
  Fe  Fe75      1.0  0.61169  0.16371  0.72350  1.0000
  S   S148      1.0  0.61283  0.14665  0.68657  1.0000
  Fe  Fe76      1.0  0.61259  0.20396  0.74279  1.0000
  S   S149      1.0  0.61047  0.23506  0.72641  1.0000
  S   S150      1.0  0.60713  0.14964  0.76609  1.0000
  S   S151      1.0  0.60871  0.19309  0.78692  1.0000
  C   C324      1.0  0.50288  0.17095  0.74654  1.0000
  C   C325      1.0  0.50101  0.17650  0.77339  1.0000
  C   C326      1.0  0.51750  0.17785  0.78791  1.0000
  C   C327      1.0  0.53598  0.17388  0.77564  1.0000
  C   C328      1.0  0.53786  0.16867  0.74861  1.0000
  C   C329      1.0  0.52137  0.16714  0.73419  1.0000
  H   H515      1.0  0.48684  0.17939  0.78314  1.0000
  H   H516      1.0  0.51590  0.18174  0.80887  1.0000
  H   H517      1.0  0.55197  0.16529  0.73913  1.0000
  H   H518      1.0  0.52292  0.16269  0.71354  1.0000
  C   C330      1.0  0.37773  0.11221  0.56530  1.0000
  C   C331      1.0  0.36134  0.13111  0.59973  1.0000
  C   C332      1.0  0.41292  0.25244  0.64274  1.0000
  H   H519      1.0  0.60886  0.01512  0.53269  1.0000
  S   S152      1.0  0.43542  0.17629  0.54939  1.0000
  H   H520      1.0  0.62474  0.23470  0.78091  1.0000
  C   C333      1.0  0.56232  0.22570  0.77123  1.0000
  H   H521      1.0  0.65017  0.13053  0.76419  1.0000
  H   H522      1.0  0.39933  0.17887  0.84997  1.0000
  C   C334      1.0  0.63518  0.11722  0.52662  1.0000
  S   S153      1.0  0.42350  0.13682  0.52385  1.0000
  H   H523      1.0  0.40220  0.23846  0.75359  1.0000
  H   H524      1.0  0.42201  0.23956  0.63738  1.0000
  C   C335      1.0  0.40375  0.15822  0.62414  1.0000
  C   C336      1.0  0.40440  0.17722  0.61270  1.0000
  C   C337      1.0  0.40340  0.19248  0.62955  1.0000
  C   C338      1.0  0.40161  0.18876  0.65794  1.0000
  C   C339      1.0  0.39914  0.16993  0.66936  1.0000
  C   C340      1.0  0.40026  0.15461  0.65244  1.0000
  H   H525      1.0  0.40649  0.18032  0.59092  1.0000
  H   H526      1.0  0.40493  0.20705  0.62054  1.0000
  H   H527      1.0  0.39664  0.16714  0.69127  1.0000
  H   H528      1.0  0.39921  0.13999  0.66141  1.0000
  C   C341      1.0  0.62840  0.18483  0.60941  1.0000
  C   C342      1.0  0.62750  0.19245  0.63496  1.0000
  C   C343      1.0  0.62315  0.18063  0.65883  1.0000
  C   C344      1.0  0.62018  0.16108  0.65720  1.0000
  C   C345      1.0  0.62180  0.15332  0.63171  1.0000
  C   C346      1.0  0.62575  0.16523  0.60779  1.0000
  H   H529      1.0  0.62947  0.20763  0.63624  1.0000
  H   H530      1.0  0.62166  0.18677  0.67840  1.0000
  H   H531      1.0  0.61957  0.13819  0.63045  1.0000
  H   H532      1.0  0.62680  0.15920  0.58816  1.0000
  H   H533      1.0  0.43846  0.13082  0.64261  1.0000
  H   H534      1.0  0.48239  0.12647  0.63807  1.0000
  H   H535      1.0  0.36727  0.17332  0.79439  1.0000
  H   H536      1.0  0.36636  0.20874  0.84689  1.0000
  H   H537      1.0  0.37348  0.15644  0.86696  1.0000
  H   H538      1.0  0.46738  0.13200  0.61005  1.0000
  H   H539      1.0  0.34730  0.19300  0.85913  1.0000
  C   C347      1.0  0.36957  0.13541  0.77391  1.0000
  C   C348      1.0  0.41392  0.26050  0.53861  1.0000
  S   S154      1.0  0.40876  0.22193  0.54387  1.0000
  S   S155      1.0  0.38994  0.16916  0.54386  1.0000
  C   C349      1.0  0.55215  0.22002  0.81921  1.0000
  H   H540      1.0  0.48651  0.14746  0.61499  1.0000
  C   C350      1.0  0.34960  0.10017  0.59173  1.0000
  H   H541      1.0  0.55045  0.21712  0.76523  1.0000
  N   N34       1.0  0.56129  0.17487  0.64099  1.0000
  C   C351      1.0  0.56658  0.17607  0.66937  1.0000
  C   C352      1.0  0.54034  0.17879  0.63984  1.0000
  C   C353      1.0  0.56638  0.15539  0.63227  1.0000
  C   C354      1.0  0.57185  0.18918  0.62246  1.0000
  H   H542      1.0  0.55943  0.16502  0.68383  1.0000
  H   H543      1.0  0.56259  0.19043  0.67691  1.0000
  H   H544      1.0  0.58234  0.17368  0.67088  1.0000
  H   H545      1.0  0.53582  0.17779  0.61874  1.0000
  H   H546      1.0  0.53199  0.16836  0.65383  1.0000
  H   H547      1.0  0.53607  0.19349  0.64591  1.0000
  H   H548      1.0  0.56288  0.15412  0.61071  1.0000
  H   H549      1.0  0.55858  0.14418  0.64558  1.0000
  H   H550      1.0  0.58204  0.15188  0.63339  1.0000
  H   H551      1.0  0.56863  0.20406  0.62851  1.0000
  H   H552      1.0  0.56807  0.18873  0.60088  1.0000
  H   H553      1.0  0.58769  0.18644  0.62260  1.0000
  N   N35       1.0  0.55689  0.23494  0.79691  1.0000
  C   C355      1.0  0.64789  0.10276  0.53728  1.0000
  C   C356      1.0  0.66878  0.13885  0.79382  1.0000
  H   H554      1.0  0.65586  0.14650  0.55314  1.0000
  H   H555      1.0  0.34748  0.08966  0.57639  1.0000
  H   H556      1.0  0.64347  0.15651  0.52416  1.0000
  H   H557      1.0  0.43203  0.25888  0.70296  1.0000
  H   H558      1.0  0.66822  0.09978  0.75674  1.0000
  H   H559      1.0  0.62093  0.25773  0.64650  1.0000
  C   C357      1.0  0.67325  0.10930  0.77071  1.0000
  H   H560      1.0  0.59891  0.06661  0.54564  1.0000
  N   N36       1.0  0.67401  0.15991  0.52032  1.0000
  N   N37       1.0  0.35877  0.11763  0.57869  1.0000
  H   H561      1.0  0.53994  0.21141  0.81444  1.0000
  C   C358      1.0  0.35925  0.11988  0.78674  1.0000
  H   H562      1.0  0.36831  0.14441  0.59056  1.0000
  C   C359      1.0  0.61940  0.24908  0.77483  1.0000
  N   N38       1.0  0.46174  0.14990  0.64358  1.0000
  C   C360      1.0  0.47513  0.13845  0.62591  1.0000
  C   C361      1.0  0.44692  0.13735  0.65757  1.0000
  C   C362      1.0  0.60271  0.03017  0.53089  1.0000
  H   H563      1.0  0.36978  0.19121  0.87508  1.0000
  C   C363      1.0  0.36073  0.14787  0.75446  1.0000
  H   H564      1.0  0.43656  0.14554  0.67104  1.0000
  C   C364      1.0  0.65797  0.08994  0.52013  1.0000
  C   C365      1.0  0.36319  0.19377  0.85510  1.0000
  C   C366      1.0  0.40746  0.25142  0.76055  1.0000
  H   H565      1.0  0.39809  0.17075  0.81653  1.0000
  H   H566      1.0  0.36847  0.15982  0.74427  1.0000
  H   H567      1.0  0.63468  0.02636  0.55782  1.0000
  C   C367      1.0  0.62825  0.04126  0.55540  1.0000
  C   C368      1.0  0.36157  0.18351  0.80960  1.0000
  C   C369      1.0  0.45243  0.16557  0.62661  1.0000
  H   H568      1.0  0.46313  0.17552  0.61609  1.0000
  H   H569      1.0  0.37639  0.10147  0.55004  1.0000
  H   H570      1.0  0.66798  0.06889  0.70035  1.0000
  H   H571      1.0  0.59208  0.03173  0.54874  1.0000
  H   H572      1.0  0.44189  0.17424  0.63924  1.0000
  H   H573      1.0  0.37071  0.12456  0.61567  1.0000
  H   H574      1.0  0.48390  0.16768  0.65476  1.0000
  H   H575      1.0  0.44444  0.15980  0.61048  1.0000
  H   H576      1.0  0.39879  0.24701  0.65151  1.0000
  H   H577      1.0  0.56631  0.23645  0.75396  1.0000
  H   H578      1.0  0.46703  0.19956  0.52079  1.0000
  S   S156      1.0  0.54241  0.17531  0.56090  1.0000
  H   H579      1.0  0.36595  0.11014  0.80179  1.0000
  C   C370      1.0  0.47241  0.15826  0.66432  1.0000
  H   H580      1.0  0.47641  0.22078  0.53220  1.0000
  H   H581      1.0  0.54306  0.25953  0.77633  1.0000
  C   C371      1.0  0.52286  0.17174  0.54121  1.0000
  H   H582      1.0  0.38471  0.12490  0.55424  1.0000
  H   H583      1.0  0.56967  0.25309  0.82346  1.0000
  C   C372      1.0  0.36660  0.15997  0.84737  1.0000
  H   H584      1.0  0.65017  0.10168  0.55892  1.0000
  H   H585      1.0  0.67216  0.03906  0.73087  1.0000
  H   H586      1.0  0.50273  0.16807  0.57653  1.0000
  C   C373      1.0  0.41789  0.25038  0.78390  1.0000
  H   H587      1.0  0.52741  0.24019  0.78756  1.0000
  S   S157      1.0  0.67659  0.02473  0.56460  1.0000
  H   H588      1.0  0.39561  0.19599  0.82139  1.0000
  H   H589      1.0  0.38779  0.10590  0.58047  1.0000
  Fe  Fe77      1.0  0.57134  0.18127  0.53804  1.0000
  H   H590      1.0  0.57496  0.21560  0.77353  1.0000
  H   H591      1.0  0.62751  0.12693  0.54009  1.0000
  H   H592      1.0  0.46265  0.16716  0.67774  1.0000
  H   H593      1.0  0.54811  0.22640  0.83898  1.0000
  H   H594      1.0  0.41623  0.25878  0.56022  1.0000
  C   C374      1.0  0.39185  0.18142  0.83071  1.0000
  H   H595      1.0  0.47498  0.16247  0.54966  1.0000
  C   C375      1.0  0.50462  0.16839  0.55447  1.0000
  H   H596      1.0  0.47930  0.14690  0.67804  1.0000
  C   C376      1.0  0.48886  0.16535  0.53925  1.0000
  H   H597      1.0  0.36423  0.19831  0.80028  1.0000
  C   C377      1.0  0.66290  0.12668  0.77504  1.0000
  H   H598      1.0  0.43456  0.23819  0.68313  1.0000
  H   H599      1.0  0.57714  0.25733  0.78781  1.0000
  H   H600      1.0  0.65195  0.17206  0.54755  1.0000
  C   C378      1.0  0.53993  0.24809  0.79303  1.0000
  H   H601      1.0  0.45075  0.25817  0.64482  1.0000
  N   N39       1.0  0.37080  0.17967  0.83571  1.0000
  C   C379      1.0  0.65553  0.15866  0.53705  1.0000
  H   H602      1.0  0.61845  0.04340  0.57394  1.0000
  C   C380      1.0  0.42518  0.25106  0.68759  1.0000
  H   H603      1.0  0.56459  0.20969  0.82242  1.0000
  Fe  Fe78      1.0  0.41087  0.19192  0.52915  1.0000
  H   H604      1.0  0.37212  0.14903  0.83309  1.0000
  H   H605      1.0  0.35336  0.13971  0.54667  1.0000
  H   H606      1.0  0.34736  0.13553  0.61032  1.0000
  H   H607      1.0  0.64018  0.05139  0.55526  1.0000
  H   H608      1.0  0.45083  0.21869  0.53143  1.0000
  C   C381      1.0  0.34641  0.12703  0.55795  1.0000
  C   C382      1.0  0.40986  0.24446  0.52488  1.0000
  H   H609      1.0  0.41137  0.24560  0.69749  1.0000
  C   C383      1.0  0.46503  0.21547  0.52037  1.0000
  H   H610      1.0  0.35859  0.09273  0.60747  1.0000
  C   C384      1.0  0.60932  0.06402  0.52787  1.0000
  C   C385      1.0  0.57316  0.24592  0.80415  1.0000
  C   C386      1.0  0.61181  0.25300  0.74931  1.0000
  N   N40       1.0  0.61798  0.04428  0.53008  1.0000
  H   H611      1.0  0.58619  0.23637  0.80710  1.0000
  H   H612      1.0  0.53543  0.25532  0.81202  1.0000
  H   H613      1.0  0.35084  0.15806  0.85130  1.0000
  H   H614      1.0  0.34572  0.18186  0.81239  1.0000
  S   S158      1.0  0.67575  0.07396  0.53411  1.0000
  H   H615      1.0  0.62051  0.07494  0.52719  1.0000
  C   C387      1.0  0.52519  0.17215  0.51265  1.0000
  C   C388      1.0  0.60771  0.28529  0.49093  1.0000
  S   S159      1.0  0.47760  0.37136  0.48966  1.0000
  H   H616      1.0  0.65391  0.47190  0.49045  1.0000
  H   H617      1.0  0.54604  0.37405  0.50556  1.0000
  S   S160      1.0  0.61479  0.32131  0.46301  1.0000
  H   H618      1.0  0.54226  0.28310  0.47393  1.0000
  H   H619      1.0  0.54639  0.31259  0.44238  1.0000
  C   C389      1.0  0.65558  0.39183  0.44910  1.0000
  H   H620      1.0  0.59639  0.26348  0.42402  1.0000
  C   C390      1.0  0.55524  0.31831  0.45757  1.0000
  H   H621      1.0  0.60580  0.29716  0.42263  1.0000
  S   S161      1.0  0.61776  0.41281  0.49226  1.0000
  H   H622      1.0  0.51910  0.31074  0.47904  1.0000
  S   S162      1.0  0.42309  0.35937  0.48978  1.0000
  H   H623      1.0  0.64469  0.35497  0.45339  1.0000
  H   H624      1.0  0.43995  0.44920  0.48968  1.0000
  H   H625      1.0  0.65153  0.38655  0.47065  1.0000
  H   H626      1.0  0.61925  0.38065  0.45673  1.0000
  C   C391      1.0  0.52895  0.31678  0.49265  1.0000
  Fe  Fe79      1.0  0.35164  0.49362  0.50124  1.0000
  Fe  Fe80      1.0  0.42076  0.32796  0.50452  1.0000
  C   C392      1.0  0.59961  0.26942  0.44278  1.0000
  C   C393      1.0  0.65387  0.45666  0.49654  1.0000
  C   C394      1.0  0.60883  0.29673  0.46596  1.0000
  H   H627      1.0  0.66617  0.38729  0.39622  1.0000
  C   C395      1.0  0.63786  0.44590  0.49221  1.0000
  H   H628      1.0  0.64742  0.40574  0.39866  1.0000
  C   C396      1.0  0.45274  0.44196  0.49895  1.0000
  N   N41       1.0  0.54927  0.31082  0.48582  1.0000
  C   C397      1.0  0.60281  0.26573  0.49160  1.0000
  H   H629      1.0  0.61520  0.37907  0.42142  1.0000
  C   C398      1.0  0.38302  0.43144  0.48626  1.0000
  H   H630      1.0  0.38645  0.43348  0.46439  1.0000
  H   H631      1.0  0.66464  0.35775  0.42832  1.0000
  H   H632      1.0  0.57702  0.31451  0.50046  1.0000
  S   S163      1.0  0.36646  0.46794  0.48115  1.0000
  C   C399      1.0  0.60491  0.28857  0.44201  1.0000
  S   S164      1.0  0.41227  0.30443  0.47931  1.0000
  H   H633      1.0  0.51717  0.38180  0.47927  1.0000
  C   C400      1.0  0.41162  0.28134  0.49685  1.0000
  C   C401      1.0  0.38831  0.41389  0.50055  1.0000
  H   H634      1.0  0.62014  0.40184  0.43393  1.0000
  Fe  Fe81      1.0  0.45137  0.35661  0.50923  1.0000
  S   S165      1.0  0.58968  0.36507  0.49460  1.0000
  H   H635      1.0  0.57060  0.31425  0.45197  1.0000
  H   H636      1.0  0.39564  0.40249  0.48967  1.0000
  N   N42       1.0  0.64477  0.38227  0.42960  1.0000
  H   H637      1.0  0.42937  0.41717  0.48069  1.0000
  H   H638      1.0  0.67140  0.38931  0.44540  1.0000
  H   H639      1.0  0.64100  0.35359  0.41812  1.0000
  C   C402      1.0  0.51590  0.37296  0.49841  1.0000
  C   C403      1.0  0.62392  0.38612  0.43552  1.0000
  C   C404      1.0  0.40767  0.26527  0.48299  1.0000
  C   C405      1.0  0.65049  0.38993  0.40136  1.0000
  C   C406      1.0  0.44223  0.41066  0.49054  1.0000
  H   H640      1.0  0.65248  0.40767  0.44778  1.0000
  Fe  Fe82      1.0  0.61124  0.34025  0.49834  1.0000
  H   H641      1.0  0.62563  0.45301  0.48282  1.0000
  H   H642      1.0  0.55382  0.33431  0.45525  1.0000
  C   C407      1.0  0.55140  0.28960  0.48805  1.0000
  H   H643      1.0  0.64255  0.38309  0.38612  1.0000
  C   C408      1.0  0.64902  0.36128  0.43240  1.0000
  H   H644      1.0  0.45395  0.40863  0.47417  1.0000
  C   C409      1.0  0.63759  0.42606  0.49990  1.0000
  C   C410      1.0  0.37315  0.44627  0.50004  1.0000
  S   S166      1.0  0.63448  0.35833  0.51110  1.0000
  C   C411      1.0  0.49794  0.36594  0.50834  1.0000
  H   H645      1.0  0.46456  0.44120  0.48243  1.0000
  H   H646      1.0  0.40498  0.26717  0.46151  1.0000
  C   C412      1.0  0.66997  0.44753  0.50799  1.0000
  H   H647      1.0  0.43850  0.39607  0.49955  1.0000
  H   H648      1.0  0.56034  0.33465  0.50386  1.0000
  H   H649      1.0  0.52679  0.33270  0.49042  1.0000
  H   H650      1.0  0.47772  0.41184  0.50779  1.0000
  H   H651      1.0  0.56653  0.28470  0.48269  1.0000
  C   C413      1.0  0.56159  0.31868  0.50504  1.0000
  Fe  Fe83      1.0  0.61212  0.38251  0.51113  1.0000
  H   H652      1.0  0.35011  0.47453  0.42527  1.0000
  H   H653      1.0  0.54743  0.28349  0.50926  1.0000
  H   H654      1.0  0.61086  0.29138  0.50958  1.0000
  C   C414      1.0  0.65351  0.41704  0.51197  1.0000
  N   N43       1.0  0.44827  0.42260  0.51165  1.0000
  Fe  Fe84      1.0  0.62175  0.35068  0.55366  1.0000
  C   C415      1.0  0.43985  0.37371  0.84615  1.0000
  S   S167      1.0  0.63925  0.34392  0.58976  1.0000
  S   S168      1.0  0.60076  0.33036  0.54092  1.0000
  S   S169      1.0  0.60089  0.37603  0.55481  1.0000
  H   H655      1.0  0.60653  0.30041  0.64598  1.0000
  H   H656      1.0  0.39488  0.27556  0.67814  1.0000
  Fe  Fe85      1.0  0.43492  0.33334  0.55954  1.0000
  S   S170      1.0  0.43893  0.31706  0.60011  1.0000
  Fe  Fe86      1.0  0.44388  0.36605  0.72287  1.0000
  S   S171      1.0  0.44390  0.38147  0.76108  1.0000
  S   S172      1.0  0.46028  0.37512  0.68329  1.0000
  Fe  Fe87      1.0  0.41937  0.33430  0.74942  1.0000
  S   S173      1.0  0.41734  0.34654  0.79058  1.0000
  S   S174      1.0  0.40551  0.30825  0.73637  1.0000
  Fe  Fe88      1.0  0.41227  0.37515  0.76683  1.0000
  S   S175      1.0  0.39205  0.39904  0.78274  1.0000
  Fe  Fe89      1.0  0.44896  0.35207  0.78156  1.0000
  S   S176      1.0  0.47217  0.34472  0.81078  1.0000
  S   S177      1.0  0.41197  0.36250  0.72628  1.0000
  S   S178      1.0  0.45129  0.33707  0.74294  1.0000
  Fe  Fe90      1.0  0.60710  0.33002  0.78507  1.0000
  S   S179      1.0  0.60821  0.35950  0.80092  1.0000
  S   S180      1.0  0.61472  0.30127  0.80653  1.0000
  Fe  Fe91      1.0  0.59349  0.34546  0.73097  1.0000
  S   S181      1.0  0.59391  0.37589  0.74126  1.0000
  S   S182      1.0  0.58036  0.33816  0.69328  1.0000
  Fe  Fe92      1.0  0.62232  0.36787  0.75900  1.0000
  S   S183      1.0  0.64603  0.38897  0.74536  1.0000
  Fe  Fe93      1.0  0.57980  0.36517  0.78172  1.0000
  S   S184      1.0  0.55341  0.38343  0.79419  1.0000
  S   S185      1.0  0.62302  0.33799  0.74462  1.0000
  S   S186      1.0  0.57760  0.33515  0.77010  1.0000
  C   C416      1.0  0.66619  0.39577  0.76188  1.0000
  H   H657      1.0  0.41541  0.28851  0.68481  1.0000
  H   H658      1.0  0.65954  0.37959  0.80037  1.0000
  C   C417      1.0  0.61371  0.28269  0.78451  1.0000
  C   C418      1.0  0.60616  0.28650  0.75896  1.0000
  H   H659      1.0  0.60096  0.30086  0.75265  1.0000
  C   C419      1.0  0.36717  0.40125  0.77714  1.0000
  H   H660      1.0  0.64002  0.28532  0.69912  1.0000
  C   C420      1.0  0.37663  0.35573  0.61095  1.0000
  H   H661      1.0  0.36697  0.37664  0.75348  1.0000
  H   H662      1.0  0.45446  0.37921  0.84757  1.0000
  C   C421      1.0  0.41023  0.28621  0.75526  1.0000
  C   C422      1.0  0.42081  0.28520  0.77847  1.0000
  C   C423      1.0  0.35848  0.38839  0.76197  1.0000
  H   H663      1.0  0.42613  0.29817  0.78534  1.0000
  C   C424      1.0  0.49477  0.35523  0.80356  1.0000
  C   C425      1.0  0.49612  0.37467  0.79439  1.0000
  C   C426      1.0  0.51418  0.38317  0.79139  1.0000
  C   C427      1.0  0.53104  0.37218  0.79677  1.0000
  C   C428      1.0  0.52973  0.35260  0.80497  1.0000
  C   C429      1.0  0.51163  0.34426  0.80879  1.0000
  H   H664      1.0  0.48320  0.38332  0.79056  1.0000
  H   H665      1.0  0.51507  0.39833  0.78512  1.0000
  H   H666      1.0  0.54258  0.34405  0.80954  1.0000
  H   H667      1.0  0.51068  0.32927  0.81616  1.0000
  H   H668      1.0  0.37027  0.42380  0.56435  1.0000
  C   C430      1.0  0.45629  0.35811  0.66019  1.0000
  C   C431      1.0  0.46285  0.36093  0.63257  1.0000
  C   C432      1.0  0.45831  0.34785  0.61396  1.0000
  C   C433      1.0  0.44748  0.33188  0.62314  1.0000
  C   C434      1.0  0.44181  0.32860  0.65090  1.0000
  C   C435      1.0  0.44585  0.34189  0.66926  1.0000
  H   H669      1.0  0.47106  0.37338  0.62546  1.0000
  H   H670      1.0  0.46322  0.35012  0.59258  1.0000
  H   H671      1.0  0.43343  0.31631  0.65810  1.0000
  H   H672      1.0  0.44040  0.33968  0.69030  1.0000
  H   H673      1.0  0.43666  0.43276  0.55000  1.0000
  C   C436      1.0  0.40334  0.26932  0.74662  1.0000
  C   C437      1.0  0.62276  0.34394  0.61844  1.0000
  C   C438      1.0  0.60340  0.34060  0.61566  1.0000
  C   C439      1.0  0.59032  0.33928  0.63869  1.0000
  C   C440      1.0  0.59652  0.34157  0.66455  1.0000
  C   C441      1.0  0.61574  0.34555  0.66733  1.0000
  C   C442      1.0  0.62891  0.34659  0.64426  1.0000
  H   H674      1.0  0.59846  0.33871  0.59584  1.0000
  H   H675      1.0  0.57544  0.33633  0.63642  1.0000
  H   H676      1.0  0.62053  0.34765  0.68721  1.0000
  H   H677      1.0  0.64383  0.34946  0.64641  1.0000
  S   S187      1.0  0.45014  0.32489  0.52033  1.0000
  H   H678      1.0  0.39318  0.37858  0.66260  1.0000
  C   C443      1.0  0.64483  0.29918  0.64590  1.0000
  N   N44       1.0  0.42201  0.26351  0.66240  1.0000
  C   C444      1.0  0.51260  0.35032  0.54797  1.0000
  S   S188      1.0  0.43892  0.36487  0.55016  1.0000
  H   H679      1.0  0.44774  0.27911  0.66405  1.0000
  Fe  Fe94      1.0  0.58066  0.35639  0.53842  1.0000
  C   C445      1.0  0.37391  0.42587  0.54253  1.0000
  H   H680      1.0  0.43839  0.36065  0.86062  1.0000
  N   N45       1.0  0.52059  0.35799  0.70883  1.0000
  C   C446      1.0  0.51519  0.37279  0.68721  1.0000
  C   C447      1.0  0.52755  0.34024  0.69611  1.0000
  C   C448      1.0  0.50356  0.35388  0.72790  1.0000
  C   C449      1.0  0.53605  0.36503  0.72401  1.0000
  H   H681      1.0  0.50360  0.36785  0.67529  1.0000
  H   H682      1.0  0.52771  0.37634  0.67248  1.0000
  H   H683      1.0  0.50962  0.38632  0.69605  1.0000
  H   H684      1.0  0.53239  0.32897  0.71172  1.0000
  H   H685      1.0  0.51613  0.33425  0.68502  1.0000
  H   H686      1.0  0.54009  0.34300  0.68105  1.0000
  H   H687      1.0  0.50705  0.34287  0.74468  1.0000
  H   H688      1.0  0.49163  0.34854  0.71706  1.0000
  H   H689      1.0  0.49784  0.36703  0.73762  1.0000
  H   H690      1.0  0.53145  0.37852  0.73373  1.0000
  H   H691      1.0  0.54925  0.36796  0.71030  1.0000
  H   H692      1.0  0.54035  0.35426  0.74065  1.0000
  H   H693      1.0  0.40083  0.33020  0.63677  1.0000
  H   H694      1.0  0.41419  0.40577  0.88442  1.0000
  C   C450      1.0  0.46559  0.41352  0.52368  1.0000
  C   C451      1.0  0.49634  0.35461  0.53313  1.0000
  H   H695      1.0  0.37985  0.38869  0.63454  1.0000
  N   N46       1.0  0.39063  0.35964  0.63078  1.0000
  N   N47       1.0  0.60860  0.42426  0.79198  1.0000
  C   C452      1.0  0.62460  0.41267  0.80395  1.0000
  C   C453      1.0  0.60758  0.44356  0.80248  1.0000
  C   C454      1.0  0.59031  0.41464  0.79968  1.0000
  C   C455      1.0  0.61196  0.42612  0.76180  1.0000
  H   H696      1.0  0.62579  0.39804  0.79640  1.0000
  H   H697      1.0  0.62259  0.41086  0.82669  1.0000
  H   H698      1.0  0.63871  0.41936  0.79832  1.0000
  H   H699      1.0  0.59557  0.45264  0.79398  1.0000
  H   H700      1.0  0.60516  0.44263  0.82522  1.0000
  H   H701      1.0  0.62118  0.45118  0.79685  1.0000
  H   H702      1.0  0.57785  0.42270  0.79069  1.0000
  H   H703      1.0  0.58716  0.41292  0.82229  1.0000
  H   H704      1.0  0.59073  0.39999  0.79222  1.0000
  H   H705      1.0  0.60059  0.43539  0.75206  1.0000
  H   H706      1.0  0.61194  0.41189  0.75314  1.0000
  H   H707      1.0  0.62620  0.43224  0.75518  1.0000
  C   C456      1.0  0.40884  0.36556  0.61576  1.0000
  C   C457      1.0  0.53058  0.35720  0.53804  1.0000
  H   H708      1.0  0.42664  0.40091  0.81018  1.0000
  H   H709      1.0  0.41985  0.36851  0.63001  1.0000
  H   H710      1.0  0.40664  0.37877  0.60189  1.0000
  H   H711      1.0  0.40706  0.29018  0.65088  1.0000
  C   C458      1.0  0.44067  0.27038  0.64995  1.0000
  C   C459      1.0  0.42700  0.40519  0.83147  1.0000
  H   H712      1.0  0.37362  0.36870  0.59693  1.0000
  H   H713      1.0  0.42378  0.38229  0.89534  1.0000
  H   H714      1.0  0.41936  0.43150  0.52503  1.0000
  C   C460      1.0  0.60515  0.27171  0.74152  1.0000
  C   C461      1.0  0.42560  0.39462  0.87961  1.0000
  C   C462      1.0  0.40549  0.38031  0.84951  1.0000
  H   H715      1.0  0.48256  0.34916  0.54098  1.0000
  H   H716      1.0  0.51125  0.34160  0.56721  1.0000
  H   H717      1.0  0.36104  0.45470  0.53910  1.0000
  H   H718      1.0  0.43949  0.36893  0.82517  1.0000
  N   N48       1.0  0.42448  0.38846  0.85170  1.0000
  C   C463      1.0  0.66924  0.38952  0.78906  1.0000
  H   H719      1.0  0.44103  0.41192  0.83279  1.0000
  H   H720      1.0  0.67684  0.41348  0.72645  1.0000
  H   H721      1.0  0.43978  0.40079  0.88197  1.0000
  Fe  Fe95      1.0  0.41040  0.36562  0.53185  1.0000
  S   S189      1.0  0.35724  0.50514  0.54110  1.0000
  H   H722      1.0  0.40299  0.36773  0.86457  1.0000
  H   H723      1.0  0.36914  0.37120  0.65939  1.0000
  C   C464      1.0  0.38283  0.37523  0.64758  1.0000
  C   C465      1.0  0.39428  0.34204  0.64877  1.0000
  H   H724      1.0  0.39475  0.27007  0.72915  1.0000
  C   C466      1.0  0.38373  0.41104  0.52877  1.0000
  N   N49       1.0  0.63185  0.28406  0.65789  1.0000
  H   H725      1.0  0.41799  0.29108  0.53553  1.0000
  H   H726      1.0  0.41527  0.41637  0.83434  1.0000
  S   S190      1.0  0.55063  0.35090  0.55699  1.0000
  H   H727      1.0  0.39352  0.39117  0.85283  1.0000
  H   H728      1.0  0.42827  0.40987  0.54274  1.0000
  H   H729      1.0  0.35286  0.42997  0.71129  1.0000
  H   H730      1.0  0.61280  0.30345  0.68008  1.0000
  H   H731      1.0  0.64603  0.31051  0.66033  1.0000
  H   H732      1.0  0.36245  0.42634  0.80006  1.0000
  H   H733      1.0  0.36267  0.35122  0.62146  1.0000
  H   H734      1.0  0.38218  0.34411  0.59785  1.0000
  C   C467      1.0  0.35587  0.41636  0.78820  1.0000
  H   H735      1.0  0.60215  0.28169  0.67275  1.0000
  C   C468      1.0  0.41492  0.27883  0.52465  1.0000
  C   C469      1.0  0.35293  0.44471  0.71844  1.0000
  H   H736      1.0  0.64490  0.26262  0.63249  1.0000
  C   C470      1.0  0.62026  0.26391  0.79248  1.0000
  H   H737      1.0  0.46277  0.39883  0.53327  1.0000
  H   H738      1.0  0.35220  0.44306  0.74122  1.0000
  H   H739      1.0  0.40435  0.34465  0.66452  1.0000
  H   H740      1.0  0.47065  0.42208  0.53970  1.0000
  H   H741      1.0  0.41505  0.35414  0.60279  1.0000
  H   H742      1.0  0.41041  0.26130  0.62336  1.0000
  H   H743      1.0  0.62469  0.27591  0.61870  1.0000
  C   C471      1.0  0.53224  0.36854  0.51320  1.0000
  S   S191      1.0  0.39018  0.38935  0.54780  1.0000
  C   C472      1.0  0.36868  0.44343  0.52827  1.0000
  H   H744      1.0  0.35248  0.46666  0.67091  1.0000
  H   H745      1.0  0.40425  0.37532  0.82880  1.0000
  H   H746      1.0  0.38078  0.33682  0.65992  1.0000
  S   S192      1.0  0.40532  0.33445  0.54474  1.0000
  H   H747      1.0  0.65960  0.29320  0.64071  1.0000
  H   H748      1.0  0.59899  0.27479  0.72205  1.0000
  C   C473      1.0  0.63054  0.26944  0.63800  1.0000
  H   H749      1.0  0.63042  0.26298  0.69224  1.0000
  H   H750      1.0  0.67522  0.44235  0.60040  1.0000
  H   H751      1.0  0.43884  0.27961  0.63066  1.0000
  H   H752      1.0  0.52423  0.31207  0.51424  1.0000
  C   C474      1.0  0.61249  0.29276  0.66445  1.0000
  C   C475      1.0  0.63953  0.27487  0.68320  1.0000
  H   H753      1.0  0.65350  0.40180  0.51805  1.0000
  C   C476      1.0  0.40927  0.28019  0.66931  1.0000
  H   H754      1.0  0.45734  0.45138  0.51430  1.0000
  H   H755      1.0  0.36704  0.45091  0.71137  1.0000
  H   H756      1.0  0.55755  0.31353  0.52670  1.0000
  H   H757      1.0  0.63951  0.30639  0.62668  1.0000
  C   C477      1.0  0.42439  0.26732  0.79299  1.0000
  H   H758      1.0  0.43245  0.26660  0.81105  1.0000
  C   C478      1.0  0.66969  0.42768  0.51564  1.0000
  H   H759      1.0  0.35024  0.48326  0.71448  1.0000
  H   H760      1.0  0.65433  0.26860  0.67924  1.0000
  C   C479      1.0  0.43249  0.42426  0.53333  1.0000
  H   H761      1.0  0.62617  0.26089  0.81218  1.0000
  Fe  Fe96      1.0  0.42763  0.68388  0.47169  1.0000
  S   S193      1.0  0.41777  0.69445  0.43052  1.0000
  Fe  Fe97      1.0  0.59385  0.69219  0.49017  1.0000
  S   S194      1.0  0.58475  0.70402  0.44914  1.0000
  Fe  Fe98      1.0  0.43242  0.65177  0.30069  1.0000
  S   S195      1.0  0.44200  0.64077  0.26003  1.0000
  S   S196      1.0  0.44065  0.63675  0.34043  1.0000
  Fe  Fe99      1.0  0.41316  0.68814  0.27555  1.0000
  S   S197      1.0  0.42108  0.68015  0.23274  1.0000
  S   S198      1.0  0.39500  0.71425  0.28701  1.0000
  Fe  Fe100     1.0  0.41202  0.65051  0.24886  1.0000
  S   S199      1.0  0.39328  0.63214  0.22643  1.0000
  Fe  Fe101     1.0  0.45010  0.67127  0.24815  1.0000
  S   S200      1.0  0.47792  0.68286  0.22778  1.0000
  S   S201      1.0  0.40206  0.65917  0.29060  1.0000
  S   S202      1.0  0.44257  0.68155  0.28990  1.0000
  Fe  Fe102     1.0  0.59779  0.65766  0.32001  1.0000
  S   S203      1.0  0.60599  0.64082  0.28372  1.0000
  S   S204      1.0  0.59534  0.64268  0.36211  1.0000
  Fe  Fe103     1.0  0.59169  0.69513  0.28574  1.0000
  S   S205      1.0  0.59946  0.68148  0.24626  1.0000
  S   S206      1.0  0.57834  0.72509  0.28737  1.0000
  Fe  Fe104     1.0  0.58123  0.65739  0.26484  1.0000
  S   S207      1.0  0.55992  0.64153  0.24334  1.0000
  Fe  Fe105     1.0  0.62358  0.66617  0.26865  1.0000
  S   S208      1.0  0.65394  0.66441  0.24827  1.0000
  S   S209      1.0  0.57167  0.67202  0.30255  1.0000
  S   S210      1.0  0.61722  0.68199  0.30670  1.0000
  C   C480      1.0  0.66328  0.62627  0.26380  1.0000
  H   H762      1.0  0.64813  0.62466  0.26957  1.0000
  C   C481      1.0  0.59224  0.74471  0.29250  1.0000
  C   C482      1.0  0.41999  0.75835  0.33776  1.0000
  H   H763      1.0  0.61985  0.72998  0.28623  1.0000
  C   C483      1.0  0.35848  0.64011  0.25530  1.0000
  C   C484      1.0  0.36842  0.62936  0.23552  1.0000
  C   C485      1.0  0.36714  0.68148  0.21031  1.0000
  H   H764      1.0  0.38059  0.59733  0.44596  1.0000
  H   H765      1.0  0.36615  0.64987  0.26607  1.0000
  H   H766      1.0  0.36585  0.60803  0.20674  1.0000
  H   H767      1.0  0.50894  0.62322  0.33137  1.0000
  C   C486      1.0  0.40164  0.73696  0.27191  1.0000
  H   H768      1.0  0.42399  0.72630  0.24359  1.0000
  C   C487      1.0  0.35758  0.59474  0.29816  1.0000
  C   C488      1.0  0.50051  0.67107  0.23260  1.0000
  C   C489      1.0  0.50312  0.65115  0.23157  1.0000
  C   C490      1.0  0.52143  0.64223  0.23473  1.0000
  C   C491      1.0  0.53714  0.65311  0.23940  1.0000
  C   C492      1.0  0.53448  0.67300  0.24070  1.0000
  C   C493      1.0  0.51629  0.68197  0.23691  1.0000
  H   H769      1.0  0.49111  0.64267  0.22783  1.0000
  H   H770      1.0  0.52340  0.62685  0.23354  1.0000
  H   H771      1.0  0.54651  0.68155  0.24417  1.0000
  H   H772      1.0  0.51441  0.69741  0.23746  1.0000
  C   C494      1.0  0.58497  0.68687  0.42508  1.0000
  C   C495      1.0  0.58433  0.66726  0.43338  1.0000
  C   C496      1.0  0.58651  0.65364  0.41379  1.0000
  C   C497      1.0  0.58949  0.65965  0.38599  1.0000
  C   C498      1.0  0.58901  0.67928  0.37763  1.0000
  C   C499      1.0  0.58668  0.69289  0.39718  1.0000
  H   H773      1.0  0.58242  0.66255  0.45482  1.0000
  H   H774      1.0  0.58642  0.63844  0.42019  1.0000
  H   H775      1.0  0.59096  0.68403  0.35616  1.0000
  H   H776      1.0  0.58698  0.70806  0.39066  1.0000
  C   C500      1.0  0.42448  0.67833  0.40576  1.0000
  C   C501      1.0  0.41603  0.68052  0.38076  1.0000
  C   C502      1.0  0.42110  0.66776  0.36069  1.0000
  C   C503      1.0  0.43432  0.65249  0.36578  1.0000
  C   C504      1.0  0.44276  0.65018  0.39084  1.0000
  C   C505      1.0  0.43800  0.66327  0.41073  1.0000
  H   H777      1.0  0.40544  0.69200  0.37691  1.0000
  H   H778      1.0  0.41455  0.66965  0.34140  1.0000
  H   H779      1.0  0.45320  0.63851  0.39468  1.0000
  H   H780      1.0  0.44502  0.66186  0.42968  1.0000
  H   H781      1.0  0.52383  0.70953  0.42594  1.0000
  H   H782      1.0  0.63979  0.63978  0.40114  1.0000
  H   H783      1.0  0.66672  0.64692  0.46230  1.0000
  H   H784      1.0  0.61762  0.64030  0.44235  1.0000
  H   H785      1.0  0.41500  0.60406  0.43805  1.0000
  H   H786      1.0  0.35424  0.57346  0.34668  1.0000
  H   H787      1.0  0.43233  0.75883  0.22284  1.0000
  H   H788      1.0  0.41282  0.74513  0.40594  1.0000
  C   C506      1.0  0.41516  0.75510  0.38719  1.0000
  H   H789      1.0  0.38074  0.67472  0.21778  1.0000
  H   H790      1.0  0.37080  0.72628  0.23179  1.0000
  H   H791      1.0  0.65850  0.62987  0.42201  1.0000
  C   C507      1.0  0.65156  0.64356  0.41371  1.0000
  H   H792      1.0  0.37174  0.58936  0.30534  1.0000
  C   C508      1.0  0.53414  0.70482  0.44156  1.0000
  H   H793      1.0  0.52701  0.63815  0.49872  1.0000
  C   C509      1.0  0.38877  0.64350  0.45789  1.0000
  H   H794      1.0  0.43033  0.71976  0.38165  1.0000
  H   H795      1.0  0.39469  0.72517  0.37842  1.0000
  H   H796      1.0  0.63612  0.63121  0.46392  1.0000
  H   H797      1.0  0.50093  0.68854  0.49124  1.0000
  H   H798      1.0  0.49815  0.69398  0.45552  1.0000
  N   N50       1.0  0.61189  0.63041  0.19564  1.0000
  C   C510      1.0  0.61901  0.62114  0.17060  1.0000
  C   C511      1.0  0.59770  0.64607  0.18861  1.0000
  C   C512      1.0  0.62822  0.63842  0.20786  1.0000
  C   C513      1.0  0.60263  0.61601  0.21555  1.0000
  H   H799      1.0  0.60703  0.61493  0.16088  1.0000
  H   H800      1.0  0.62977  0.60927  0.17524  1.0000
  H   H801      1.0  0.59219  0.65345  0.20704  1.0000
  H   H802      1.0  0.60409  0.65718  0.17352  1.0000
  H   H803      1.0  0.58491  0.64052  0.17996  1.0000
  H   H804      1.0  0.62333  0.64554  0.22675  1.0000
  H   H805      1.0  0.63558  0.64947  0.19366  1.0000
  H   H806      1.0  0.63925  0.62709  0.21368  1.0000
  H   H807      1.0  0.59722  0.62253  0.23475  1.0000
  H   H808      1.0  0.58995  0.60995  0.20731  1.0000
  H   H809      1.0  0.51452  0.67480  0.46660  1.0000
  Fe  Fe106     1.0  0.45768  0.66306  0.50560  1.0000
  H   H810      1.0  0.42298  0.62804  0.43945  1.0000
  H   H811      1.0  0.39869  0.72672  0.34167  1.0000
  S   S211      1.0  0.59046  0.66241  0.51023  1.0000
  H   H812      1.0  0.66240  0.65133  0.39965  1.0000
  C   C514      1.0  0.37517  0.71335  0.22057  1.0000
  N   N51       1.0  0.39224  0.62554  0.44391  1.0000
  H   H813      1.0  0.64555  0.68251  0.41175  1.0000
  H   H814      1.0  0.35625  0.67016  0.21281  1.0000
  C   C515      1.0  0.43234  0.73000  0.36316  1.0000
  H   H815      1.0  0.38584  0.74589  0.35832  1.0000
  C   C516      1.0  0.62959  0.64458  0.45395  1.0000
  H   H816      1.0  0.41418  0.61462  0.47018  1.0000
  C   C517      1.0  0.39809  0.73518  0.36003  1.0000
  C   C518      1.0  0.39011  0.62967  0.41427  1.0000
  H   H817      1.0  0.37392  0.64962  0.45561  1.0000
  S   S212      1.0  0.35277  0.52256  0.47747  1.0000
  C   C519      1.0  0.48734  0.66771  0.33439  1.0000
  H   H818      1.0  0.67082  0.59626  0.27292  1.0000
  C   C520      1.0  0.42104  0.75736  0.23916  1.0000
  C   C521      1.0  0.65989  0.66013  0.45228  1.0000
  H   H819      1.0  0.48649  0.62991  0.34932  1.0000
  C   C522      1.0  0.50075  0.63531  0.34097  1.0000
  C   C523      1.0  0.51758  0.65886  0.31039  1.0000
  C   C524      1.0  0.63488  0.67342  0.42412  1.0000
  H   H820      1.0  0.50557  0.72796  0.46218  1.0000
  H   H821      1.0  0.38928  0.70801  0.22792  1.0000
  C   C525      1.0  0.34622  0.56264  0.29768  1.0000
  N   N52       1.0  0.52453  0.70322  0.46950  1.0000
  S   S213      1.0  0.45429  0.69359  0.48816  1.0000
  H   H822      1.0  0.40050  0.64047  0.40508  1.0000
  N   N53       1.0  0.49843  0.65208  0.32096  1.0000
  H   H823      1.0  0.51629  0.67163  0.29544  1.0000
  C   C526      1.0  0.41631  0.73893  0.25088  1.0000
  C   C527      1.0  0.66995  0.64425  0.25363  1.0000
  H   H824      1.0  0.52607  0.66301  0.32714  1.0000
  C   C528      1.0  0.37816  0.61128  0.45543  1.0000
  H   H825      1.0  0.62610  0.63162  0.15519  1.0000
  C   C529      1.0  0.61239  0.74356  0.28988  1.0000
  H   H826      1.0  0.44642  0.73674  0.36404  1.0000
  H   H827      1.0  0.52625  0.64755  0.29961  1.0000
  H   H828      1.0  0.49474  0.67228  0.35195  1.0000
  H   H829      1.0  0.47388  0.64029  0.30529  1.0000
  C   C530      1.0  0.35828  0.61642  0.22209  1.0000
  H   H830      1.0  0.61285  0.60392  0.22133  1.0000
  N   N54       1.0  0.64398  0.65544  0.43601  1.0000
  H   H831      1.0  0.39283  0.61649  0.40300  1.0000
  H   H832      1.0  0.50866  0.63898  0.35858  1.0000
  H   H833      1.0  0.52787  0.73292  0.47600  1.0000
  H   H834      1.0  0.48531  0.68056  0.31977  1.0000
  S   S214      1.0  0.43259  0.65277  0.48537  1.0000
  H   H835      1.0  0.47275  0.66309  0.34234  1.0000
  C   C531      1.0  0.48795  0.64643  0.29801  1.0000
  H   H836      1.0  0.37539  0.63556  0.41032  1.0000
  H   H837      1.0  0.39054  0.64098  0.48027  1.0000
  H   H838      1.0  0.48486  0.65900  0.28339  1.0000
  H   H839      1.0  0.49631  0.63537  0.28645  1.0000
  H   H840      1.0  0.62779  0.68219  0.44031  1.0000
  S   S215      1.0  0.48662  0.64770  0.49998  1.0000
  H   H841      1.0  0.35392  0.70516  0.26711  1.0000
  H   H842      1.0  0.50911  0.72146  0.49764  1.0000
  H   H843      1.0  0.43331  0.72143  0.34488  1.0000
  C   C532      1.0  0.50887  0.68956  0.47068  1.0000
  H   H844      1.0  0.62365  0.67039  0.41032  1.0000
  C   C533      1.0  0.51641  0.72226  0.47659  1.0000
  H   H845      1.0  0.37921  0.60817  0.47786  1.0000
  H   H846      1.0  0.65461  0.66931  0.46905  1.0000
  C   C534      1.0  0.35811  0.69262  0.25499  1.0000
  C   C535      1.0  0.41196  0.61773  0.44805  1.0000
  H   H847      1.0  0.54106  0.69081  0.43607  1.0000
  C   C536      1.0  0.67620  0.61020  0.26576  1.0000
  N   N55       1.0  0.41640  0.74467  0.36202  1.0000
  C   C537      1.0  0.39181  0.75341  0.28115  1.0000
  H   H848      1.0  0.38030  0.75200  0.29718  1.0000
  H   H849      1.0  0.36310  0.61652  0.45244  1.0000
  H   H850      1.0  0.37760  0.71808  0.19844  1.0000
  H   H851      1.0  0.42158  0.75086  0.31849  1.0000
  H   H852      1.0  0.35464  0.60946  0.30504  1.0000
  H   H853      1.0  0.67449  0.57940  0.34601  1.0000
  H   H854      1.0  0.39894  0.65473  0.44947  1.0000
  H   H855      1.0  0.62325  0.65325  0.47066  1.0000
  H   H856      1.0  0.67127  0.66800  0.43945  1.0000
  N   N56       1.0  0.36065  0.69842  0.22536  1.0000
  S   S216      1.0  0.62423  0.69392  0.50078  1.0000
  H   H857      1.0  0.36017  0.55619  0.30422  1.0000
  H   H858      1.0  0.36985  0.68538  0.18798  1.0000
  H   H859      1.0  0.54573  0.71542  0.43979  1.0000
  H   H860      1.0  0.37173  0.68621  0.26283  1.0000
  H   H861      1.0  0.35913  0.59617  0.27536  1.0000
  H   H862      1.0  0.34685  0.68179  0.25952  1.0000
  H   H863      1.0  0.63134  0.75842  0.46933  1.0000
  C   C538      1.0  0.62286  0.76026  0.29088  1.0000
  S   S217      1.0  0.40830  0.69044  0.50847  1.0000
  H   H864      1.0  0.34691  0.56360  0.27487  1.0000
  H   H865      1.0  0.54519  0.68189  0.48468  1.0000
  H   H866      1.0  0.53203  0.69490  0.51064  1.0000
  H   H867      1.0  0.63841  0.75945  0.28801  1.0000
  H   H868      1.0  0.55074  0.70622  0.48879  1.0000
  C   C539      1.0  0.53871  0.69625  0.48928  1.0000
  H   H869      1.0  0.60545  0.76060  0.20950  1.0000
  H   H870      1.0  0.65446  0.58838  0.59881  1.0000
  S   S218      1.0  0.65159  0.55268  0.52274  1.0000
  S   S219      1.0  0.44024  0.72366  0.54971  1.0000
  H   H871      1.0  0.39119  0.66792  0.60234  1.0000
  H   H872      1.0  0.41728  0.68551  0.62096  1.0000
  S   S220      1.0  0.38924  0.64260  0.54086  1.0000
  C   C540      1.0  0.38699  0.61812  0.53451  1.0000
  C   C541      1.0  0.39234  0.71447  0.57580  1.0000
  S   S221      1.0  0.44061  0.66762  0.54535  1.0000
  H   H873      1.0  0.38555  0.71619  0.63004  1.0000
  Fe  Fe107     1.0  0.58019  0.67806  0.54717  1.0000
  S   S222      1.0  0.60963  0.67888  0.56333  1.0000
  S   S223      1.0  0.55211  0.67197  0.57155  1.0000
  N   N57       1.0  0.39472  0.69857  0.59720  1.0000
  H   H874      1.0  0.36662  0.70369  0.61703  1.0000
  C   C542      1.0  0.41497  0.69705  0.60443  1.0000
  Fe  Fe108     1.0  0.61163  0.70741  0.53840  1.0000
  C   C543      1.0  0.64717  0.61892  0.51999  1.0000
  H   H875      1.0  0.48525  0.67024  0.54753  1.0000
  H   H876      1.0  0.35261  0.58424  0.53662  1.0000
  C   C544      1.0  0.51461  0.67047  0.55868  1.0000
  H   H877      1.0  0.37449  0.68088  0.58078  1.0000
  C   C545      1.0  0.43134  0.74678  0.53810  1.0000
  H   H878      1.0  0.55284  0.64766  0.52629  1.0000
  H   H879      1.0  0.39673  0.72841  0.58248  1.0000
  H   H880      1.0  0.38346  0.69077  0.63836  1.0000
  C   C546      1.0  0.65056  0.57317  0.59790  1.0000
  H   H881      1.0  0.58528  0.74415  0.55642  1.0000
  C   C547      1.0  0.65027  0.57824  0.52034  1.0000
  S   S224      1.0  0.58150  0.70767  0.52586  1.0000
  C   C548      1.0  0.50438  0.65354  0.52127  1.0000
  H   H882      1.0  0.51114  0.67947  0.57546  1.0000
  H   H883      1.0  0.40965  0.73665  0.51441  1.0000
  Fe  Fe109     1.0  0.41505  0.65972  0.52359  1.0000
  H   H884      1.0  0.37719  0.71633  0.57009  1.0000
  C   C549      1.0  0.36886  0.60982  0.53858  1.0000
  C   C550      1.0  0.36662  0.59046  0.53342  1.0000
  C   C551      1.0  0.38201  0.70248  0.62177  1.0000
  C   C552      1.0  0.53819  0.65276  0.53082  1.0000
  Fe  Fe110     1.0  0.35576  0.53460  0.51809  1.0000
  H   H885      1.0  0.42491  0.69365  0.58652  1.0000
  C   C553      1.0  0.40289  0.60683  0.52541  1.0000
  H   H886      1.0  0.64499  0.57204  0.57745  1.0000
  C   C554      1.0  0.38959  0.68031  0.58682  1.0000
  H   H887      1.0  0.63843  0.57016  0.61350  1.0000
  H   H888      1.0  0.40147  0.71183  0.55684  1.0000
  C   C555      1.0  0.53380  0.66443  0.55249  1.0000
  S   S225      1.0  0.62638  0.73410  0.54829  1.0000
  Fe  Fe111     1.0  0.62009  0.66522  0.52446  1.0000
  C   C556      1.0  0.49995  0.66524  0.54291  1.0000
  C   C557      1.0  0.52351  0.64724  0.51538  1.0000
  S   S226      1.0  0.38092  0.55472  0.51733  1.0000
  C   C558      1.0  0.63222  0.58788  0.52434  1.0000
  H   H889      1.0  0.35646  0.61840  0.54574  1.0000
  H   H890      1.0  0.41966  0.71083  0.61127  1.0000
  H   H891      1.0  0.39901  0.67687  0.56841  1.0000
  H   H892      1.0  0.64962  0.53550  0.61450  1.0000
  C   C559      1.0  0.38258  0.57914  0.52441  1.0000
  Fe  Fe112     1.0  0.43543  0.69779  0.52638  1.0000
  H   H893      1.0  0.61936  0.57963  0.52783  1.0000
  H   H894      1.0  0.65652  0.53837  0.57854  1.0000
  C   C560      1.0  0.61342  0.75581  0.55479  1.0000
  H   H895      1.0  0.41698  0.61289  0.52263  1.0000
  C   C561      1.0  0.63064  0.60811  0.52414  1.0000
  C   C562      1.0  0.66676  0.58909  0.51585  1.0000
  C   C563      1.0  0.40069  0.58747  0.52045  1.0000
  C   C564      1.0  0.67380  0.56096  0.62982  1.0000
  S   S227      1.0  0.64621  0.64439  0.51957  1.0000
  C   C565      1.0  0.59329  0.75696  0.55734  1.0000
  H   H896      1.0  0.41316  0.57881  0.51371  1.0000
  C   C566      1.0  0.66156  0.53983  0.59925  1.0000
  N   N58       1.0  0.66723  0.55967  0.60214  1.0000
  H   H897      1.0  0.66223  0.55723  0.64599  1.0000
  C   C567      1.0  0.41585  0.74910  0.52146  1.0000
  H   H898      1.0  0.61667  0.61531  0.52737  1.0000
  H   H899      1.0  0.67387  0.52929  0.60199  1.0000
  C   C568      1.0  0.66519  0.60930  0.51573  1.0000
  C   C569      1.0  0.63785  0.79363  0.48407  1.0000
  Fe  Fe113     1.0  0.44826  0.85542  0.47137  1.0000
  S   S228      1.0  0.46658  0.85337  0.43223  1.0000
  Fe  Fe114     1.0  0.61220  0.85695  0.49390  1.0000
  S   S229      1.0  0.62728  0.84640  0.45567  1.0000
  Fe  Fe115     1.0  0.39282  0.85210  0.29463  1.0000
  S   S230      1.0  0.39192  0.81979  0.30032  1.0000
  S   S231      1.0  0.36473  0.86781  0.30834  1.0000
  Fe  Fe116     1.0  0.43732  0.85044  0.28599  1.0000
  S   S232      1.0  0.43950  0.81836  0.29161  1.0000
  S   S233      1.0  0.46368  0.86872  0.28139  1.0000
  Fe  Fe117     1.0  0.41450  0.81937  0.26537  1.0000
  S   S234      1.0  0.41764  0.79697  0.23441  1.0000
  Fe  Fe118     1.0  0.41684  0.82128  0.32571  1.0000
  S   S235      1.0  0.41812  0.80343  0.36537  1.0000
  S   S236      1.0  0.41359  0.85174  0.25690  1.0000
  S   S237      1.0  0.41657  0.85341  0.32280  1.0000
  Fe  Fe119     1.0  0.57502  0.84868  0.26537  1.0000
  S   S238      1.0  0.57913  0.83187  0.30536  1.0000
  S   S239      1.0  0.54887  0.83978  0.24528  1.0000
  Fe  Fe120     1.0  0.61309  0.86989  0.26729  1.0000
  S   S240      1.0  0.61973  0.85412  0.30717  1.0000
  S   S241      1.0  0.63147  0.89470  0.24929  1.0000
  Fe  Fe121     1.0  0.60985  0.82786  0.28928  1.0000
  S   S242      1.0  0.62640  0.79923  0.29195  1.0000
  Fe  Fe122     1.0  0.58834  0.85952  0.31894  1.0000
  S   S243      1.0  0.57580  0.87087  0.35792  1.0000
  S   S244      1.0  0.60555  0.84317  0.24803  1.0000
  S   S245      1.0  0.58194  0.87694  0.28029  1.0000
  C   C570      1.0  0.48746  0.85966  0.27396  1.0000
  C   C571      1.0  0.50283  0.87192  0.27446  1.0000
  C   C572      1.0  0.52185  0.86563  0.26706  1.0000
  C   C573      1.0  0.52559  0.84715  0.25836  1.0000
  C   C574      1.0  0.51026  0.83475  0.25832  1.0000
  C   C575      1.0  0.49132  0.84084  0.26664  1.0000
  H   H900      1.0  0.49998  0.88651  0.28007  1.0000
  H   H901      1.0  0.53350  0.87539  0.26685  1.0000
  H   H902      1.0  0.51306  0.82040  0.25179  1.0000
  H   H903      1.0  0.47965  0.83117  0.26673  1.0000
  H   H904      1.0  0.52842  0.82948  0.37727  1.0000
  C   C576      1.0  0.59315  0.77892  0.29853  1.0000
  C   C577      1.0  0.61323  0.77807  0.29460  1.0000
  H   H905      1.0  0.51340  0.84213  0.32217  1.0000
  C   C578      1.0  0.61498  0.79767  0.21255  1.0000
  H   H906      1.0  0.58558  0.79238  0.30199  1.0000
  H   H907      1.0  0.51543  0.86946  0.39676  1.0000
  C   C579      1.0  0.36139  0.94948  0.49898  1.0000
  H   H908      1.0  0.40798  0.76935  0.33580  1.0000
  C   C580      1.0  0.41144  0.77387  0.24884  1.0000
  H   H909      1.0  0.66526  0.96586  0.48110  1.0000
  H   H910      1.0  0.63904  0.92906  0.36502  1.0000
  S   S246      1.0  0.41666  0.85131  0.47296  1.0000
  H   H911      1.0  0.38895  0.78430  0.27697  1.0000
  C   C581      1.0  0.61250  0.85246  0.42881  1.0000
  C   C582      1.0  0.61668  0.84476  0.40349  1.0000
  C   C583      1.0  0.60480  0.84961  0.38201  1.0000
  C   C584      1.0  0.58913  0.86264  0.38558  1.0000
  C   C585      1.0  0.58481  0.87012  0.41096  1.0000
  C   C586      1.0  0.59641  0.86492  0.43262  1.0000
  H   H912      1.0  0.62910  0.83511  0.40044  1.0000
  H   H913      1.0  0.60795  0.84344  0.36265  1.0000
  H   H914      1.0  0.57268  0.88018  0.41385  1.0000
  H   H915      1.0  0.59303  0.87090  0.45211  1.0000
  C   C587      1.0  0.45580  0.83704  0.41371  1.0000
  C   C588      1.0  0.44399  0.82309  0.42736  1.0000
  C   C589      1.0  0.43327  0.81172  0.41240  1.0000
  C   C590      1.0  0.43437  0.81440  0.38383  1.0000
  C   C591      1.0  0.44699  0.82759  0.37016  1.0000
  C   C592      1.0  0.45766  0.83897  0.38511  1.0000
  H   H916      1.0  0.44279  0.82133  0.44952  1.0000
  H   H917      1.0  0.42353  0.80151  0.42304  1.0000
  H   H918      1.0  0.44800  0.82960  0.34806  1.0000
  H   H919      1.0  0.46645  0.84998  0.37453  1.0000
  C   C593      1.0  0.65550  0.89790  0.25734  1.0000
  H   H920      1.0  0.65526  0.92764  0.24155  1.0000
  H   H921      1.0  0.62360  0.92094  0.29593  1.0000
  H   H922      1.0  0.60127  0.79520  0.50542  1.0000
  H   H923      1.0  0.63992  0.80937  0.48010  1.0000
  H   H924      1.0  0.39363  0.83511  0.43481  1.0000
  H   H925      1.0  0.37187  0.89283  0.25788  1.0000
  H   H926      1.0  0.45487  0.81689  0.23465  1.0000
  H   H927      1.0  0.65759  0.90105  0.34673  1.0000
  C   C594      1.0  0.46429  0.81698  0.21532  1.0000
  H   H928      1.0  0.61869  0.88262  0.35252  1.0000
  H   H929      1.0  0.34983  0.96804  0.29812  1.0000
  C   C595      1.0  0.46276  0.85171  0.21025  1.0000
  C   C596      1.0  0.51152  0.88023  0.50305  1.0000
  H   H930      1.0  0.36283  0.86803  0.42824  1.0000
  N   N59       1.0  0.51777  0.85634  0.35835  1.0000
  H   H931      1.0  0.53470  0.86980  0.32424  1.0000
  C   C597      1.0  0.61846  0.76682  0.47726  1.0000
  N   N60       1.0  0.62068  0.78775  0.47142  1.0000
  H   H932      1.0  0.58704  0.80111  0.25176  1.0000
  H   H933      1.0  0.58144  0.76353  0.22540  1.0000
  H   H934      1.0  0.47949  0.81657  0.22089  1.0000
  H   H935      1.0  0.49404  0.87188  0.37839  1.0000
  H   H936      1.0  0.36080  0.85605  0.38243  1.0000
  C   C598      1.0  0.60341  0.79826  0.48284  1.0000
  H   H937      1.0  0.58050  0.81647  0.22279  1.0000
  H   H938      1.0  0.40309  0.76611  0.38719  1.0000
  H   H939      1.0  0.47092  0.82047  0.16062  1.0000
  N   N61       1.0  0.45985  0.83402  0.19666  1.0000
  H   H940      1.0  0.45387  0.85211  0.23004  1.0000
  C   C599      1.0  0.52560  0.87363  0.34281  1.0000
  H   H941      1.0  0.61515  0.81310  0.20484  1.0000
  H   H942      1.0  0.64768  0.88793  0.32151  1.0000
  C   C600      1.0  0.34526  0.90955  0.25271  1.0000
  C   C601      1.0  0.35714  0.89531  0.26581  1.0000
  C   C602      1.0  0.37826  0.87077  0.42243  1.0000
  Fe  Fe123     1.0  0.41299  0.87756  0.49642  1.0000
  H   H943      1.0  0.56713  0.76329  0.29946  1.0000
  H   H944      1.0  0.59015  0.79426  0.47380  1.0000
  H   H945      1.0  0.65562  0.91183  0.31252  1.0000
  H   H946      1.0  0.63654  0.79050  0.50666  1.0000
  H   H947      1.0  0.51389  0.88385  0.33597  1.0000
  N   N62       1.0  0.62880  0.91027  0.33724  1.0000
  C   C603      1.0  0.61970  0.89733  0.35932  1.0000
  C   C604      1.0  0.63019  0.92958  0.34703  1.0000
  C   C605      1.0  0.61700  0.91164  0.31334  1.0000
  C   C606      1.0  0.64828  0.90245  0.32920  1.0000
  H   H948      1.0  0.46983  0.84633  0.15686  1.0000
  H   H949      1.0  0.59886  0.78377  0.17055  1.0000
  H   H950      1.0  0.62482  0.80806  0.43649  1.0000
  H   H951      1.0  0.35639  0.96266  0.48824  1.0000
  H   H952      1.0  0.37039  0.83348  0.42196  1.0000
  C   C607      1.0  0.62300  0.79238  0.44147  1.0000
  H   H953      1.0  0.60219  0.91752  0.31852  1.0000
  H   H954      1.0  0.61551  0.89728  0.30561  1.0000
  H   H955      1.0  0.53483  0.88141  0.35545  1.0000
  H   H956      1.0  0.49884  0.83380  0.35226  1.0000
  H   H957      1.0  0.57431  0.78624  0.18442  1.0000
  C   C608      1.0  0.59604  0.76958  0.22317  1.0000
  H   H958      1.0  0.61570  0.93584  0.35333  1.0000
  H   H959      1.0  0.39179  0.82644  0.40186  1.0000
  H   H960      1.0  0.63589  0.78471  0.43213  1.0000
  C   C609      1.0  0.47276  0.83364  0.17138  1.0000
  H   H961      1.0  0.38216  0.84818  0.36324  1.0000
  S   S247      1.0  0.45288  0.83666  0.50957  1.0000
  H   H962      1.0  0.50063  0.84925  0.39580  1.0000
  C   C610      1.0  0.38557  0.83716  0.41603  1.0000
  H   H963      1.0  0.38578  0.86984  0.44172  1.0000
  C   C611      1.0  0.58200  0.80116  0.23083  1.0000
  H   H964      1.0  0.46182  0.80335  0.20601  1.0000
  H   H965      1.0  0.39560  0.76929  0.50242  1.0000
  H   H966      1.0  0.62565  0.78954  0.19945  1.0000
  S   S248      1.0  0.54862  0.89131  0.50107  1.0000
  H   H967      1.0  0.43571  0.84623  0.17540  1.0000
  C   C612      1.0  0.39681  0.77178  0.26988  1.0000
  H   H968      1.0  0.37628  0.93849  0.46300  1.0000
  C   C613      1.0  0.37638  0.85874  0.37795  1.0000
  C   C614      1.0  0.50524  0.84676  0.34107  1.0000
  S   S249      1.0  0.44450  0.88304  0.49126  1.0000
  C   C615      1.0  0.43962  0.83371  0.18965  1.0000
  H   H969      1.0  0.66059  0.86891  0.27432  1.0000
  H   H970      1.0  0.51415  0.87905  0.48123  1.0000
  C   C616      1.0  0.53380  0.84294  0.36622  1.0000
  H   H971      1.0  0.66207  0.93117  0.48608  1.0000
  N   N63       1.0  0.59550  0.79006  0.21282  1.0000
  H   H972      1.0  0.41571  0.86032  0.41456  1.0000
  H   H973      1.0  0.63696  0.93967  0.33073  1.0000
  S   S250      1.0  0.39322  0.90166  0.47935  1.0000
  H   H974      1.0  0.48816  0.83381  0.17598  1.0000
  C   C617      1.0  0.50648  0.86200  0.38335  1.0000
  H   H975      1.0  0.42950  0.83409  0.20824  1.0000
  H   H976      1.0  0.49309  0.85655  0.33449  1.0000
  H   H977      1.0  0.65118  0.78599  0.47605  1.0000
  H   H978      1.0  0.62800  0.89596  0.37791  1.0000
  H   H979      1.0  0.60570  0.76183  0.46794  1.0000
  H   H980      1.0  0.54317  0.84954  0.38000  1.0000
  H   H981      1.0  0.45878  0.86489  0.19729  1.0000
  H   H982      1.0  0.54315  0.83895  0.34797  1.0000
  H   H983      1.0  0.43678  0.82033  0.17997  1.0000
  C   C618      1.0  0.37265  0.93572  0.48473  1.0000
  S   S251      1.0  0.60475  0.88778  0.50100  1.0000
  H   H984      1.0  0.47803  0.85280  0.21494  1.0000
  C   C619      1.0  0.40730  0.86129  0.39611  1.0000
  N   N64       1.0  0.38687  0.85700  0.40316  1.0000
  H   H985      1.0  0.40888  0.87599  0.38585  1.0000
  H   H986      1.0  0.37751  0.87330  0.36703  1.0000
  C   C620      1.0  0.67590  0.92966  0.49614  1.0000
  C   C621      1.0  0.66366  0.91598  0.25127  1.0000
  H   H987      1.0  0.37918  0.88589  0.41347  1.0000
  S   S252      1.0  0.58252  0.84706  0.50559  1.0000
  C   C622      1.0  0.66659  0.88292  0.26971  1.0000
  H   H988      1.0  0.56734  0.79529  0.23291  1.0000
  C   C623      1.0  0.35003  0.88466  0.28948  1.0000
  H   H989      1.0  0.35379  0.94108  0.33437  1.0000
  H   H990      1.0  0.58832  0.80720  0.17642  1.0000
  H   H991      1.0  0.62022  0.79664  0.23355  1.0000
  C   C624      1.0  0.37917  0.91846  0.49836  1.0000
  H   H992      1.0  0.48224  0.87180  0.50395  1.0000
  C   C625      1.0  0.58897  0.79188  0.18477  1.0000
  H   H993      1.0  0.60469  0.81409  0.47882  1.0000
  H   H994      1.0  0.60188  0.76768  0.24362  1.0000
  H   H995      1.0  0.60476  0.90246  0.36558  1.0000
  H   H996      1.0  0.43332  0.76633  0.33903  1.0000
  H   H997      1.0  0.35096  0.91790  0.23461  1.0000
  H   H998      1.0  0.41428  0.85094  0.38209  1.0000
  H   H999      1.0  0.44108  0.92441  0.50327  1.0000
  C   C626      1.0  0.58271  0.76236  0.29724  1.0000
  H   H1000     1.0  0.61023  0.78836  0.43123  1.0000
  H   H1001     1.0  0.42856  0.76284  0.38909  1.0000
  H   H1002     1.0  0.61654  0.76286  0.49965  1.0000
  H   H1003     1.0  0.54801  0.82754  0.53809  1.0000
  S   S253      1.0  0.46649  0.87390  0.55997  1.0000
  C   C627      1.0  0.50165  0.82670  0.56506  1.0000
  C   C628      1.0  0.50435  0.88373  0.55922  1.0000
  C   C629      1.0  0.52755  0.80335  0.57304  1.0000
  H   H1004     1.0  0.52648  0.85128  0.58118  1.0000
  H   H1005     1.0  0.40265  0.94387  0.55081  1.0000
  S   S254      1.0  0.41459  0.86050  0.53720  1.0000
  H   H1006     1.0  0.41528  0.90540  0.52842  1.0000
  Fe  Fe124     1.0  0.61319  0.87958  0.54366  1.0000
  C   C630      1.0  0.41539  0.94313  0.53572  1.0000
  S   S255      1.0  0.63343  0.89784  0.56393  1.0000
  Fe  Fe125     1.0  0.59249  0.84133  0.54776  1.0000
  C   C631      1.0  0.53208  0.82965  0.53836  1.0000
  S   S256      1.0  0.58098  0.81345  0.56826  1.0000
  H   H1007     1.0  0.52897  0.84513  0.53236  1.0000
  C   C632      1.0  0.48949  0.87855  0.54387  1.0000
  C   C633      1.0  0.52285  0.88695  0.54649  1.0000
  S   S257      1.0  0.58333  0.87100  0.56035  1.0000
  C   C634      1.0  0.59372  0.79145  0.56276  1.0000
  C   C635      1.0  0.61384  0.79035  0.55984  1.0000
  C   C636      1.0  0.58350  0.77466  0.56170  1.0000
  H   H1008     1.0  0.62187  0.80313  0.56101  1.0000
  C   C637      1.0  0.35642  0.94601  0.52702  1.0000
  C   C638      1.0  0.43168  0.78170  0.53948  1.0000
  H   H1009     1.0  0.61303  0.92611  0.52814  1.0000
  H   H1010     1.0  0.56796  0.77529  0.56415  1.0000
  Fe  Fe126     1.0  0.67179  0.00226  0.53606  1.0000
  H   H1011     1.0  0.49750  0.84196  0.55957  1.0000
  H   H1012     1.0  0.45363  0.94102  0.52083  1.0000
  C   C639      1.0  0.42055  0.90924  0.54802  1.0000
  H   H1013     1.0  0.50157  0.88528  0.58092  1.0000
  C   C640      1.0  0.36296  0.92873  0.54066  1.0000
  C   C641      1.0  0.43681  0.93236  0.57088  1.0000
  H   H1014     1.0  0.43086  0.89753  0.55496  1.0000
  C   C642      1.0  0.49329  0.87639  0.51589  1.0000
  N   N65       1.0  0.52276  0.82385  0.56566  1.0000
  H   H1015     1.0  0.49585  0.81806  0.54968  1.0000
  S   S258      1.0  0.64339  0.98768  0.53421  1.0000
  C   C643      1.0  0.64083  0.96268  0.54266  1.0000
  H   H1016     1.0  0.66375  0.95938  0.56990  1.0000
  C   C644      1.0  0.62414  0.93328  0.53718  1.0000
  C   C645      1.0  0.63588  0.92282  0.55543  1.0000
  C   C646      1.0  0.65014  0.93241  0.56717  1.0000
  C   C647      1.0  0.65276  0.95220  0.56061  1.0000
  H   H1017     1.0  0.49411  0.82264  0.58536  1.0000
  H   H1018     1.0  0.43771  0.79420  0.54673  1.0000
  Fe  Fe127     1.0  0.57570  0.87710  0.51684  1.0000
  H   H1019     1.0  0.53423  0.89120  0.55829  1.0000
  H   H1020     1.0  0.54570  0.83391  0.58704  1.0000
  H   H1021     1.0  0.37872  0.90153  0.53701  1.0000
  H   H1022     1.0  0.42485  0.93294  0.58720  1.0000
  C   C648      1.0  0.37426  0.91498  0.52642  1.0000
  H   H1023     1.0  0.52063  0.79847  0.59344  1.0000
  S   S259      1.0  0.62296  0.84910  0.53525  1.0000
  Fe  Fe128     1.0  0.44671  0.86417  0.53003  1.0000
  H   H1024     1.0  0.54333  0.80073  0.57413  1.0000
  H   H1025     1.0  0.35898  0.92585  0.56229  1.0000
  H   H1026     1.0  0.65922  0.92446  0.58143  1.0000
  H   H1027     1.0  0.52280  0.79400  0.55772  1.0000
  C   C649      1.0  0.62650  0.95315  0.53105  1.0000
  H   H1028     1.0  0.52313  0.83179  0.60707  1.0000
  N   N66       1.0  0.42969  0.92803  0.54454  1.0000
  H   H1029     1.0  0.52703  0.82123  0.52220  1.0000
  C   C650      1.0  0.62362  0.77254  0.55629  1.0000
  C   C651      1.0  0.52978  0.83571  0.58618  1.0000
  H   H1030     1.0  0.44761  0.92112  0.57796  1.0000
  H   H1031     1.0  0.40799  0.90931  0.56342  1.0000
  H   H1032     1.0  0.44385  0.94644  0.56908  1.0000
  H   H1033     1.0  0.63920  0.77172  0.55458  1.0000
  C   C652      1.0  0.52636  0.88547  0.51827  1.0000
  H   H1034     1.0  0.45681  0.91557  0.52921  1.0000
  C   C653      1.0  0.41579  0.78399  0.52361  1.0000
  C   C654      1.0  0.44603  0.92725  0.52356  1.0000
  H   H1035     1.0  0.61715  0.96113  0.51721  1.0000
  H   H1036     1.0  0.67219  0.92970  0.51857  1.0000
  S   S260      1.0  0.40440  0.80680  0.51642  1.0000
  H   H1037     1.0  0.42167  0.95759  0.53313  1.0000
  H   H1038     1.0  0.45114  0.76145  0.56003  1.0000
  C   C655      1.0  0.43923  0.76314  0.54704  1.0000
  C   C656      1.0  0.40793  0.76762  0.51463  1.0000
  H   H1039     1.0  0.40987  0.94028  0.51578  1.0000
  Fe  Fe129     1.0  0.42072  0.83437  0.51298  1.0000
  H   H1040     1.0  0.67598  0.96563  0.51307  1.0000
  H   H1041     1.0  0.90385  0.22560  0.08419  1.0000
  H   H1042     1.0  0.92065  0.24098  0.06487  1.0000
  H   H1043     1.0  0.72192  0.01785  0.37189  1.0000
  H   H1044     1.0  0.81045  0.02339  0.15678  1.0000
  H   H1045     1.0  0.80851  0.07389  0.12591  1.0000
  Fe  Fe130     1.0  0.84480  0.03668  0.03039  1.0000
  S   S261      1.0  0.86044  0.06029  0.04840  1.0000
  N   N67       1.0  0.93365  0.21754  0.08913  1.0000
  H   H1046     1.0  0.95084  0.20776  0.05442  1.0000
  H   H1047     1.0  0.83302  0.03274  0.16383  1.0000
  Fe  Fe131     1.0  0.95132  0.17054  0.03049  1.0000
  S   S262      1.0  0.96384  0.16736  0.07154  1.0000
  H   H1048     1.0  0.91692  0.21762  0.05396  1.0000
  C   C657      1.0  0.88336  0.09170  0.04431  1.0000
  C   C658      1.0  0.98873  0.16997  0.07355  1.0000
  C   C659      1.0  0.99614  0.16641  0.09921  1.0000
  C   C660      1.0  0.00112  0.17572  0.05074  1.0000
  H   H1049     1.0  0.98671  0.16195  0.11688  1.0000
  S   S263      1.0  0.91933  0.17678  0.02920  1.0000
  H   H1050     1.0  0.99550  0.17849  0.03081  1.0000
  H   H1051     1.0  0.81981  0.06619  0.15685  1.0000
  H   H1052     1.0  0.83221  0.01658  0.13737  1.0000
  C   C661      1.0  0.82438  0.02880  0.14713  1.0000
  H   H1053     1.0  0.95632  0.23122  0.06350  1.0000
  H   H1054     1.0  0.83826  0.06427  0.09907  1.0000
  C   C662      1.0  0.95198  0.21667  0.07196  1.0000
  H   H1055     1.0  0.84966  0.05569  0.12952  1.0000
  H   H1056     1.0  0.91528  0.19794  0.11389  1.0000
  H   H1057     1.0  0.92698  0.18838  0.08380  1.0000
  C   C663      1.0  0.81120  0.06129  0.14072  1.0000
  H   H1058     1.0  0.90088  0.11673  0.04216  1.0000
  H   H1059     1.0  0.94735  0.22393  0.12488  1.0000
  C   C664      1.0  0.92884  0.19792  0.10042  1.0000
  H   H1060     1.0  0.94054  0.19104  0.11254  1.0000
  C   C665      1.0  0.93573  0.22978  0.11184  1.0000
  N   N68       1.0  0.82127  0.04528  0.12688  1.0000
  H   H1061     1.0  0.93945  0.24468  0.10395  1.0000
  H   H1062     1.0  0.92215  0.23082  0.12519  1.0000
  H   H1063     1.0  0.79701  0.05692  0.15070  1.0000
  C   C666      1.0  0.84004  0.05159  0.11408  1.0000
  S   S264      1.0  0.81291  0.03766  0.02665  1.0000
  H   H1064     1.0  0.81635  0.02704  0.09515  1.0000
  H   H1065     1.0  0.96394  0.21000  0.08375  1.0000
  H   H1066     1.0  0.88602  0.08745  0.06540  1.0000
  C   C667      1.0  0.87147  0.08058  0.03042  1.0000
  C   C668      1.0  0.91809  0.22577  0.07235  1.0000
  H   H1067     1.0  0.80725  0.05129  0.08936  1.0000
  H   H1068     1.0  0.84777  0.04005  0.10261  1.0000
  C   C669      1.0  0.80942  0.03942  0.10551  1.0000
  H   H1069     1.0  0.79498  0.03483  0.11424  1.0000
  H   H1070     1.0  0.71671  0.01948  0.42237  1.0000
  C   C670      1.0  0.89184  0.10831  0.03117  1.0000
  H   H1071     1.0  0.75832  0.02498  0.02727  1.0000
  C   C671      1.0  0.93820  0.24861  0.01314  1.0000
  S   S265      1.0  0.67949  0.02141  0.49813  1.0000
  H   H1072     1.0  0.94696  0.23547  0.01487  1.0000
  H   H1073     1.0  0.68638  0.17762  0.48613  1.0000
  C   C672      1.0  0.67832  0.14175  0.50710  1.0000
  H   H1074     1.0  0.69236  0.14202  0.49471  1.0000
  H   H1075     1.0  0.95378  0.21308  0.75649  1.0000
  C   C673      1.0  0.84331  0.09121  0.81899  1.0000
  H   H1076     1.0  0.68009  0.03882  0.68008  1.0000
  Fe  Fe132     1.0  0.76308  0.06213  0.73337  1.0000
  S   S266      1.0  0.75030  0.09150  0.74122  1.0000
  S   S267      1.0  0.76330  0.05773  0.68723  1.0000
  Fe  Fe133     1.0  0.77065  0.05406  0.79546  1.0000
  S   S268      1.0  0.75702  0.08248  0.80645  1.0000
  S   S269      1.0  0.78635  0.03338  0.82627  1.0000
  Fe  Fe134     1.0  0.73443  0.07703  0.77784  1.0000
  S   S270      1.0  0.70196  0.08183  0.77914  1.0000
  Fe  Fe135     1.0  0.77411  0.09441  0.76862  1.0000
  S   S271      1.0  0.78825  0.12265  0.77238  1.0000
  S   S272      1.0  0.74644  0.04733  0.76958  1.0000
  S   S273      1.0  0.78858  0.06637  0.75821  1.0000
  H   H1077     1.0  0.72438  0.04609  0.71563  1.0000
  N   N69       1.0  0.97626  0.11895  0.81831  1.0000
  H   H1078     1.0  0.86309  0.16590  0.96118  1.0000
  H   H1079     1.0  0.88758  0.17238  0.95913  1.0000
  Fe  Fe136     1.0  0.95845  0.17160  0.96987  1.0000
  S   S274      1.0  0.97812  0.16969  0.93172  1.0000
  Fe  Fe137     1.0  0.89565  0.15390  0.76549  1.0000
  S   S275      1.0  0.88445  0.16939  0.80200  1.0000
  S   S276      1.0  0.87856  0.13191  0.74685  1.0000
  Fe  Fe138     1.0  0.93611  0.17101  0.76522  1.0000
  S   S277      1.0  0.92761  0.18737  0.80189  1.0000
  S   S278      1.0  0.96598  0.17362  0.74372  1.0000
  Fe  Fe139     1.0  0.91299  0.16039  0.81819  1.0000
  S   S279      1.0  0.91470  0.14462  0.85950  1.0000
  Fe  Fe140     1.0  0.90023  0.19472  0.78148  1.0000
  S   S280      1.0  0.88754  0.22487  0.77423  1.0000
  S   S281      1.0  0.92345  0.14339  0.78301  1.0000
  S   S282      1.0  0.90950  0.17987  0.74345  1.0000
  S   S283      1.0  0.89740  0.13569  0.98690  1.0000
  H   H1080     1.0  0.72672  0.17853  0.73902  1.0000
  C   C674      1.0  0.98440  0.17623  0.79118  1.0000
  C   C675      1.0  0.98637  0.17448  0.76292  1.0000
  H   H1081     1.0  0.97024  0.17783  0.80150  1.0000
  H   H1082     1.0  0.96492  0.24840  0.69740  1.0000
  C   C676      1.0  0.96308  0.16051  0.90947  1.0000
  C   C677      1.0  0.96204  0.16878  0.88268  1.0000
  C   C678      1.0  0.94745  0.16362  0.86680  1.0000
  C   C679      1.0  0.93422  0.15000  0.87757  1.0000
  C   C680      1.0  0.93612  0.14090  0.90365  1.0000
  C   C681      1.0  0.95035  0.14632  0.91972  1.0000
  H   H1083     1.0  0.97170  0.17995  0.87483  1.0000
  H   H1084     1.0  0.94621  0.17055  0.84660  1.0000
  H   H1085     1.0  0.92620  0.13004  0.91190  1.0000
  H   H1086     1.0  0.95112  0.13986  0.94041  1.0000
  C   C682      1.0  0.88828  0.11417  0.00404  1.0000
  H   H1087     1.0  0.71585  0.14759  0.72333  1.0000
  C   C683      1.0  0.75039  0.04395  0.66586  1.0000
  C   C684      1.0  0.74654  0.05176  0.63936  1.0000
  C   C685      1.0  0.73690  0.04125  0.62143  1.0000
  H   H1088     1.0  0.97479  0.22973  0.72031  1.0000
  H   H1089     1.0  0.84960  0.05610  0.84309  1.0000
  H   H1090     1.0  0.98126  0.09010  0.80634  1.0000
  H   H1091     1.0  0.75121  0.06603  0.63252  1.0000
  C   C686      1.0  0.88274  0.14763  0.92139  1.0000
  H   H1092     1.0  0.68968  0.14280  0.82282  1.0000
  C   C687      1.0  0.81336  0.12498  0.76515  1.0000
  C   C688      1.0  0.82246  0.14016  0.77541  1.0000
  C   C689      1.0  0.84242  0.14240  0.77012  1.0000
  C   C690      1.0  0.85344  0.12959  0.75422  1.0000
  C   C691      1.0  0.84431  0.11444  0.74391  1.0000
  C   C692      1.0  0.82438  0.11209  0.74941  1.0000
  H   H1093     1.0  0.81405  0.15027  0.78748  1.0000
  H   H1094     1.0  0.84922  0.15421  0.77799  1.0000
  H   H1095     1.0  0.85268  0.10456  0.73140  1.0000
  H   H1096     1.0  0.81750  0.10055  0.74097  1.0000
  C   C693      1.0  0.68984  0.10414  0.78454  1.0000
  C   C694      1.0  0.73519  0.01467  0.65597  1.0000
  H   H1097     1.0  0.96685  0.14100  0.78862  1.0000
  C   C695      1.0  0.80571  0.02046  0.90268  1.0000
  H   H1098     1.0  0.70820  0.11214  0.81465  1.0000
  H   H1099     1.0  0.87356  0.10738  0.96917  1.0000
  H   H1100     1.0  0.85905  0.07791  0.99221  1.0000
  C   C696      1.0  0.78979  0.03417  0.86197  1.0000
  H   H1101     1.0  0.70367  0.16441  0.52624  1.0000
  H   H1102     1.0  0.71568  0.06822  0.72886  1.0000
  C   C697      1.0  0.79705  0.03481  0.91839  1.0000
  C   C698      1.0  0.78479  0.04882  0.90560  1.0000
  C   C699      1.0  0.78129  0.04862  0.87761  1.0000
  N   N70       1.0  0.69507  0.05415  0.70780  1.0000
  C   C700      1.0  0.97591  0.12747  0.78978  1.0000
  H   H1103     1.0  0.94748  0.12916  0.82946  1.0000
  C   C701      1.0  0.89890  0.24404  0.78673  1.0000
  C   C702      1.0  0.92097  0.24893  0.00026  1.0000
  C   C703      1.0  0.68948  0.16325  0.53815  1.0000
  H   H1104     1.0  0.75171  0.14587  0.79045  1.0000
  H   H1105     1.0  0.74983  0.15587  0.71565  1.0000
  C   C704      1.0  0.72983  0.17056  0.75885  1.0000
  H   H1106     1.0  0.86955  0.18994  0.94865  1.0000
  H   H1107     1.0  0.00270  0.10270  0.81016  1.0000
  N   N71       1.0  0.73488  0.15007  0.75531  1.0000
  H   H1108     1.0  0.93065  0.25379  0.83264  1.0000
  H   H1109     1.0  0.71675  0.17219  0.77318  1.0000
  C   C705      1.0  0.00081  0.17548  0.80628  1.0000
  Fe  Fe141     1.0  0.92093  0.15519  0.99733  1.0000
  H   H1110     1.0  0.87237  0.13868  0.93461  1.0000
  H   H1111     1.0  0.77185  0.05954  0.86826  1.0000
  C   C706      1.0  0.80199  0.02010  0.87478  1.0000
  H   H1112     1.0  0.72651  0.14177  0.79752  1.0000
  H   H1113     1.0  0.74763  0.01887  0.69412  1.0000
  C   C707      1.0  0.87642  0.10303  0.99015  1.0000
  S   S284      1.0  0.95997  0.19438  0.99920  1.0000
  H   H1114     1.0  0.00025  0.13520  0.82723  1.0000
  C   C708      1.0  0.68524  0.13358  0.80795  1.0000
  C   C709      1.0  0.83198  0.06500  0.79605  1.0000
  H   H1115     1.0  0.80775  0.09086  0.84443  1.0000
  H   H1116     1.0  0.82514  0.04901  0.84644  1.0000
  H   H1117     1.0  0.80603  0.09317  0.80801  1.0000
  H   H1118     1.0  0.79944  0.07137  0.82743  1.0000
  Fe  Fe142     1.0  0.92823  0.19901  0.99550  1.0000
  H   H1119     1.0  0.84238  0.09902  0.83795  1.0000
  S   S285      1.0  0.95231  0.14713  0.00139  1.0000
  H   H1120     1.0  0.97701  0.14637  0.83489  1.0000
  H   H1121     1.0  0.85851  0.08599  0.81502  1.0000
  C   C710      1.0  0.98762  0.10055  0.81873  1.0000
  C   C711      1.0  0.73129  0.02249  0.62949  1.0000
  H   H1122     1.0  0.92849  0.21924  0.75945  1.0000
  H   H1123     1.0  0.84682  0.05876  0.79234  1.0000
  C   C712      1.0  0.83439  0.06167  0.84496  1.0000
  H   H1124     1.0  0.69601  0.02994  0.73771  1.0000
  Fe  Fe143     1.0  0.68654  0.04318  0.52709  1.0000
  C   C713      1.0  0.98515  0.13231  0.83507  1.0000
  C   C714      1.0  0.73890  0.14012  0.78213  1.0000
  H   H1125     1.0  0.94532  0.23574  0.76891  1.0000
  S   S286      1.0  0.71779  0.03259  0.52816  1.0000
  C   C715      1.0  0.95635  0.11552  0.82967  1.0000
  Fe  Fe144     1.0  0.81943  0.02237  0.98785  1.0000
  Fe  Fe145     1.0  0.70728  0.01366  0.56517  1.0000
  C   C716      1.0  0.96351  0.24152  0.71867  1.0000
  H   H1126     1.0  0.68652  0.17677  0.54862  1.0000
  H   H1127     1.0  0.83197  0.06853  0.86470  1.0000
  H   H1128     1.0  0.70504  0.14306  0.75731  1.0000
  H   H1129     1.0  0.73420  0.04749  0.60113  1.0000
  C   C717      1.0  0.71861  0.14113  0.74419  1.0000
  H   H1130     1.0  0.72132  0.12538  0.74288  1.0000
  H   H1131     1.0  0.82884  0.07481  0.77780  1.0000
  C   C718      1.0  0.74448  0.02532  0.67410  1.0000
  C   C719      1.0  0.00492  0.17269  0.74980  1.0000
  C   C720      1.0  0.76546  0.02082  0.00744  1.0000
  C   C721      1.0  0.69497  0.04223  0.68426  1.0000
  S   S287      1.0  0.92740  0.17817  0.96340  1.0000
  H   H1132     1.0  0.91421  0.22646  0.81662  1.0000
  S   S288      1.0  0.91222  0.22782  0.98888  1.0000
  H   H1133     1.0  0.76482  0.15497  0.74402  1.0000
  C   C722      1.0  0.89189  0.17962  0.90453  1.0000
  H   H1134     1.0  0.75649  0.13324  0.73316  1.0000
  H   H1135     1.0  0.74196  0.12445  0.78051  1.0000
  C   C723      1.0  0.75220  0.14852  0.73614  1.0000
  H   H1136     1.0  0.68877  0.08043  0.68371  1.0000
  H   H1137     1.0  0.77793  0.05998  0.91745  1.0000
  S   S289      1.0  0.85171  0.02314  0.99060  1.0000
  H   H1138     1.0  0.74175  0.17773  0.76735  1.0000
  H   H1139     1.0  0.88403  0.14212  0.90068  1.0000
  H   H1140     1.0  0.84691  0.16281  0.91823  1.0000
  H   H1141     1.0  0.85367  0.18669  0.90567  1.0000
  H   H1142     1.0  0.90616  0.17678  0.91316  1.0000
  H   H1143     1.0  0.89699  0.14504  0.93004  1.0000
  H   H1144     1.0  0.86019  0.16669  0.88554  1.0000
  H   H1145     1.0  0.96672  0.25250  0.73276  1.0000
  C   C724      1.0  0.85855  0.17126  0.90686  1.0000
  C   C725      1.0  0.69582  0.11633  0.80321  1.0000
  N   N72       1.0  0.87681  0.16826  0.92031  1.0000
  C   C726      1.0  0.87406  0.17446  0.94848  1.0000
  H   H1146     1.0  0.72155  0.06732  0.69287  1.0000
  C   C727      1.0  0.94037  0.21953  0.70649  1.0000
  H   H1147     1.0  0.98531  0.12656  0.85688  1.0000
  H   H1148     1.0  0.88845  0.19533  0.90450  1.0000
  H   H1149     1.0  0.00659  0.17137  0.72793  1.0000
  C   C728      1.0  0.91166  0.24083  0.80739  1.0000
  H   H1150     1.0  0.89368  0.17594  0.88283  1.0000
  H   H1151     1.0  0.94156  0.22559  0.68481  1.0000
  H   H1152     1.0  0.68342  0.08141  0.71996  1.0000
  H   H1153     1.0  0.67895  0.12914  0.52248  1.0000
  H   H1154     1.0  0.82186  0.05298  0.79712  1.0000
  S   S290      1.0  0.80035  0.03567  0.95411  1.0000
  H   H1155     1.0  0.98821  0.09377  0.83999  1.0000
  C   C729      1.0  0.71502  0.05915  0.71143  1.0000
  C   C730      1.0  0.80993  0.08302  0.82553  1.0000
  H   H1156     1.0  0.94908  0.10555  0.81758  1.0000
  N   N73       1.0  0.82992  0.07524  0.82139  1.0000
  H   H1157     1.0  0.99909  0.17652  0.82819  1.0000
  C   C731      1.0  0.68326  0.07201  0.70269  1.0000
  H   H1158     1.0  0.84003  0.10192  0.80178  1.0000
  H   H1159     1.0  0.95591  0.10938  0.85134  1.0000
  H   H1160     1.0  0.70182  0.04956  0.66519  1.0000
  H   H1161     1.0  0.95074  0.20693  0.70838  1.0000
  C   C732      1.0  0.86817  0.08627  0.00315  1.0000
  C   C733      1.0  0.68714  0.04328  0.73292  1.0000
  H   H1162     1.0  0.96979  0.11760  0.77628  1.0000
  N   N74       1.0  0.94408  0.23409  0.72552  1.0000
  C   C734      1.0  0.94292  0.22515  0.75385  1.0000
  H   H1163     1.0  0.69086  0.15126  0.55438  1.0000
  H   H1164     1.0  0.78112  0.01914  0.01011  1.0000
  H   H1165     1.0  0.91464  0.24480  0.72807  1.0000
  H   H1166     1.0  0.00709  0.18464  0.89161  1.0000
  H   H1167     1.0  0.68686  0.05197  0.75103  1.0000
  H   H1168     1.0  0.76354  0.03300  0.99165  1.0000
  H   H1169     1.0  0.99059  0.13109  0.78081  1.0000
  C   C735      1.0  0.92090  0.25634  0.81650  1.0000
  H   H1170     1.0  0.93000  0.25733  0.70217  1.0000
  H   H1171     1.0  0.92564  0.21396  0.71079  1.0000
  H   H1172     1.0  0.73447  0.01744  0.97929  1.0000
  C   C736      1.0  0.92948  0.25006  0.72320  1.0000
  H   H1173     1.0  0.70313  0.02831  0.68802  1.0000
  H   H1174     1.0  0.77806  0.49224  0.27579  1.0000
  H   H1175     1.0  0.80288  0.48509  0.26884  1.0000
  S   S291      1.0  0.93912  0.30246  0.03860  1.0000
  H   H1176     1.0  0.92064  0.44235  0.03738  1.0000
  H   H1177     1.0  0.95691  0.26478  0.03500  1.0000
  S   S292      1.0  0.89015  0.39208  0.05176  1.0000
  H   H1178     1.0  0.82220  0.50149  0.22987  1.0000
  H   H1179     1.0  0.95139  0.39824  0.02805  1.0000
  C   C737      1.0  0.99393  0.36637  0.02799  1.0000
  S   S293      1.0  0.93827  0.35917  0.03859  1.0000
  H   H1180     1.0  0.97790  0.42018  0.01860  1.0000
  H   H1181     1.0  0.77061  0.50539  0.21558  1.0000
  H   H1182     1.0  0.93850  0.44336  0.06147  1.0000
  C   C738      1.0  0.87687  0.45511  0.02226  1.0000
  C   C739      1.0  0.94244  0.40987  0.03753  1.0000
  C   C740      1.0  0.93262  0.28241  0.02206  1.0000
  Fe  Fe146     1.0  0.90962  0.37212  0.02636  1.0000
  C   C741      1.0  0.88394  0.41591  0.03924  1.0000
  C   C742      1.0  0.87262  0.42797  0.05617  1.0000
  C   C743      1.0  0.86891  0.44746  0.04761  1.0000
  S   S294      1.0  0.87574  0.48005  0.01272  1.0000
  H   H1183     1.0  0.86712  0.42233  0.07630  1.0000
  H   H1184     1.0  0.86074  0.45678  0.06120  1.0000
  H   H1185     1.0  0.97167  0.42980  0.05105  1.0000
  H   H1186     1.0  0.92714  0.40733  0.03455  1.0000
  H   H1187     1.0  0.80480  0.49564  0.20687  1.0000
  H   H1188     1.0  0.94410  0.40816  0.05996  1.0000
  H   H1189     1.0  0.93979  0.45872  0.03017  1.0000
  H   H1190     1.0  0.78527  0.47936  0.24614  1.0000
  Fe  Fe147     1.0  0.92990  0.33212  0.02095  1.0000
  C   C744      1.0  0.96870  0.43132  0.02901  1.0000
  C   C745      1.0  0.78961  0.49059  0.25905  1.0000
  N   N75       1.0  0.94809  0.42902  0.02540  1.0000
  S   S295      1.0  0.81810  0.48904  0.02427  1.0000
  C   C746      1.0  0.00957  0.36285  0.04438  1.0000
  S   S296      1.0  0.90001  0.34394  0.01379  1.0000
  N   N76       1.0  0.79280  0.50904  0.24270  1.0000
  C   C747      1.0  0.89078  0.42336  0.01321  1.0000
  C   C748      1.0  0.93630  0.44404  0.03920  1.0000
  C   C749      1.0  0.94384  0.26522  0.02440  1.0000
  H   H1191     1.0  0.97352  0.44565  0.02025  1.0000
  H   H1192     1.0  0.81752  0.44443  0.01431  1.0000
  C   C750      1.0  0.80842  0.50640  0.22103  1.0000
  H   H1193     1.0  0.98089  0.35862  0.03291  1.0000
  Fe  Fe148     1.0  0.84828  0.49894  0.01482  1.0000
  H   H1194     1.0  0.00840  0.35253  0.06203  1.0000
  Fe  Fe149     1.0  0.91329  0.35409  0.97258  1.0000
  S   S297      1.0  0.89650  0.35174  0.93619  1.0000
  Fe  Fe150     1.0  0.93736  0.36439  0.79933  1.0000
  S   S298      1.0  0.93806  0.37315  0.75446  1.0000
  S   S299      1.0  0.94173  0.38598  0.82959  1.0000
  Fe  Fe151     1.0  0.92986  0.32277  0.79181  1.0000
  S   S300      1.0  0.92920  0.32849  0.74618  1.0000
  S   S301      1.0  0.92937  0.29411  0.81687  1.0000
  Fe  Fe152     1.0  0.95549  0.34567  0.74956  1.0000
  S   S302      1.0  0.98097  0.34199  0.71863  1.0000
  Fe  Fe153     1.0  0.91166  0.35556  0.75569  1.0000
  S   S303      1.0  0.88674  0.37001  0.73304  1.0000
  S   S304      1.0  0.95701  0.33843  0.79450  1.0000
  S   S305      1.0  0.91018  0.34817  0.80109  1.0000
  Fe  Fe154     1.0  0.74205  0.43504  0.78559  1.0000
  S   S306      1.0  0.74451  0.46705  0.77510  1.0000
  S   S307      1.0  0.71652  0.41793  0.80466  1.0000
  Fe  Fe155     1.0  0.78542  0.42650  0.77451  1.0000
  S   S308      1.0  0.79092  0.45759  0.76238  1.0000
  S   S309      1.0  0.80575  0.40092  0.78580  1.0000
  Fe  Fe156     1.0  0.77124  0.46452  0.79932  1.0000
  S   S310      1.0  0.78212  0.48725  0.82575  1.0000
  Fe  Fe157     1.0  0.76399  0.45822  0.73886  1.0000
  S   S311      1.0  0.76581  0.47147  0.69394  1.0000
  S   S312      1.0  0.76704  0.43352  0.81231  1.0000
  S   S313      1.0  0.76015  0.42631  0.74846  1.0000
  C   C751      1.0  0.79940  0.50265  0.89903  1.0000
  H   H1195     1.0  0.90118  0.30867  0.93483  1.0000
  C   C752      1.0  0.68529  0.45021  0.58524  1.0000
  C   C753      1.0  0.79622  0.50198  0.87093  1.0000
  N   N77       1.0  0.83053  0.44112  0.97371  1.0000
  C   C754      1.0  0.00505  0.34885  0.71972  1.0000
  C   C755      1.0  0.78631  0.48687  0.86157  1.0000
  H   H1196     1.0  0.89373  0.44871  0.98527  1.0000
  H   H1197     1.0  0.83694  0.43758  0.93085  1.0000
  C   C756      1.0  0.79244  0.48834  0.91848  1.0000
  H   H1198     1.0  0.92549  0.33017  0.88755  1.0000
  H   H1199     1.0  0.77174  0.47702  0.63512  1.0000
  H   H1200     1.0  0.76978  0.49762  0.76977  1.0000
  H   H1201     1.0  0.73175  0.46369  0.58228  1.0000
  C   C757      1.0  0.68476  0.39640  0.80179  1.0000
  H   H1202     1.0  0.90936  0.27194  0.90554  1.0000
  C   C758      1.0  0.75062  0.48222  0.66839  1.0000
  C   C759      1.0  0.75761  0.48325  0.64059  1.0000
  C   C760      1.0  0.89542  0.26283  0.77527  1.0000
  H   H1203     1.0  0.91749  0.31685  0.86117  1.0000
  C   C761      1.0  0.93993  0.29419  0.89412  1.0000
  C   C762      1.0  0.86456  0.37894  0.74837  1.0000
  C   C763      1.0  0.85375  0.39329  0.73380  1.0000
  C   C764      1.0  0.83594  0.40057  0.74513  1.0000
  C   C765      1.0  0.82856  0.39325  0.77098  1.0000
  C   C766      1.0  0.83939  0.37893  0.78555  1.0000
  C   C767      1.0  0.85734  0.37191  0.77445  1.0000
  H   H1204     1.0  0.85914  0.39870  0.71351  1.0000
  H   H1205     1.0  0.82771  0.41146  0.73356  1.0000
  H   H1206     1.0  0.83378  0.37308  0.80550  1.0000
  H   H1207     1.0  0.86535  0.36069  0.78574  1.0000
  H   H1208     1.0  0.77194  0.46069  0.87435  1.0000
  C   C768      1.0  0.77969  0.47236  0.88095  1.0000
  N   N78       1.0  0.91969  0.30066  0.90012  1.0000
  C   C769      1.0  0.89924  0.39954  0.78496  1.0000
  H   H1209     1.0  0.95344  0.41940  0.98487  1.0000
  H   H1210     1.0  0.85670  0.42374  0.96886  1.0000
  C   C770      1.0  0.90495  0.27830  0.78401  1.0000
  C   C771      1.0  0.91765  0.27507  0.80472  1.0000
  C   C772      1.0  0.72160  0.50012  0.65418  1.0000
  H   H1211     1.0  0.69660  0.47509  0.61937  1.0000
  H   H1212     1.0  0.71840  0.45654  0.55502  1.0000
  H   H1213     1.0  0.90224  0.29275  0.77501  1.0000
  C   C773      1.0  0.78262  0.47318  0.90909  1.0000
  H   H1214     1.0  0.95003  0.30511  0.89903  1.0000
  C   C774      1.0  0.90810  0.36393  0.90766  1.0000
  C   C775      1.0  0.89927  0.36586  0.88294  1.0000
  C   C776      1.0  0.90940  0.37341  0.85912  1.0000
  C   C777      1.0  0.92829  0.37909  0.85999  1.0000
  C   C778      1.0  0.93677  0.37813  0.88499  1.0000
  C   C779      1.0  0.92670  0.37040  0.90887  1.0000
  H   H1215     1.0  0.88484  0.36097  0.88206  1.0000
  H   H1216     1.0  0.90259  0.37468  0.84006  1.0000
  H   H1217     1.0  0.95138  0.38258  0.88569  1.0000
  H   H1218     1.0  0.93360  0.36888  0.92794  1.0000
  H   H1219     1.0  0.94288  0.29174  0.87201  1.0000
  C   C780      1.0  0.69477  0.41520  0.76006  1.0000
  C   C781      1.0  0.69758  0.40929  0.78739  1.0000
  C   C782      1.0  0.70291  0.46016  0.62183  1.0000
  C   C783      1.0  0.91638  0.30391  0.92954  1.0000
  H   H1220     1.0  0.70449  0.42512  0.74875  1.0000
  H   H1221     1.0  0.83622  0.41090  0.98381  1.0000
  C   C784      1.0  0.84086  0.45921  0.97252  1.0000
  N   N79       1.0  0.70461  0.45113  0.59549  1.0000
  N   N80       1.0  0.75484  0.36975  0.80632  1.0000
  C   C785      1.0  0.75492  0.38002  0.77882  1.0000
  C   C786      1.0  0.77007  0.35431  0.80623  1.0000
  C   C787      1.0  0.73580  0.36145  0.81346  1.0000
  C   C788      1.0  0.75859  0.38334  0.82670  1.0000
  H   H1222     1.0  0.74354  0.39171  0.77809  1.0000
  H   H1223     1.0  0.75225  0.37021  0.76287  1.0000
  H   H1224     1.0  0.76902  0.38662  0.77284  1.0000
  H   H1225     1.0  0.77054  0.34627  0.82669  1.0000
  H   H1226     1.0  0.76778  0.34381  0.79101  1.0000
  H   H1227     1.0  0.78456  0.36034  0.80079  1.0000
  H   H1228     1.0  0.73513  0.35359  0.83412  1.0000
  H   H1229     1.0  0.73239  0.35123  0.79840  1.0000
  H   H1230     1.0  0.72411  0.37292  0.81363  1.0000
  H   H1231     1.0  0.77281  0.38995  0.82189  1.0000
  H   H1232     1.0  0.75861  0.37610  0.84771  1.0000
  H   H1233     1.0  0.74746  0.39526  0.82723  1.0000
  C   C789      1.0  0.90679  0.28580  0.89325  1.0000
  H   H1234     1.0  0.68210  0.42045  0.52438  1.0000
  H   H1235     1.0  0.72669  0.49003  0.69611  1.0000
  C   C790      1.0  0.78960  0.50929  0.72265  1.0000
  H   H1236     1.0  0.69360  0.45188  0.63756  1.0000
  C   C791      1.0  0.84344  0.42486  0.98287  1.0000
  S   S314      1.0  0.72507  0.50008  0.51890  1.0000
  H   H1237     1.0  0.81457  0.45036  0.93893  1.0000
  H   H1238     1.0  0.68680  0.39176  0.82297  1.0000
  H   H1239     1.0  0.86676  0.43695  0.79117  1.0000
  C   C792      1.0  0.71702  0.46272  0.57534  1.0000
  H   H1240     1.0  0.00419  0.35355  0.76268  1.0000
  H   H1241     1.0  0.94347  0.28048  0.90621  1.0000
  H   H1242     1.0  0.88544  0.26541  0.75940  1.0000
  H   H1243     1.0  0.92556  0.31539  0.93525  1.0000
  C   C793      1.0  0.91564  0.31879  0.88349  1.0000
  S   S315      1.0  0.92115  0.38276  0.98443  1.0000
  H   H1244     1.0  0.77700  0.46206  0.92375  1.0000
  H   H1245     1.0  0.92960  0.42910  0.99230  1.0000
  H   H1246     1.0  0.89889  0.41418  0.99960  1.0000
  H   H1247     1.0  0.91378  0.39563  0.79192  1.0000
  Fe  Fe158     1.0  0.69474  0.49229  0.51211  1.0000
  H   H1248     1.0  0.88963  0.38779  0.79297  1.0000
  S   S316      1.0  0.97628  0.38415  0.98375  1.0000
  C   C794      1.0  0.73235  0.49055  0.67495  1.0000
  H   H1249     1.0  0.70771  0.50680  0.65976  1.0000
  H   H1250     1.0  0.81652  0.42476  0.94624  1.0000
  H   H1251     1.0  0.88153  0.40594  0.83390  1.0000
  H   H1252     1.0  0.88585  0.43121  0.83250  1.0000
  H   H1253     1.0  0.71724  0.46104  0.63015  1.0000
  H   H1254     1.0  0.90033  0.39974  0.76220  1.0000
  C   C795      1.0  0.71324  0.43148  0.59950  1.0000
  H   H1255     1.0  0.89139  0.29035  0.89724  1.0000
  C   C796      1.0  0.72865  0.50122  0.62640  1.0000
  H   H1256     1.0  0.83197  0.47168  0.96432  1.0000
  H   H1257     1.0  0.72779  0.43165  0.60739  1.0000
  S   S317      1.0  0.94250  0.34039  0.97845  1.0000
  C   C797      1.0  0.89123  0.41732  0.82460  1.0000
  H   H1258     1.0  0.71100  0.47768  0.57206  1.0000
  C   C798      1.0  0.82439  0.43827  0.94621  1.0000
  N   N81       1.0  0.89206  0.41826  0.79435  1.0000
  H   H1259     1.0  0.92016  0.43005  0.78945  1.0000
  C   C799      1.0  0.74667  0.49244  0.61974  1.0000
  H   H1260     1.0  0.79024  0.49336  0.72657  1.0000
  H   H1261     1.0  0.86226  0.41174  0.79352  1.0000
  H   H1262     1.0  0.90048  0.44767  0.78954  1.0000
  H   H1263     1.0  0.90064  0.32438  0.88807  1.0000
  H   H1264     1.0  0.90903  0.28297  0.87118  1.0000
  S   S318      1.0  0.79525  0.48864  0.95461  1.0000
  H   H1265     1.0  0.90574  0.41386  0.83227  1.0000
  H   H1266     1.0  0.70415  0.42227  0.61439  1.0000
  C   C800      1.0  0.90531  0.43328  0.78284  1.0000
  H   H1267     1.0  0.91957  0.29063  0.94283  1.0000
  H   H1268     1.0  0.71487  0.42438  0.57987  1.0000
  H   H1269     1.0  0.90634  0.43423  0.76002  1.0000
  H   H1270     1.0  0.87268  0.42299  0.76219  1.0000
  C   C801      1.0  0.87260  0.42275  0.78492  1.0000
  H   H1271     1.0  0.84455  0.46244  0.99319  1.0000
  H   H1272     1.0  0.85452  0.45859  0.95929  1.0000
  H   H1273     1.0  0.80343  0.45447  0.98724  1.0000
  C   C802      1.0  0.81341  0.44223  0.99334  1.0000
  H   H1274     1.0  0.75249  0.49322  0.59864  1.0000
  Fe  Fe159     1.0  0.94907  0.36805  0.99543  1.0000
  H   H1275     1.0  0.80485  0.49729  0.77010  1.0000
  Fe  Fe160     1.0  0.81173  0.50541  0.98391  1.0000
  H   H1276     1.0  0.68596  0.44262  0.56608  1.0000
  C   C803      1.0  0.99533  0.37974  0.00522  1.0000
  H   H1277     1.0  0.80515  0.42889  0.99464  1.0000
  H   H1278     1.0  0.84813  0.42658  0.00370  1.0000
  H   H1279     1.0  0.01075  0.34512  0.67675  1.0000
  H   H1280     1.0  0.00509  0.35478  0.92540  1.0000
  S   S319      1.0  0.68166  0.50736  0.54792  1.0000
  H   H1281     1.0  0.89670  0.26662  0.98726  1.0000
  C   C804      1.0  0.91003  0.26626  0.99725  1.0000
  H   H1282     1.0  0.93159  0.26114  0.73771  1.0000
  H   H1283     1.0  0.94926  0.44493  0.98593  1.0000
  H   H1284     1.0  0.00895  0.37499  0.94420  1.0000
  C   C805      1.0  0.67907  0.40858  0.74748  1.0000
  C   C806      1.0  0.88761  0.44292  0.00498  1.0000
  C   C807      1.0  0.91592  0.28301  0.00787  1.0000
  C   C808      1.0  0.94498  0.43071  0.99584  1.0000
  H   H1285     1.0  0.90713  0.29616  0.00606  1.0000
  H   H1286     1.0  0.67881  0.46484  0.58032  1.0000
  S   S320      1.0  0.69113  0.45995  0.51210  1.0000
  S   S321      1.0  0.92156  0.64419  0.06811  1.0000
  S   S322      1.0  0.91485  0.69071  0.06770  1.0000
  Fe  Fe161     1.0  0.89706  0.66478  0.07791  1.0000
  S   S323      1.0  0.87908  0.65877  0.11748  1.0000
  H   H1287     1.0  0.81113  0.52010  0.20832  1.0000
  Fe  Fe162     1.0  0.91198  0.70129  0.23260  1.0000
  S   S324      1.0  0.92200  0.67043  0.23079  1.0000
  S   S325      1.0  0.90231  0.71899  0.19564  1.0000
  Fe  Fe163     1.0  0.92095  0.70194  0.29131  1.0000
  S   S326      1.0  0.93218  0.67123  0.29408  1.0000
  S   S327      1.0  0.92094  0.71978  0.32733  1.0000
  Fe  Fe164     1.0  0.94711  0.67879  0.25273  1.0000
  S   S328      1.0  0.97652  0.67008  0.23366  1.0000
  Fe  Fe165     1.0  0.90594  0.66590  0.27196  1.0000
  S   S329      1.0  0.88861  0.63946  0.28523  1.0000
  S   S330      1.0  0.93797  0.71002  0.25181  1.0000
  S   S331      1.0  0.89387  0.69626  0.27192  1.0000
  C   C809      1.0  0.00667  0.67126  0.05924  1.0000
  H   H1288     1.0  0.69496  0.65991  0.23824  1.0000
  C   C810      1.0  0.99638  0.67572  0.27911  1.0000
  S   S332      1.0  0.96768  0.67127  0.07063  1.0000
  H   H1289     1.0  0.88522  0.66949  0.40257  1.0000
  H   H1290     1.0  0.78402  0.56740  0.08450  1.0000
  C   C811      1.0  0.79815  0.58992  0.02274  1.0000
  S   S333      1.0  0.84333  0.52534  0.03860  1.0000
  Fe  Fe166     1.0  0.78342  0.60459  0.27000  1.0000
  S   S334      1.0  0.79746  0.57501  0.27096  1.0000
  S   S335      1.0  0.79897  0.63237  0.27207  1.0000
  Fe  Fe167     1.0  0.74410  0.59001  0.25944  1.0000
  S   S336      1.0  0.75628  0.55962  0.25804  1.0000
  S   S337      1.0  0.71135  0.59112  0.25993  1.0000
  Fe  Fe168     1.0  0.77049  0.56539  0.29610  1.0000
  S   S338      1.0  0.76646  0.54086  0.33000  1.0000
  Fe  Fe169     1.0  0.78187  0.57182  0.23285  1.0000
  S   S339      1.0  0.80152  0.56099  0.19671  1.0000
  S   S340      1.0  0.75768  0.59538  0.29802  1.0000
  S   S341      1.0  0.76862  0.60187  0.23125  1.0000
  C   C812      1.0  0.79559  0.53309  0.11508  1.0000
  H   H1291     1.0  0.95285  0.64113  0.16039  1.0000
  H   H1292     1.0  0.82731  0.60053  0.16826  1.0000
  C   C813      1.0  0.79853  0.55063  0.16513  1.0000
  C   C814      1.0  0.78062  0.54543  0.15764  1.0000
  C   C815      1.0  0.77921  0.53666  0.13290  1.0000
  H   H1293     1.0  0.94104  0.68532  0.11612  1.0000
  H   H1294     1.0  0.97087  0.61499  0.04171  1.0000
  H   H1295     1.0  0.76782  0.54809  0.17089  1.0000
  H   H1296     1.0  0.70832  0.60094  0.31637  1.0000
  C   C816      1.0  0.74473  0.54284  0.42173  1.0000
  C   C817      1.0  0.74198  0.52675  0.40736  1.0000
  C   C818      1.0  0.74863  0.52641  0.37940  1.0000
  C   C819      1.0  0.75773  0.54226  0.36515  1.0000
  C   C820      1.0  0.75993  0.55857  0.37929  1.0000
  C   C821      1.0  0.75370  0.55874  0.40737  1.0000
  S   S342      1.0  0.73803  0.54378  0.45759  1.0000
  H   H1297     1.0  0.81052  0.59863  0.01415  1.0000
  H   H1298     1.0  0.76272  0.51756  0.24563  1.0000
  C   C822      1.0  0.86378  0.63773  0.28077  1.0000
  C   C823      1.0  0.85230  0.65376  0.27246  1.0000
  C   C824      1.0  0.83247  0.65188  0.27004  1.0000
  C   C825      1.0  0.82397  0.63395  0.27549  1.0000
  C   C826      1.0  0.83552  0.61787  0.28342  1.0000
  C   C827      1.0  0.85529  0.61981  0.28627  1.0000
  H   H1299     1.0  0.85862  0.66765  0.26814  1.0000
  H   H1300     1.0  0.82363  0.66441  0.26391  1.0000
  H   H1301     1.0  0.82916  0.60401  0.28784  1.0000
  H   H1302     1.0  0.86405  0.60734  0.29282  1.0000
  Fe  Fe170     1.0  0.93847  0.67008  0.05392  1.0000
  C   C828      1.0  0.99744  0.67107  0.25182  1.0000
  C   C829      1.0  0.86995  0.65084  0.36374  1.0000
  H   H1303     1.0  0.74687  0.51366  0.36886  1.0000
  H   H1304     1.0  0.98253  0.67888  0.28959  1.0000
  H   H1305     1.0  0.94178  0.65955  0.11839  1.0000
  C   C830      1.0  0.91144  0.74320  0.31986  1.0000
  H   H1306     1.0  0.85220  0.61338  0.22808  1.0000
  H   H1307     1.0  0.88716  0.73384  0.30053  1.0000
  H   H1308     1.0  0.69406  0.57879  0.38644  1.0000
  C   C831      1.0  0.88229  0.67657  0.13960  1.0000
  C   C832      1.0  0.88651  0.69527  0.12915  1.0000
  C   C833      1.0  0.89178  0.70871  0.14664  1.0000
  C   C834      1.0  0.89258  0.70347  0.17461  1.0000
  C   C835      1.0  0.88708  0.68520  0.18532  1.0000
  C   C836      1.0  0.88203  0.67170  0.16780  1.0000
  H   H1309     1.0  0.88579  0.69931  0.10756  1.0000
  H   H1310     1.0  0.89576  0.72292  0.13840  1.0000
  H   H1311     1.0  0.88695  0.68137  0.20708  1.0000
  H   H1312     1.0  0.87869  0.65731  0.17599  1.0000
  H   H1313     1.0  0.81149  0.51884  0.27123  1.0000
  H   H1314     1.0  0.92365  0.67237  0.13844  1.0000
  C   C837      1.0  0.70270  0.63007  0.24878  1.0000
  C   C838      1.0  0.69595  0.61201  0.25822  1.0000
  H   H1315     1.0  0.86498  0.68344  0.38993  1.0000
  H   H1316     1.0  0.82949  0.63547  0.15283  1.0000
  H   H1317     1.0  0.71784  0.63166  0.24281  1.0000
  C   C839      1.0  0.70575  0.57097  0.37462  1.0000
  H   H1318     1.0  0.95021  0.70255  0.15547  1.0000
  H   H1319     1.0  0.84073  0.65120  0.17347  1.0000
  H   H1320     1.0  0.95691  0.68896  0.18625  1.0000
  N   N82       1.0  0.79983  0.58387  0.05204  1.0000
  H   H1321     1.0  0.90789  0.65260  0.37059  1.0000
  C   C840      1.0  0.90215  0.66199  0.35344  1.0000
  H   H1322     1.0  0.81818  0.55927  0.04368  1.0000
  H   H1323     1.0  0.71968  0.57461  0.38224  1.0000
  Fe  Fe171     1.0  0.71885  0.52672  0.49064  1.0000
  H   H1324     1.0  0.68599  0.57484  0.31303  1.0000
  H   H1325     1.0  0.75606  0.57122  0.41820  1.0000
  H   H1326     1.0  0.69679  0.60563  0.34922  1.0000
  H   H1327     1.0  0.87579  0.67303  0.31742  1.0000
  H   H1328     1.0  0.91148  0.67465  0.34967  1.0000
  S   S343      1.0  0.79273  0.52209  0.08397  1.0000
  H   H1329     1.0  0.90786  0.74073  0.08923  1.0000
  H   H1330     1.0  0.81244  0.61009  0.06035  1.0000
  H   H1331     1.0  0.95810  0.65384  0.18917  1.0000
  H   H1332     1.0  0.71977  0.54911  0.33523  1.0000
  Fe  Fe172     1.0  0.91125  0.64614  0.02580  1.0000
  H   H1333     1.0  0.85296  0.59899  0.17072  1.0000
  H   H1334     1.0  0.83693  0.59145  0.19970  1.0000
  H   H1335     1.0  0.85504  0.63362  0.15551  1.0000
  N   N83       1.0  0.88180  0.66802  0.35964  1.0000
  H   H1336     1.0  0.87467  0.64085  0.38098  1.0000
  H   H1337     1.0  0.72060  0.56760  0.30757  1.0000
  N   N84       1.0  0.70534  0.57596  0.34480  1.0000
  H   H1338     1.0  0.76527  0.53263  0.12747  1.0000
  H   H1339     1.0  0.85446  0.65484  0.36822  1.0000
  C   C841      1.0  0.81348  0.53847  0.12246  1.0000
  H   H1340     1.0  0.92615  0.75937  0.26822  1.0000
  H   H1341     1.0  0.93376  0.65336  0.17949  1.0000
  H   H1342     1.0  0.88392  0.69368  0.33246  1.0000
  H   H1343     1.0  0.93387  0.75698  0.33796  1.0000
  H   H1344     1.0  0.97501  0.68501  0.12736  1.0000
  H   H1345     1.0  0.87102  0.64264  0.34504  1.0000
  H   H1346     1.0  0.83075  0.58055  0.04736  1.0000
  N   N85       1.0  0.95203  0.67191  0.15302  1.0000
  C   C842      1.0  0.81790  0.57230  0.05529  1.0000
  C   C843      1.0  0.94905  0.65428  0.17134  1.0000
  C   C844      1.0  0.94774  0.68903  0.16860  1.0000
  C   C845      1.0  0.97227  0.67202  0.14159  1.0000
  H   H1347     1.0  0.70409  0.55528  0.37988  1.0000
  H   H1348     1.0  0.78663  0.52625  0.27707  1.0000
  C   C846      1.0  0.68658  0.57123  0.33551  1.0000
  C   C847      1.0  0.79825  0.52351  0.26079  1.0000
  C   C848      1.0  0.93904  0.67231  0.13054  1.0000
  C   C849      1.0  0.78329  0.57215  0.06241  1.0000
  H   H1349     1.0  0.85342  0.63848  0.21742  1.0000
  H   H1350     1.0  0.98241  0.67177  0.15813  1.0000
  H   H1351     1.0  0.72240  0.60084  0.34543  1.0000
  H   H1352     1.0  0.97601  0.65933  0.12958  1.0000
  H   H1353     1.0  0.88898  0.69164  0.38194  1.0000
  H   H1354     1.0  0.76703  0.57084  0.36886  1.0000
  H   H1355     1.0  0.80119  0.53745  0.24895  1.0000
  C   C850      1.0  0.89460  0.74604  0.30608  1.0000
  H   H1356     1.0  0.82891  0.55090  0.15283  1.0000
  H   H1357     1.0  0.88311  0.74280  0.08092  1.0000
  H   H1358     1.0  0.81965  0.56737  0.07708  1.0000
  H   H1359     1.0  0.90387  0.65371  0.33488  1.0000
  Fe  Fe173     1.0  0.90498  0.68978  0.02551  1.0000
  C   C851      1.0  0.92086  0.75915  0.32722  1.0000
  H   H1360     1.0  0.85981  0.68582  0.34055  1.0000
  C   C852      1.0  0.87503  0.68072  0.33651  1.0000
  H   H1361     1.0  0.93246  0.68967  0.17689  1.0000
  C   C853      1.0  0.88014  0.67859  0.38467  1.0000
  C   C854      1.0  0.98862  0.67291  0.04826  1.0000
  S   S344      1.0  0.68938  0.51783  0.48193  1.0000
  C   C855      1.0  0.83894  0.60242  0.18204  1.0000
  H   H1362     1.0  0.78299  0.55887  0.05129  1.0000
  H   H1363     1.0  0.91440  0.74891  0.22665  1.0000
  C   C856      1.0  0.77491  0.51571  0.22992  1.0000
  C   C857      1.0  0.81492  0.54708  0.14732  1.0000
  N   N86       1.0  0.83824  0.62211  0.19123  1.0000
  C   C858      1.0  0.81934  0.62596  0.20596  1.0000
  C   C859      1.0  0.85370  0.62386  0.20979  1.0000
  C   C860      1.0  0.84095  0.63619  0.16723  1.0000
  H   H1364     1.0  0.80728  0.62506  0.19259  1.0000
  H   H1365     1.0  0.81835  0.64053  0.21385  1.0000
  H   H1366     1.0  0.81674  0.61538  0.22393  1.0000
  H   H1367     1.0  0.86821  0.62125  0.19932  1.0000
  C   C861      1.0  0.70832  0.59676  0.33876  1.0000
  H   H1368     1.0  0.82627  0.53573  0.10920  1.0000
  C   C862      1.0  0.72085  0.56488  0.33017  1.0000
  H   H1369     1.0  0.00755  0.66972  0.08121  1.0000
  H   H1370     1.0  0.78469  0.59866  0.01940  1.0000
  H   H1371     1.0  0.77671  0.52982  0.21793  1.0000
  C   C863      1.0  0.68970  0.64606  0.24618  1.0000
  H   H1372     1.0  0.76935  0.58026  0.05998  1.0000
  C   C864      1.0  0.89724  0.74979  0.07761  1.0000
  S   S345      1.0  0.88534  0.66503  0.03672  1.0000
  H   H1373     1.0  0.73520  0.56886  0.33570  1.0000
  H   H1374     1.0  0.96796  0.64011  0.03141  1.0000
  H   H1375     1.0  0.90193  0.74936  0.05555  1.0000
  H   H1376     1.0  0.78663  0.61016  0.06570  1.0000
  H   H1377     1.0  0.68393  0.55563  0.33964  1.0000
  Fe  Fe174     1.0  0.81249  0.51686  0.04507  1.0000
  H   H1378     1.0  0.94871  0.62440  0.02874  1.0000
  C   C865      1.0  0.96462  0.62547  0.02621  1.0000
  H   H1379     1.0  0.80129  0.59693  0.08992  1.0000
  H   H1380     1.0  0.73526  0.51434  0.41802  1.0000
  C   C866      1.0  0.80003  0.60104  0.06773  1.0000
  C   C867      1.0  0.98761  0.67508  0.01986  1.0000
  H   H1381     1.0  0.93831  0.74996  0.21055  1.0000
  C   C868      1.0  0.92472  0.75858  0.21451  1.0000
  S   S346      1.0  0.89224  0.71734  0.00562  1.0000
  Fe  Fe175     1.0  0.71156  0.51601  0.55429  1.0000
  H   H1382     1.0  0.76747  0.52036  0.78390  1.0000
  C   C869      1.0  0.89308  0.58446  0.00360  1.0000
  S   S347      1.0  0.83852  0.57180  0.98835  1.0000
  C   C870      1.0  0.89481  0.75653  0.99888  1.0000
  H   H1383     1.0  0.77715  0.51290  0.70996  1.0000
  H   H1384     1.0  0.87959  0.75675  0.99581  1.0000
  S   S348      1.0  0.70816  0.54351  0.52692  1.0000
  H   H1385     1.0  0.78553  0.54772  0.76135  1.0000
  H   H1386     1.0  0.69596  0.55481  0.58414  1.0000
  C   C871      1.0  0.85903  0.58387  0.99605  1.0000
  H   H1387     1.0  0.97210  0.59922  0.97074  1.0000
  C   C872      1.0  0.93418  0.75603  0.00578  1.0000
  C   C873      1.0  0.00460  0.67475  0.00250  1.0000
  C   C874      1.0  0.87672  0.57410  0.99973  1.0000
  H   H1388     1.0  0.68642  0.55092  0.63343  1.0000
  H   H1389     1.0  0.96903  0.63409  0.95692  1.0000
  H   H1390     1.0  0.99797  0.63693  0.00114  1.0000
  H   H1391     1.0  0.77475  0.54484  0.72988  1.0000
  H   H1392     1.0  0.68763  0.57964  0.58266  1.0000
  H   H1393     1.0  0.96773  0.65121  0.98240  1.0000
  H   H1394     1.0  0.94780  0.63620  0.97976  1.0000
  H   H1395     1.0  0.99952  0.62063  0.97465  1.0000
  H   H1396     1.0  0.94952  0.75576  0.00795  1.0000
  C   C875      1.0  0.78708  0.54002  0.74225  1.0000
  N   N87       1.0  0.78759  0.51895  0.74850  1.0000
  H   H1397     1.0  0.84413  0.61164  0.99423  1.0000
  H   H1398     1.0  0.67865  0.56362  0.56043  1.0000
  C   C876      1.0  0.87389  0.61419  0.00206  1.0000
  S   S349      1.0  0.84216  0.51448  0.97416  1.0000
  C   C877      1.0  0.90485  0.73882  0.00374  1.0000
  Fe  Fe176     1.0  0.83444  0.53991  0.99886  1.0000
  H   H1399     1.0  0.90684  0.57688  0.00550  1.0000
  C   C878      1.0  0.76954  0.51334  0.76423  1.0000
  H   H1400     1.0  0.80294  0.51332  0.71000  1.0000
  H   H1401     1.0  0.00380  0.67611  0.98051  1.0000
  H   H1402     1.0  0.81800  0.51723  0.75399  1.0000
  H   H1403     1.0  0.80050  0.54478  0.73039  1.0000
  C   C879      1.0  0.80407  0.51314  0.76500  1.0000
  H   H1404     1.0  0.80141  0.51336  0.85637  1.0000
  C   C880      1.0  0.96383  0.63647  0.97841  1.0000
  C   C881      1.0  0.92454  0.73864  0.00755  1.0000
  H   H1405     1.0  0.95068  0.60143  0.99309  1.0000
  H   H1406     1.0  0.87273  0.62967  0.00252  1.0000
  C   C882      1.0  0.89175  0.60455  0.00468  1.0000
  C   C883      1.0  0.96664  0.60251  0.99181  1.0000
  H   H1407     1.0  0.80692  0.51446  0.90569  1.0000
  C   C884      1.0  0.85768  0.60392  0.99737  1.0000
  H   H1408     1.0  0.87797  0.55868  0.99859  1.0000
  H   H1409     1.0  0.00011  0.61164  0.01001  1.0000
  H   H1410     1.0  0.80275  0.51983  0.78496  1.0000
  S   S350      1.0  0.80328  0.53220  0.00570  1.0000
  S   S351      1.0  0.71443  0.51401  0.60126  1.0000
  N   N88       1.0  0.97213  0.62180  0.99806  1.0000
  C   C885      1.0  0.99335  0.62274  0.99583  1.0000
  C   C886      1.0  0.68310  0.56467  0.58149  1.0000
  H   H1411     1.0  0.75672  0.51701  0.75236  1.0000
  S   S352      1.0  0.91290  0.61723  0.00737  1.0000
  H   H1412     1.0  0.97236  0.59108  0.00648  1.0000
  H   H1413     1.0  0.67826  0.57575  0.63261  1.0000
  H   H1414     1.0  0.97377  0.67696  0.01129  1.0000
  S   S353      1.0  0.93012  0.67088  0.01055  1.0000
  H   H1415     1.0  0.93242  0.72508  0.01123  1.0000
  Fe  Fe177     1.0  0.67914  0.53379  0.51886  1.0000
  H   H1416     1.0  0.79815  0.57726  0.01028  1.0000
  H   H1417     1.0  0.67805  0.61753  0.51241  1.0000
  H   H1418     1.0  0.68074  0.58194  0.51257  1.0000
  H   H1419     1.0  0.82423  0.97933  0.37838  1.0000
  H   H1420     1.0  0.76004  0.89790  0.29709  1.0000
  H   H1421     1.0  0.70184  0.93042  0.45234  1.0000
  S   S354      1.0  0.84364  0.00848  0.05613  1.0000
  C   C887      1.0  0.70656  0.94318  0.50143  1.0000
  H   H1422     1.0  0.75398  0.84538  0.29860  1.0000
  H   H1423     1.0  0.95580  0.78064  0.20865  1.0000
  C   C888      1.0  0.99011  0.85370  0.27288  1.0000
  Fe  Fe178     1.0  0.74852  0.96687  0.30613  1.0000
  S   S355      1.0  0.74863  0.93516  0.31678  1.0000
  S   S356      1.0  0.73833  0.98891  0.33735  1.0000
  Fe  Fe179     1.0  0.76604  0.96166  0.24640  1.0000
  S   S357      1.0  0.76672  0.92937  0.25406  1.0000
  S   S358      1.0  0.78482  0.97426  0.20886  1.0000
  Fe  Fe180     1.0  0.73714  0.93265  0.27567  1.0000
  S   S359      1.0  0.71811  0.90660  0.27701  1.0000
  Fe  Fe181     1.0  0.77791  0.93382  0.29440  1.0000
  S   S360      1.0  0.79974  0.91314  0.31435  1.0000
  S   S361      1.0  0.73532  0.96494  0.26546  1.0000
  S   S362      1.0  0.77885  0.96583  0.28647  1.0000
  S   S363      1.0  0.93621  0.82555  0.05602  1.0000
  S   S364      1.0  0.91261  0.86724  0.05720  1.0000
  Fe  Fe182     1.0  0.90641  0.83633  0.06840  1.0000
  S   S365      1.0  0.89220  0.82607  0.10918  1.0000
  H   H1424     1.0  0.81522  0.92983  0.36045  1.0000
  Fe  Fe183     1.0  0.90442  0.87163  0.27318  1.0000
  S   S366      1.0  0.90048  0.84600  0.24994  1.0000
  S   S367      1.0  0.88511  0.89797  0.26240  1.0000
  Fe  Fe184     1.0  0.94081  0.85278  0.29742  1.0000
  S   S368      1.0  0.93884  0.82550  0.27667  1.0000
  S   S369      1.0  0.96711  0.85628  0.32075  1.0000
  Fe  Fe185     1.0  0.93230  0.84539  0.24039  1.0000
  S   S370      1.0  0.94781  0.84144  0.19948  1.0000
  Fe  Fe186     1.0  0.90721  0.82843  0.28855  1.0000
  S   S371      1.0  0.88722  0.80384  0.29725  1.0000
  S   S372      1.0  0.93609  0.87254  0.26007  1.0000
  S   S373      1.0  0.90928  0.85419  0.31291  1.0000
  C   C889      1.0  0.89672  0.78071  0.30667  1.0000
  C   C890      1.0  0.78612  0.95642  0.35901  1.0000
  H   H1425     1.0  0.94638  0.89496  0.01465  1.0000
  H   H1426     1.0  0.87594  0.76308  0.12043  1.0000
  C   C891      1.0  0.94160  0.78821  0.21265  1.0000
  H   H1427     1.0  0.75393  0.98306  0.17099  1.0000
  C   C892      1.0  0.98915  0.85759  0.30044  1.0000
  H   H1428     1.0  0.90638  0.89514  0.13949  1.0000
  H   H1429     1.0  0.78850  0.89191  0.26534  1.0000
  H   H1430     1.0  0.68121  0.94583  0.44469  1.0000
  C   C893      1.0  0.90760  0.83009  0.13442  1.0000
  C   C894      1.0  0.90206  0.82546  0.16206  1.0000
  C   C895      1.0  0.91439  0.82896  0.18222  1.0000
  C   C896      1.0  0.93234  0.83673  0.17470  1.0000
  C   C897      1.0  0.93788  0.84123  0.14710  1.0000
  C   C898      1.0  0.92543  0.83816  0.12703  1.0000
  H   H1431     1.0  0.88821  0.81935  0.16785  1.0000
  H   H1432     1.0  0.91011  0.82543  0.20351  1.0000
  H   H1433     1.0  0.95169  0.84744  0.14121  1.0000
  H   H1434     1.0  0.92963  0.84228  0.10587  1.0000
  C   C899      1.0  0.86116  0.90143  0.27651  1.0000
  C   C900      1.0  0.85364  0.88983  0.29899  1.0000
  C   C901      1.0  0.83477  0.89355  0.31029  1.0000
  C   C902      1.0  0.82316  0.90867  0.29896  1.0000
  C   C903      1.0  0.83052  0.92002  0.27613  1.0000
  C   C904      1.0  0.84949  0.91650  0.26511  1.0000
  H   H1435     1.0  0.86249  0.87823  0.30801  1.0000
  H   H1436     1.0  0.82923  0.88470  0.32800  1.0000
  H   H1437     1.0  0.82173  0.93171  0.26718  1.0000
  H   H1438     1.0  0.85519  0.92558  0.24776  1.0000
  C   C905      1.0  0.69383  0.90401  0.26957  1.0000
  H   H1439     1.0  0.68880  0.93300  0.25251  1.0000
  C   C906      1.0  0.80883  0.97622  0.37700  1.0000
  C   C907      1.0  0.69419  0.94430  0.45667  1.0000
  S   S374      1.0  0.96763  0.87098  0.05143  1.0000
  H   H1440     1.0  0.69412  0.87418  0.28494  1.0000
  H   H1441     1.0  0.90084  0.76142  0.12785  1.0000
  H   H1442     1.0  0.00402  0.86468  0.18793  1.0000
  C   C908      1.0  0.72852  0.99096  0.43197  1.0000
  H   H1443     1.0  0.77788  0.84734  0.30928  1.0000
  N   N89       1.0  0.68895  0.94527  0.48626  1.0000
  C   C909      1.0  0.73415  0.98890  0.37391  1.0000
  C   C910      1.0  0.73918  0.97312  0.39179  1.0000
  C   C911      1.0  0.73670  0.97429  0.42051  1.0000
  H   H1444     1.0  0.74506  0.96007  0.38348  1.0000
  H   H1445     1.0  0.74111  0.96214  0.43400  1.0000
  H   H1446     1.0  0.00817  0.85171  0.23565  1.0000
  C   C912      1.0  0.93584  0.76941  0.25570  1.0000
  C   C913      1.0  0.76770  0.98447  0.15943  1.0000
  C   C914      1.0  0.78468  0.98059  0.17275  1.0000
  H   H1447     1.0  0.68828  0.97621  0.48266  1.0000
  H   H1448     1.0  0.77909  0.95284  0.37978  1.0000
  H   H1449     1.0  0.80227  0.97330  0.39825  1.0000
  H   H1450     1.0  0.77820  0.96931  0.34985  1.0000
  H   H1451     1.0  0.93019  0.91491  0.02201  1.0000
  H   H1452     1.0  0.88270  0.88584  0.14016  1.0000
  Fe  Fe187     1.0  0.70969  0.00906  0.50185  1.0000
  H   H1453     1.0  0.77660  0.98474  0.02421  1.0000
  S   S375      1.0  0.87287  0.97162  0.01896  1.0000
  C   C915      1.0  0.80323  0.98851  0.12885  1.0000
  C   C916      1.0  0.88417  0.93396  0.03050  1.0000
  H   H1454     1.0  0.78398  0.94422  0.34646  1.0000
  C   C917      1.0  0.72593  0.00553  0.38537  1.0000
  H   H1455     1.0  0.00622  0.88021  0.05919  1.0000
  C   C918      1.0  0.00624  0.87450  0.03936  1.0000
  C   C919      1.0  0.91371  0.77793  0.32016  1.0000
  C   C920      1.0  0.67918  0.96406  0.49088  1.0000
  C   C921      1.0  0.89014  0.76969  0.11537  1.0000
  H   H1456     1.0  0.81699  0.98967  0.11722  1.0000
  C   C922      1.0  0.00765  0.85487  0.25686  1.0000
  H   H1457     1.0  0.81422  0.95232  0.31903  1.0000
  C   C923      1.0  0.88140  0.78107  0.07007  1.0000
  H   H1458     1.0  0.72904  0.00955  0.01470  1.0000
  S   S376      1.0  0.72618  0.99155  0.46858  1.0000
  Fe  Fe188     1.0  0.81227  0.00832  0.04934  1.0000
  C   C924      1.0  0.80242  0.98265  0.15717  1.0000
  H   H1459     1.0  0.90279  0.87010  0.14849  1.0000
  C   C925      1.0  0.88663  0.91442  0.02534  1.0000
  H   H1460     1.0  0.94416  0.80130  0.22323  1.0000
  N   N90       1.0  0.89590  0.76976  0.08576  1.0000
  C   C926      1.0  0.00600  0.86240  0.31192  1.0000
  H   H1461     1.0  0.88004  0.79623  0.07573  1.0000
  H   H1462     1.0  0.80148  0.98955  0.36814  1.0000
  C   C927      1.0  0.68563  0.88596  0.27569  1.0000
  H   H1463     1.0  0.90935  0.89005  0.21497  1.0000
  N   N91       1.0  0.80679  0.95986  0.36025  1.0000
  H   H1464     1.0  0.83127  0.96686  0.33239  1.0000
  C   C928      1.0  0.78818  0.87642  0.27272  1.0000
  H   H1465     1.0  0.79784  0.87435  0.28987  1.0000
  H   H1466     1.0  0.74553  0.87863  0.31116  1.0000
  H   H1467     1.0  0.70387  0.95608  0.44871  1.0000
  H   H1468     1.0  0.83217  0.94445  0.37394  1.0000
  C   C929      1.0  0.76054  0.88238  0.30402  1.0000
  H   H1469     1.0  0.79459  0.86798  0.25578  1.0000
  H   H1470     1.0  0.76956  0.88064  0.32188  1.0000
  N   N92       1.0  0.76838  0.87068  0.28166  1.0000
  C   C930      1.0  0.81563  0.96436  0.33226  1.0000
  H   H1471     1.0  0.76143  0.86519  0.24106  1.0000
  H   H1472     1.0  0.92112  0.79021  0.32557  1.0000
  H   H1473     1.0  0.91859  0.76261  0.19448  1.0000
  C   C931      1.0  0.76872  0.85013  0.29165  1.0000
  C   C932      1.0  0.75605  0.87379  0.25837  1.0000
  H   H1474     1.0  0.74092  0.86988  0.26453  1.0000
  H   H1475     1.0  0.92196  0.89711  0.18278  1.0000
  C   C933      1.0  0.89632  0.88481  0.15074  1.0000
  H   H1476     1.0  0.75538  0.88918  0.25042  1.0000
  H   H1477     1.0  0.90292  0.79130  0.21464  1.0000
  H   H1478     1.0  0.77457  0.84086  0.27531  1.0000
  H   H1479     1.0  0.91798  0.87221  0.19236  1.0000
  C   C934      1.0  0.91135  0.88695  0.19304  1.0000
  H   H1480     1.0  0.81566  0.97957  0.16710  1.0000
  C   C935      1.0  0.81653  0.94242  0.37272  1.0000
  H   H1481     1.0  0.89416  0.91937  0.17194  1.0000
  H   H1482     1.0  0.87042  0.91021  0.17245  1.0000
  H   H1483     1.0  0.87658  0.87713  0.21597  1.0000
  S   S377      1.0  0.78650  0.00158  0.08033  1.0000
  H   H1484     1.0  0.00532  0.86553  0.33321  1.0000
  C   C936      1.0  0.88440  0.90835  0.18210  1.0000
  H   H1485     1.0  0.71669  0.95480  0.49460  1.0000
  N   N93       1.0  0.89289  0.88869  0.17991  1.0000
  H   H1486     1.0  0.71436  0.92917  0.49850  1.0000
  C   C937      1.0  0.78628  0.99282  0.11569  1.0000
  H   H1487     1.0  0.91933  0.77943  0.05764  1.0000
  H   H1488     1.0  0.88162  0.91162  0.20395  1.0000
  C   C938      1.0  0.98902  0.86862  0.03027  1.0000
  H   H1489     1.0  0.86540  0.87554  0.18452  1.0000
  C   C939      1.0  0.87948  0.87462  0.19388  1.0000
  H   H1490     1.0  0.88545  0.85964  0.19273  1.0000
  Fe  Fe189     1.0  0.94153  0.85601  0.04077  1.0000
  C   C940      1.0  0.68267  0.91907  0.25750  1.0000
  H   H1491     1.0  0.87381  0.76683  0.28985  1.0000
  H   H1492     1.0  0.97728  0.84985  0.26385  1.0000
  H   H1493     1.0  0.88886  0.78459  0.12212  1.0000
  H   H1494     1.0  0.93765  0.78182  0.26803  1.0000
  H   H1495     1.0  0.81019  0.93848  0.39382  1.0000
  C   C941      1.0  0.72293  0.00651  0.41410  1.0000
  C   C942      1.0  0.76853  0.99065  0.13118  1.0000
  H   H1496     1.0  0.75527  0.99387  0.12134  1.0000
  H   H1497     1.0  0.89528  0.90485  0.03820  1.0000
  N   N94       1.0  0.92790  0.77567  0.22923  1.0000
  Fe  Fe190     1.0  0.84872  0.99473  0.01613  1.0000
  C   C943      1.0  0.91482  0.77856  0.07996  1.0000
  H   H1498     1.0  0.89127  0.93930  0.04704  1.0000
  C   C944      1.0  0.76106  0.98720  0.02074  1.0000
  H   H1499     1.0  0.80870  0.97748  0.32220  1.0000
  H   H1500     1.0  0.75374  0.99069  0.04082  1.0000
  H   H1501     1.0  0.93611  0.79318  0.19248  1.0000
  Fe  Fe191     1.0  0.90287  0.86184  0.01620  1.0000
  H   H1502     1.0  0.88537  0.78154  0.04765  1.0000
  C   C945      1.0  0.90936  0.78640  0.23416  1.0000
  H   H1503     1.0  0.91440  0.79347  0.08652  1.0000
  S   S378      1.0  0.89426  0.83132  0.02875  1.0000
  C   C946      1.0  0.88704  0.76473  0.30007  1.0000
  H   H1504     1.0  0.91111  0.79931  0.24552  1.0000
  C   C947      1.0  0.87280  0.94671  0.01425  1.0000
  H   H1505     1.0  0.95008  0.76170  0.25284  1.0000
  H   H1506     1.0  0.75562  0.97337  0.01533  1.0000
  H   H1507     1.0  0.00015  0.89018  0.18186  1.0000
  H   H1508     1.0  0.00669  0.88703  0.13162  1.0000
  H   H1509     1.0  0.68257  0.91524  0.49236  1.0000
  H   H1510     1.0  0.86693  0.77484  0.07372  1.0000
  H   H1511     1.0  0.89867  0.77738  0.24659  1.0000
  Fe  Fe192     1.0  0.92473  0.82255  0.01531  1.0000
  H   H1512     1.0  0.92629  0.77017  0.09074  1.0000
  H   H1513     1.0  0.01085  0.86153  0.13801  1.0000
  H   H1514     1.0  0.73114  0.00013  0.66243  1.0000
  H   H1515     1.0  0.94824  0.90480  0.93906  1.0000
  H   H1516     1.0  0.97594  0.85673  0.99737  1.0000
  H   H1517     1.0  0.95634  0.88873  0.96677  1.0000
  S   S379      1.0  0.70156  0.98928  0.53940  1.0000
  C   C948      1.0  0.94414  0.89839  0.96006  1.0000
  C   C949      1.0  0.95613  0.92537  0.98060  1.0000
  H   H1518     1.0  0.89657  0.78748  0.99362  1.0000
  H   H1519     1.0  0.96875  0.91655  0.98789  1.0000
  H   H1520     1.0  0.91805  0.93644  0.98481  1.0000
  H   H1521     1.0  0.92631  0.93337  0.94974  1.0000
  H   H1522     1.0  0.85523  0.94938  0.97989  1.0000
  C   C950      1.0  0.92279  0.92556  0.97002  1.0000
  C   C951      1.0  0.92413  0.77373  0.00098  1.0000
  H   H1523     1.0  0.76319  0.98428  0.96615  1.0000
  H   H1524     1.0  0.80870  0.00884  0.86298  1.0000
  H   H1525     1.0  0.73111  0.99239  0.98910  1.0000
  S   S380      1.0  0.88395  0.88395  0.99292  1.0000
  C   C952      1.0  0.00644  0.86010  0.98788  1.0000
  S   S381      1.0  0.93244  0.85254  0.99871  1.0000
  C   C953      1.0  0.86671  0.92021  0.98715  1.0000
  H   H1526     1.0  0.86027  0.91506  0.96989  1.0000
  N   N95       1.0  0.93932  0.91340  0.97935  1.0000
  H   H1527     1.0  0.91013  0.91676  0.96788  1.0000
  C   C954      1.0  0.87839  0.90755  0.00311  1.0000
  H   H1528     1.0  0.96056  0.93249  0.96014  1.0000
  H   H1529     1.0  0.93163  0.88920  0.95861  1.0000
  C   C955      1.0  0.90436  0.77394  0.99781  1.0000
  C   C956      1.0  0.76830  0.99782  0.97307  1.0000
  C   C957      1.0  0.86376  0.93967  0.99283  1.0000
  H   H1530     1.0  0.95288  0.93684  0.99497  1.0000
  H   H1531     1.0  0.78409  0.99586  0.97500  1.0000
  C   C958      1.0  0.93421  0.90412  0.00686  1.0000
  H   H1532     1.0  0.70309  0.94405  0.52385  1.0000
  S   S382      1.0  0.93690  0.79518  0.99770  1.0000
  H   H1533     1.0  0.81511  0.00951  0.91207  1.0000
  C   C959      1.0  0.73722  0.00568  0.99541  1.0000
  C   C960      1.0  0.98914  0.86135  0.00451  1.0000
  H   H1534     1.0  0.92179  0.89474  0.00652  1.0000
  S   S383      1.0  0.71964  0.00810  0.60754  1.0000
  S   S384      1.0  0.81702  0.99289  0.01055  1.0000
  N   N96       1.0  0.75801  0.00286  0.99916  1.0000
  H   H1535     1.0  0.00648  0.85454  0.96794  1.0000
  H   H1536     1.0  0.76640  0.00942  0.95641  1.0000
