data_image0
_chemical_formula_structural       H2SHS2CHC2H3CHNC3HC3HS2FeHCSH2SFeC2FeCHSC3SH4CHCHNH3SH3CHCSFe2HCSHC3H2CFeHCH2FeS2FeS2FeSFeS3HFeS2FeSCHSHC3H2CHSHCH2NFeCHNH2NSH2NHC6H4CHCHC3H3C3H5C3HCH4CHC2H3CHFeH3SC3SH3C2H2CH2SNH3C3H5CH2CHCHCHC3H2CH2CHSCH2FeH2CH8NH3CHCH2CHCH4SH2NC2H2CH2CH4C2H4CH10SNFeSHSC2H3SFeSHFeSFeS3H3FeS2FeSFeSFeS3FeS2FeS2FeSFeS3H2CSHC2SHCH2C6H4C6H4C6H4C4H8C6H3NCHC6H2CH2C6H3C6H2NC4H12NHC2HC2HCH4NC3H9C2H2NC4H14SH3SCSNCH3Fe2SH5NH6FeCNH4CHSCHCH4CH2C2FeSH2C2FeH2CHS2HCH2CFeCH2CH3C2SH6SH3C2H2C2NCNCSHCSHC2FeSHFeC2SC3FeHCFeSNCHCHS3HFeS2C6H5C4HSH2CH2CFeHSCHC2HC2H4C7H5C5FeH2SHSHFeCHCH4SNS2H4CH2CHFeCSCH3CH2CNHNC4H14CHSH4C2H5CH2SCHSNH4CS2H4CHCHFeCSC2SCHCFeH2NHFeH3SHSCHSH2NCH6CH2SFeCH2CSFeH2CH2C5H4CNCH2CH5SH4SFeSNFeS2FeSFeS3CFeS2FeSHFeSFeS3C2SCHSHCHCHFeCH3C6FeH3C6HFeH2C2H4SCHCH2SH4CHSH2C8H4C3H2C3H5CH3CHCNH3CH3NH7C2H3C2HCSCHSH2CH3CSHSHCH2FeS2C2FeSFeS4FeS2FeS2FeSFeS3FeCFeS2FeH4FeSHSH4SH2C6H4CHC2HC3H3C3HCH4C6H3C6H4C6H6CH2NH2NH3SH3CH4NC4H12FeH3CH3CH7CHSC2H2NHSHCHSH2C3HC2H2C2H2NCH3FeH2CH7SNC5SNCHCHCH2CFeCH2SC2HSCH3NHFeHSHFeCHC2H2CHSH3CH5CH2C3HCHSHSHCH6SNFeH2CHC3HSC3HC2HCHCH6CHC2HSHFeS2FeSFeSFeS3C2FeHS2H3S2FeS2FeSHFeSFeS4HSHCH2SC7NH3C6H4C6H4C6H5C4H5SC2H2NCHC2SH4CH5CNC4H14FeHC2NHSC5FeH2FeHNC4HC2H4FeH6CH2CSHC2HFeHCHCH3CHSHC2HCHNH2C2H2SHFeH2C2HSH2CH9CH4FeSH2FeHCS2FeSHFeS2FeS2FeSFeS3FeHSCHSH5C6H4CHNH2CFeH3C6H4SNC9H4Fe2H2CHS2HCSH2NH2CH7FeC2NHCH3C2H4SH9C3H2CHCH2CHNC4H3S2HCHCHFe2C3H4C2HNH7NC2H2CHSHC2SH2SHFeSFeSH2SHS2HC8H4CHFeHCHC5H2SHCH2SHSH2FeC6H4CHSHSCSH5CNH3FeS2H8NCFeH2CH3CSH4NC4H5SFeHCHCH2CH2CFeH6FeS2FeSH2CFeSHS2H2CHC2HFeHCFeS2FeS2FeSFeS3FeS3FeSFeS3FeSFeSFeS3HSH2CHC6H4C2H2C4H2CFe2C6H4CH2C2HSH2NH7CNC6H4C6H4C5H4CH5SCH2CNCFeHNC4H12NC4H12NCH7CSHCHSHNSC2H6FeH2C3H2C2SHCHSH5NC3H2SCH2C2H4C3FeHCHCH5CS2H2CFeHC3H2CH7CHSCH3CH2CHSHNHSHNCH3CHSCH5SCH3CH2CH4SHNH2FeC4HFeS2HSHFeSFeS2H2FeS2CH3NCSHFeSHFeSH2SCH2FeS2FeS2FeSFeS3FeS2HFeSH3CH4CHCH2C4HCH2C6H4C6H6C2HC6H4CHCHCHC6H5FeH2CH6CH4CSC3HC2HNH3NC4H7CH4NC2H2CHCHCHCHCSCHNC4H6NSFeCH5NH5CHFeH2S2CH2CSCSCHCH5C2HFeH4SHSH2C3S2FeSHFeSHFeSHSHFeSFeS2FeSFeS3HSCFeSHSH6C7H4CHC3HC6H4CFeH2CHC4H4C2SC2HC2H3CHCNHCH4CSCH5CHC2SHCH3SH2C2HFe2H3C2HC2H4CH2CHSHCHNHSCNHCHNH3CSH4CNH5CH3NH6CH7FeSHC2NFeS2FeCFeSHSHFeSCFeS2FeSFeS3FeCSFeHSH2S2CHCHC5NC2HCH3CHC7H4C6H5SFeH5NH2NH2CHC2HCH3SNHNC4H20SC2H3NHSCHCH2C3SH6C2H6SH9C3H3C2HCFeS2FeS2FeCFeS3HCHSFeS2FeS2FeSFeS3FeS2FeS2FeHFeS3FeS2FeSFeSFeS3FeS2FeCSFeHCSHCHC6H4CHC6H4C6H4C6H4C7H3C6H4C6H4C3HC3H4NC4H12NC3H6NC4H12NC4H12NHCH2FeH3C2SH5NCHCH7SH3CH3CHCH5CH2C2H3N2H8CH2CH2SCH4CH4CH2C2HCNHCHC4HC3H7CSH4SCHCH2C2H2SCFeS2FeSHFeSFeSH2FeS2FeSHFeSFeSCSC5H2C6H4FeSCHCHNH2SCHC5HCHCSH2FeC6HSH2CH2CSCH4CHSHC2HSH3SH2CHSNC4H12FeHCH2SHC4H2SH4NC2HCNSHCH4CH8NCH6CHCH3FeHCHCHC2HC2H2FeS2FeS2FeSFeS3FeSHFeSFeSFeHS2FeS2CHFeCFeCS2C2HC2H4CSC6H4C6H5C4H4SHC3HCH2NH3SCHC2HC4H4CH3CHCH2NH2CH4C2HC2HC3HCSHCHCH2SCHS2HCH3CHC2H6FeH2NC4H12NC4H7CSNCH2CSH3C3HS2H3CNC2H10NH7S2FeSH2FeS2FeSHSHCH7SFeS2FeS2FeSFeS3FeS2FeS2FeSFeS3FeCSCSCSFeSFeS2C7H3C6H4C6H3C6H4C3HC6H5CFeCHC6H4NH2S2H3CN2FeC6H4C2H3CH2CH2NHCH2NH5C2NH8NC4H12NC4H6C3H3NC4H12SH3SHFeC2H4SH3CHCFeH2FeH3SHCSCH2CH4CNCHCNH6FeH3CSHC3H9CSNH2C3HCH3SCH5CH4CSCH8FeS2FeS2FeHFeS3C2SHFeS3FeSFeCFeS2FeS2FeSFeS2H2C7H4CH2C3SH3SC6H4CFeHC3SCH2C5H4C2H2C3H5SNC4NH2SH6CH9SHNC2HCHC3H2C2HCH2CH4SNH4C3H3C2H2NCHCH3CH3NH4C3HCH4CHCH3CHCHCH2C2FeSFeC2HCSHFeS2CH2CNH2SNFeCH2CH2FeCH6CHC4FeS2FeS2FeS3H3S2NHCSH2FeS2FeS2FeSFeS3FeS2FeS2FeSFeHS2HSH2C3HC2H2C6H4C2H5CHCH2FeCHCH2FeHCHC2H2CHSFeHCHC2HCHC6H7C6H4C4H2SH3C4H7S3NH3CH3C2HCH4FeCNH14CNC4H11CH4C2HC2H2CH2CHNCH7CH2CHCHCHSCH2CH2C2HNHS2H2NCNHCH2FeS2FeS2FeSFeS3FeS2FeS2FeSFeNS2C2HC3HCHC6H4FeH2SHC2H4C6H4CSH3FeHCHCNC4H12FeCFeH4CHNC4H12C2H5FeC2HFeCS2H4CH2SHSH3SH2C2H3SCHCHSHC7H5C8H2SH2FeH2SH3SHCNC2HCNHCHCHCHCHC3HCH4Fe2H2CNH5C2H2CSC2H2CFeCH2CSC2H3FeS2HCH3SC2H2FeH5CHCHC2HNHSHCHCHC2HC2HC2SH3CSCFeCH6NH7
_chemical_formula_sum              "H2304 S576 C1440 N144 Fe288"
_cell_length_a       71.3846
_cell_length_b       71.5463
_cell_length_c       71.911
_cell_angle_alpha    75.5361
_cell_angle_beta     75.6081
_cell_angle_gamma    74.8917

_space_group_name_H-M_alt    "P 1"
_space_group_IT_number       1

loop_
  _space_group_symop_operation_xyz
  'x, y, z'

loop_
  _atom_site_type_symbol
  _atom_site_label
  _atom_site_symmetry_multiplicity
  _atom_site_fract_x
  _atom_site_fract_y
  _atom_site_fract_z
  _atom_site_occupancy
  H   H1        1.0  0.29910  0.44132  0.08682  1.0000
  H   H2        1.0  0.09285  0.47851  0.16821  1.0000
  S   S1        1.0  0.13678  0.47473  0.15289  1.0000
  H   H3        1.0  0.21831  0.47356  0.14075  1.0000
  S   S2        1.0  0.32112  0.36483  0.17921  1.0000
  S   S3        1.0  0.26033  0.43221  0.10343  1.0000
  C   C1        1.0  0.20694  0.46504  0.14960  1.0000
  H   H4        1.0  0.07151  0.47504  0.16156  1.0000
  C   C2        1.0  0.16392  0.48434  0.11992  1.0000
  C   C3        1.0  0.02408  0.49145  0.21997  1.0000
  H   H5        1.0  0.20089  0.46536  0.23108  1.0000
  H   H6        1.0  0.29596  0.48410  0.15861  1.0000
  H   H7        1.0  0.32106  0.45321  0.16535  1.0000
  C   C4        1.0  0.05282  0.47035  0.20434  1.0000
  H   H8        1.0  0.20665  0.46402  0.16535  1.0000
  N   N1        1.0  0.21093  0.44530  0.14476  1.0000
  C   C5        1.0  0.01978  0.46906  0.20161  1.0000
  C   C6        1.0  0.04042  0.46251  0.19732  1.0000
  C   C7        1.0  0.08424  0.48255  0.15633  1.0000
  H   H9        1.0  0.04679  0.45128  0.18854  1.0000
  C   C8        1.0  0.25875  0.39613  0.22897  1.0000
  C   C9        1.0  0.21179  0.44745  0.12359  1.0000
  C   C10       1.0  0.28276  0.42458  0.11181  1.0000
  H   H10       1.0  0.21661  0.43290  0.11899  1.0000
  S   S4        1.0  0.26787  0.38202  0.21075  1.0000
  S   S5        1.0  0.00492  0.45913  0.19196  1.0000
  Fe  Fe1       1.0  0.30018  0.38210  0.20076  1.0000
  H   H11       1.0  0.19739  0.42016  0.15258  1.0000
  C   C11       1.0  0.30131  0.40574  0.13702  1.0000
  S   S6        1.0  0.27920  0.47466  0.06133  1.0000
  H   H12       1.0  0.28521  0.40740  0.22360  1.0000
  H   H13       1.0  0.30175  0.39592  0.15107  1.0000
  S   S7        1.0  0.31968  0.37255  0.22296  1.0000
  Fe  Fe2       1.0  0.25641  0.46318  0.08582  1.0000
  C   C12       1.0  0.29963  0.43149  0.10085  1.0000
  C   C13       1.0  0.22013  0.48508  0.99092  1.0000
  Fe  Fe3       1.0  0.25362  0.49186  0.04688  1.0000
  C   C14       1.0  0.28372  0.41152  0.12980  1.0000
  H   H14       1.0  0.28874  0.47434  0.14127  1.0000
  S   S8        1.0  0.10848  0.45947  0.20441  1.0000
  C   C15       1.0  0.19491  0.43503  0.15607  1.0000
  C   C16       1.0  0.23007  0.43373  0.14973  1.0000
  C   C17       1.0  0.31825  0.41240  0.12595  1.0000
  S   S9        1.0  0.15048  0.47002  0.20427  1.0000
  H   H15       1.0  0.27083  0.40593  0.13827  1.0000
  H   H16       1.0  0.06861  0.46513  0.20089  1.0000
  H   H17       1.0  0.19720  0.45456  0.11955  1.0000
  H   H18       1.0  0.19386  0.43303  0.17213  1.0000
  C   C18       1.0  0.29927  0.48253  0.14305  1.0000
  H   H19       1.0  0.23394  0.41899  0.14560  1.0000
  C   C19       1.0  0.24935  0.49119  0.99805  1.0000
  H   H20       1.0  0.22246  0.45668  0.11459  1.0000
  N   N2        1.0  0.32002  0.47237  0.13713  1.0000
  H   H21       1.0  0.09414  0.47627  0.14374  1.0000
  H   H22       1.0  0.22989  0.43128  0.16566  1.0000
  H   H23       1.0  0.22249  0.48855  0.01928  1.0000
  S   S10       1.0  0.31042  0.41025  0.18668  1.0000
  H   H24       1.0  0.19241  0.47391  0.14651  1.0000
  H   H25       1.0  0.18022  0.44354  0.15276  1.0000
  H   H26       1.0  0.24236  0.44136  0.14169  1.0000
  C   C20       1.0  0.22998  0.48818  0.00429  1.0000
  H   H27       1.0  0.16048  0.47299  0.11461  1.0000
  C   C21       1.0  0.31746  0.42511  0.10775  1.0000
  S   S11       1.0  0.23088  0.47810  0.07045  1.0000
  Fe  Fe4       1.0  0.12834  0.45412  0.22562  1.0000
  Fe  Fe5       1.0  0.12887  0.47811  0.18428  1.0000
  H   H28       1.0  0.31376  0.44335  0.14816  1.0000
  C   C22       1.0  0.04471  0.48498  0.21554  1.0000
  S   S12       1.0  0.25267  0.48700  0.10235  1.0000
  H   H29       1.0  0.20508  0.48301  0.99576  1.0000
  C   C23       1.0  0.15388  0.48869  0.13822  1.0000
  C   C24       1.0  0.27072  0.40700  0.23253  1.0000
  C   C25       1.0  0.32375  0.47060  0.11641  1.0000
  H   H30       1.0  0.18686  0.49060  0.09470  1.0000
  H   H31       1.0  0.31308  0.46302  0.11390  1.0000
  C   C26       1.0  0.01163  0.48350  0.21306  1.0000
  Fe  Fe6       1.0  0.09328  0.48669  0.21644  1.0000
  H   H32       1.0  0.32217  0.48533  0.10647  1.0000
  C   C27       1.0  0.32360  0.45247  0.14961  1.0000
  H   H33       1.0  0.33057  0.43019  0.09907  1.0000
  H   H34       1.0  0.33073  0.48583  0.15487  1.0000
  Fe  Fe7       1.0  0.21057  0.40725  0.34972  1.0000
  S   S13       1.0  0.19224  0.38484  0.35446  1.0000
  S   S14       1.0  0.21298  0.42187  0.37286  1.0000
  Fe  Fe8       1.0  0.22138  0.41051  0.30576  1.0000
  S   S15       1.0  0.20398  0.38847  0.30597  1.0000
  S   S16       1.0  0.23832  0.42814  0.27996  1.0000
  Fe  Fe9       1.0  0.18081  0.40377  0.32799  1.0000
  S   S17       1.0  0.14867  0.41622  0.32749  1.0000
  Fe  Fe10      1.0  0.21692  0.37137  0.33225  1.0000
  S   S18       1.0  0.23259  0.33959  0.33586  1.0000
  S   S19       1.0  0.19714  0.42730  0.32512  1.0000
  S   S20       1.0  0.23638  0.39205  0.33010  1.0000
  H   H35       1.0  0.26802  0.46125  0.25485  1.0000
  Fe  Fe11      1.0  0.20341  0.27592  0.43207  1.0000
  S   S21       1.0  0.21914  0.24424  0.43381  1.0000
  S   S22       1.0  0.18432  0.29285  0.41030  1.0000
  Fe  Fe12      1.0  0.24235  0.25340  0.44355  1.0000
  S   S23       1.0  0.27519  0.24290  0.43455  1.0000
  C   C28       1.0  0.22976  0.47447  0.35725  1.0000
  H   H36       1.0  0.11904  0.44802  0.27027  1.0000
  S   S24       1.0  0.22791  0.28577  0.43884  1.0000
  H   H37       1.0  0.14488  0.26507  0.46300  1.0000
  C   C29       1.0  0.28269  0.21791  0.43265  1.0000
  C   C30       1.0  0.30281  0.20894  0.43053  1.0000
  C   C31       1.0  0.30903  0.18867  0.43052  1.0000
  H   H38       1.0  0.24512  0.36704  0.28209  1.0000
  H   H39       1.0  0.16384  0.38934  0.30073  1.0000
  C   C32       1.0  0.18375  0.43830  0.27519  1.0000
  H   H40       1.0  0.31359  0.21763  0.42920  1.0000
  S   S25       1.0  0.11170  0.47997  0.23952  1.0000
  H   H41       1.0  0.19314  0.34383  0.42499  1.0000
  C   C33       1.0  0.24009  0.39551  0.24088  1.0000
  H   H42       1.0  0.17532  0.47153  0.32493  1.0000
  H   H43       1.0  0.15087  0.27182  0.40918  1.0000
  N   N3        1.0  0.27273  0.34608  0.27775  1.0000
  Fe  Fe13      1.0  0.21260  0.27848  0.47011  1.0000
  C   C34       1.0  0.14172  0.26092  0.41790  1.0000
  H   H44       1.0  0.28313  0.33608  0.25034  1.0000
  N   N4        1.0  0.18415  0.45630  0.25977  1.0000
  H   H45       1.0  0.22407  0.38147  0.40228  1.0000
  H   H46       1.0  0.23637  0.42928  0.33411  1.0000
  N   N5        1.0  0.16282  0.47145  0.35543  1.0000
  S   S26       1.0  0.13792  0.42320  0.24166  1.0000
  H   H47       1.0  0.24399  0.35129  0.41980  1.0000
  H   H48       1.0  0.18169  0.42594  0.26961  1.0000
  N   N6        1.0  0.21984  0.35181  0.40663  1.0000
  H   H49       1.0  0.08282  0.45921  0.27619  1.0000
  C   C35       1.0  0.21905  0.32544  0.35546  1.0000
  C   C36       1.0  0.22893  0.30875  0.36692  1.0000
  C   C37       1.0  0.21830  0.29850  0.38376  1.0000
  C   C38       1.0  0.19773  0.30460  0.38873  1.0000
  C   C39       1.0  0.18781  0.32089  0.37690  1.0000
  C   C40       1.0  0.19849  0.33147  0.36042  1.0000
  H   H50       1.0  0.24485  0.30407  0.36311  1.0000
  H   H51       1.0  0.22601  0.28587  0.39286  1.0000
  H   H52       1.0  0.17190  0.32561  0.38073  1.0000
  H   H53       1.0  0.19078  0.34418  0.35145  1.0000
  C   C41       1.0  0.14384  0.41699  0.30461  1.0000
  H   H54       1.0  0.15963  0.39239  0.26682  1.0000
  C   C42       1.0  0.13084  0.43333  0.29614  1.0000
  H   H55       1.0  0.12298  0.44486  0.30425  1.0000
  C   C43       1.0  0.15158  0.40384  0.27498  1.0000
  C   C44       1.0  0.23364  0.40540  0.25661  1.0000
  C   C45       1.0  0.15405  0.40215  0.29411  1.0000
  H   H56       1.0  0.21932  0.40471  0.26587  1.0000
  H   H57       1.0  0.20295  0.37974  0.39419  1.0000
  H   H58       1.0  0.22217  0.34561  0.43695  1.0000
  C   C46       1.0  0.23148  0.34378  0.42232  1.0000
  C   C47       1.0  0.21196  0.37322  0.40576  1.0000
  C   C48       1.0  0.23267  0.34856  0.38763  1.0000
  H   H59       1.0  0.23786  0.32768  0.42319  1.0000
  H   H60       1.0  0.20238  0.37628  0.41991  1.0000
  H   H61       1.0  0.22430  0.35418  0.37549  1.0000
  H   H62       1.0  0.23900  0.33257  0.38780  1.0000
  H   H63       1.0  0.24522  0.35623  0.38382  1.0000
  C   C49       1.0  0.29520  0.17738  0.43206  1.0000
  C   C50       1.0  0.23984  0.47441  0.33787  1.0000
  C   C51       1.0  0.12869  0.43520  0.27687  1.0000
  H   H64       1.0  0.30462  0.47680  0.28499  1.0000
  C   C52       1.0  0.22456  0.44154  0.36014  1.0000
  H   H65       1.0  0.14497  0.24873  0.40976  1.0000
  H   H66       1.0  0.25889  0.36188  0.30115  1.0000
  H   H67       1.0  0.08622  0.42283  0.28474  1.0000
  H   H68       1.0  0.31275  0.19385  0.47155  1.0000
  C   C53       1.0  0.23463  0.44165  0.34077  1.0000
  H   H69       1.0  0.24838  0.33135  0.28532  1.0000
  C   C54       1.0  0.16717  0.24357  0.43636  1.0000
  C   C55       1.0  0.14181  0.27016  0.44791  1.0000
  H   H70       1.0  0.26669  0.37713  0.27789  1.0000
  H   H71       1.0  0.31908  0.45111  0.26436  1.0000
  H   H72       1.0  0.32359  0.12964  0.37449  1.0000
  C   C56       1.0  0.16526  0.46244  0.25279  1.0000
  H   H73       1.0  0.13641  0.22632  0.44186  1.0000
  Fe  Fe14      1.0  0.32657  0.13804  0.44978  1.0000
  H   H74       1.0  0.26435  0.17775  0.43489  1.0000
  H   H75       1.0  0.25004  0.45789  0.31476  1.0000
  H   H76       1.0  0.27394  0.00761  0.46467  1.0000
  S   S27       1.0  0.18683  0.27143  0.46299  1.0000
  C   C57       1.0  0.07073  0.42521  0.28267  1.0000
  C   C58       1.0  0.27407  0.34921  0.25639  1.0000
  C   C59       1.0  0.24244  0.45791  0.32975  1.0000
  S   S28       1.0  0.19226  0.21363  0.48048  1.0000
  H   H77       1.0  0.18148  0.46106  0.37676  1.0000
  H   H78       1.0  0.06072  0.42630  0.29712  1.0000
  H   H79       1.0  0.27093  0.08643  0.48013  1.0000
  C   C60       1.0  0.20325  0.34162  0.41083  1.0000
  C   C61       1.0  0.06759  0.46059  0.27402  1.0000
  H   H80       1.0  0.20869  0.32540  0.41182  1.0000
  H   H81       1.0  0.27360  0.42541  0.25069  1.0000
  C   C62       1.0  0.13365  0.23915  0.44903  1.0000
  H   H82       1.0  0.27343  0.02352  0.48064  1.0000
  H   H83       1.0  0.29997  0.35521  0.27451  1.0000
  S   S29       1.0  0.30287  0.15197  0.43211  1.0000
  N   N7        1.0  0.06580  0.44309  0.26769  1.0000
  H   H84       1.0  0.19773  0.43324  0.28081  1.0000
  H   H85       1.0  0.17084  0.23047  0.42939  1.0000
  H   H86       1.0  0.32457  0.18193  0.42898  1.0000
  C   C63       1.0  0.04533  0.44563  0.26505  1.0000
  C   C64       1.0  0.24574  0.41619  0.26015  1.0000
  C   C65       1.0  0.28974  0.47446  0.28525  1.0000
  H   H87       1.0  0.19430  0.34704  0.39914  1.0000
  H   H88       1.0  0.11760  0.24610  0.45069  1.0000
  H   H89       1.0  0.31244  0.14589  0.39148  1.0000
  H   H90       1.0  0.28589  0.46324  0.29861  1.0000
  H   H91       1.0  0.15248  0.46568  0.26488  1.0000
  C   C66       1.0  0.27512  0.18643  0.43366  1.0000
  H   H92       1.0  0.25328  0.21331  0.43607  1.0000
  H   H93       1.0  0.09523  0.43930  0.25023  1.0000
  C   C67       1.0  0.26374  0.32886  0.28771  1.0000
  H   H94       1.0  0.30368  0.44445  0.25194  1.0000
  C   C68       1.0  0.13925  0.42057  0.26619  1.0000
  H   H95       1.0  0.15108  0.28114  0.43994  1.0000
  C   C69       1.0  0.17923  0.47332  0.33833  1.0000
  H   H96       1.0  0.30258  0.32919  0.27649  1.0000
  C   C70       1.0  0.26034  0.36383  0.28503  1.0000
  C   C71       1.0  0.18695  0.47220  0.26791  1.0000
  C   C72       1.0  0.16897  0.47334  0.37292  1.0000
  H   H97       1.0  0.25774  0.47917  0.27041  1.0000
  H   H98       1.0  0.06946  0.41174  0.27838  1.0000
  C   C73       1.0  0.15781  0.45192  0.35881  1.0000
  H   H99       1.0  0.17481  0.47560  0.28049  1.0000
  H   H100      1.0  0.12590  0.26842  0.41837  1.0000
  C   C74       1.0  0.29280  0.34245  0.28186  1.0000
  H   H101      1.0  0.26282  0.32588  0.30385  1.0000
  S   S30       1.0  0.22903  0.24697  0.47556  1.0000
  C   C75       1.0  0.26412  0.41724  0.24793  1.0000
  H   H102      1.0  0.04119  0.45919  0.25396  1.0000
  H   H103      1.0  0.30209  0.09559  0.48051  1.0000
  Fe  Fe15      1.0  0.20458  0.24053  0.46556  1.0000
  H   H104      1.0  0.13678  0.23314  0.46405  1.0000
  H   H105      1.0  0.17696  0.25375  0.42751  1.0000
  C   C76       1.0  0.26884  0.20661  0.43426  1.0000
  H   H106      1.0  0.25921  0.35244  0.25257  1.0000
  H   H107      1.0  0.16273  0.45070  0.24662  1.0000
  H   H108      1.0  0.17119  0.23832  0.45103  1.0000
  H   H109      1.0  0.17152  0.44093  0.28791  1.0000
  H   H110      1.0  0.20113  0.46797  0.27329  1.0000
  H   H111      1.0  0.04350  0.43293  0.25983  1.0000
  H   H112      1.0  0.29236  0.34004  0.29787  1.0000
  H   H113      1.0  0.27246  0.31524  0.28234  1.0000
  N   N8        1.0  0.14607  0.25344  0.43781  1.0000
  H   H114      1.0  0.15337  0.44983  0.34578  1.0000
  H   H115      1.0  0.14536  0.45004  0.37148  1.0000
  H   H116      1.0  0.21481  0.45783  0.38354  1.0000
  C   C77       1.0  0.07963  0.44098  0.24893  1.0000
  H   H117      1.0  0.03442  0.44707  0.27894  1.0000
  C   C78       1.0  0.22245  0.45784  0.36853  1.0000
  H   H118      1.0  0.12603  0.27802  0.44918  1.0000
  H   H119      1.0  0.28110  0.36190  0.24844  1.0000
  C   C79       1.0  0.27338  0.20005  0.48406  1.0000
  H   H120      1.0  0.17066  0.43972  0.36196  1.0000
  C   C80       1.0  0.26916  0.46549  0.26834  1.0000
  H   H121      1.0  0.29179  0.00098  0.48031  1.0000
  H   H122      1.0  0.30246  0.21997  0.46671  1.0000
  H   H123      1.0  0.07887  0.42784  0.24374  1.0000
  H   H124      1.0  0.05719  0.46279  0.28803  1.0000
  S   S31       1.0  0.31819  0.13445  0.48240  1.0000
  H   H125      1.0  0.31982  0.15599  0.36597  1.0000
  H   H126      1.0  0.30044  0.43753  0.27812  1.0000
  N   N9        1.0  0.28923  0.46831  0.26724  1.0000
  C   C81       1.0  0.29426  0.48375  0.25000  1.0000
  C   C82       1.0  0.30590  0.20693  0.47854  1.0000
  H   H127      1.0  0.27976  0.18730  0.47650  1.0000
  H   H128      1.0  0.26515  0.45354  0.28089  1.0000
  C   C83       1.0  0.30373  0.44954  0.26537  1.0000
  H   H129      1.0  0.21518  0.44817  0.24784  1.0000
  H   H130      1.0  0.19940  0.43974  0.23724  1.0000
  C   C84       1.0  0.27603  0.00774  0.47946  1.0000
  H   H131      1.0  0.19292  0.46223  0.34099  1.0000
  H   H132      1.0  0.26846  0.21311  0.47286  1.0000
  H   H133      1.0  0.06420  0.47434  0.26292  1.0000
  H   H134      1.0  0.15667  0.47298  0.38592  1.0000
  C   C85       1.0  0.32407  0.14372  0.37814  1.0000
  C   C86       1.0  0.20064  0.45221  0.24323  1.0000
  H   H135      1.0  0.16502  0.47598  0.24110  1.0000
  H   H136      1.0  0.23084  0.38703  0.23819  1.0000
  H   H137      1.0  0.23873  0.00702  0.47913  1.0000
  H   H138      1.0  0.14067  0.48656  0.33817  1.0000
  C   C87       1.0  0.14536  0.48722  0.35162  1.0000
  H   H139      1.0  0.30914  0.48660  0.24899  1.0000
  H   H140      1.0  0.18715  0.48610  0.25673  1.0000
  H   H141      1.0  0.13253  0.48613  0.36402  1.0000
  H   H142      1.0  0.18296  0.48808  0.33493  1.0000
  H   H143      1.0  0.27890  0.48854  0.28713  1.0000
  H   H144      1.0  0.22782  0.48724  0.36357  1.0000
  H   H145      1.0  0.17396  0.48744  0.37045  1.0000
  H   H146      1.0  0.29451  0.47943  0.23609  1.0000
  H   H147      1.0  0.07614  0.45412  0.23730  1.0000
  H   H148      1.0  0.31740  0.20938  0.48514  1.0000
  S   S32       1.0  0.22685  0.37528  0.68289  1.0000
  N   N10       1.0  0.30391  0.16724  0.65362  1.0000
  Fe  Fe16      1.0  0.25223  0.38257  0.69075  1.0000
  S   S33       1.0  0.27235  0.39995  0.66817  1.0000
  H   H149      1.0  0.22568  0.46770  0.71096  1.0000
  S   S34       1.0  0.26320  0.35180  0.70598  1.0000
  C   C88       1.0  0.13637  0.20643  0.50291  1.0000
  C   C89       1.0  0.24179  0.00694  0.49358  1.0000
  H   H150      1.0  0.13016  0.27712  0.68264  1.0000
  H   H151      1.0  0.30313  0.45267  0.72062  1.0000
  H   H152      1.0  0.30561  0.19073  0.62821  1.0000
  S   S35       1.0  0.21161  0.01964  0.58584  1.0000
  Fe  Fe17      1.0  0.23696  0.04174  0.53382  1.0000
  S   S36       1.0  0.21645  0.06096  0.55386  1.0000
  H   H153      1.0  0.32894  0.15591  0.66783  1.0000
  Fe  Fe18      1.0  0.23215  0.04077  0.57707  1.0000
  S   S37       1.0  0.23700  0.05794  0.59724  1.0000
  Fe  Fe19      1.0  0.19736  0.03883  0.56115  1.0000
  S   S38       1.0  0.16421  0.04797  0.56749  1.0000
  S   S39       1.0  0.25415  0.02296  0.55651  1.0000
  S   S40       1.0  0.21609  0.02159  0.53847  1.0000
  H   H154      1.0  0.30667  0.39866  0.72916  1.0000
  H   H155      1.0  0.21023  0.45570  0.68061  1.0000
  H   H156      1.0  0.27671  0.18345  0.66816  1.0000
  Fe  Fe20      1.0  0.07268  0.16911  0.56240  1.0000
  S   S41       1.0  0.09875  0.14582  0.57118  1.0000
  S   S42       1.0  0.04320  0.15947  0.57252  1.0000
  Fe  Fe21      1.0  0.09861  0.19808  0.53972  1.0000
  S   S43       1.0  0.12649  0.17690  0.54615  1.0000
  Fe  Fe22      1.0  0.11353  0.15439  0.54000  1.0000
  S   S44       1.0  0.13208  0.13299  0.52106  1.0000
  Fe  Fe23      1.0  0.10941  0.17055  0.57664  1.0000
  S   S45       1.0  0.12769  0.16653  0.59946  1.0000
  S   S46       1.0  0.08705  0.17615  0.53068  1.0000
  S   S47       1.0  0.08193  0.19327  0.57090  1.0000
  Fe  Fe24      1.0  0.19641  0.26774  0.63141  1.0000
  S   S48       1.0  0.22681  0.24919  0.62335  1.0000
  S   S49       1.0  0.18603  0.29496  0.64511  1.0000
  Fe  Fe25      1.0  0.17644  0.24405  0.61526  1.0000
  S   S50       1.0  0.20470  0.22334  0.60600  1.0000
  S   S51       1.0  0.14685  0.24536  0.60845  1.0000
  Fe  Fe26      1.0  0.21170  0.22357  0.63464  1.0000
  S   S52       1.0  0.22598  0.19499  0.65188  1.0000
  Fe  Fe27      1.0  0.21787  0.25019  0.59522  1.0000
  S   S53       1.0  0.23950  0.25101  0.56653  1.0000
  S   S54       1.0  0.18197  0.24180  0.64521  1.0000
  S   S55       1.0  0.18897  0.27114  0.60198  1.0000
  H   H157      1.0  0.26366  0.32202  0.62514  1.0000
  H   H158      1.0  0.30194  0.12171  0.53739  1.0000
  C   C90       1.0  0.27416  0.06128  0.50385  1.0000
  S   S56       1.0  0.24178  0.31653  0.68967  1.0000
  H   H159      1.0  0.28101  0.15063  0.66137  1.0000
  C   C91       1.0  0.28302  0.10390  0.57170  1.0000
  C   C92       1.0  0.17943  0.46360  0.71052  1.0000
  S   S57       1.0  0.28892  0.14856  0.59161  1.0000
  H   H160      1.0  0.03928  0.12852  0.53558  1.0000
  C   C93       1.0  0.08491  0.09823  0.52893  1.0000
  H   H161      1.0  0.26221  0.43644  0.64200  1.0000
  H   H162      1.0  0.28379  0.18093  0.63393  1.0000
  C   C94       1.0  0.21544  0.28649  0.51218  1.0000
  C   C95       1.0  0.23331  0.27258  0.51048  1.0000
  C   C96       1.0  0.24075  0.26206  0.52727  1.0000
  C   C97       1.0  0.23017  0.26512  0.54582  1.0000
  C   C98       1.0  0.21239  0.27918  0.54752  1.0000
  C   C99       1.0  0.20515  0.29005  0.53068  1.0000
  H   H163      1.0  0.30096  0.14015  0.67434  1.0000
  H   H164      1.0  0.25471  0.25154  0.52594  1.0000
  H   H165      1.0  0.20439  0.28194  0.56172  1.0000
  H   H166      1.0  0.19139  0.30092  0.53201  1.0000
  C   C100      1.0  0.24312  0.18177  0.63519  1.0000
  C   C101      1.0  0.24947  0.19149  0.61608  1.0000
  C   C102      1.0  0.26319  0.18104  0.60266  1.0000
  C   C103      1.0  0.27110  0.16096  0.60847  1.0000
  C   C104      1.0  0.26502  0.15119  0.62765  1.0000
  C   C105      1.0  0.25083  0.16158  0.64096  1.0000
  H   H167      1.0  0.24413  0.20718  0.61165  1.0000
  H   H168      1.0  0.26801  0.18869  0.58789  1.0000
  H   H169      1.0  0.27094  0.13560  0.63211  1.0000
  H   H170      1.0  0.24579  0.15400  0.65569  1.0000
  C   C106      1.0  0.13326  0.18849  0.60154  1.0000
  C   C107      1.0  0.12165  0.20695  0.59517  1.0000
  C   C108      1.0  0.12580  0.22424  0.59762  1.0000
  C   C109      1.0  0.14196  0.22328  0.60589  1.0000
  C   C110      1.0  0.15389  0.20487  0.61186  1.0000
  C   C111      1.0  0.14938  0.18751  0.60991  1.0000
  H   H171      1.0  0.10917  0.20787  0.58875  1.0000
  H   H172      1.0  0.11650  0.23841  0.59298  1.0000
  H   H173      1.0  0.16631  0.20395  0.61837  1.0000
  H   H174      1.0  0.15839  0.17329  0.61494  1.0000
  C   C112      1.0  0.12658  0.22462  0.50803  1.0000
  C   C113      1.0  0.13894  0.28160  0.66779  1.0000
  C   C114      1.0  0.02668  0.16363  0.55654  1.0000
  C   C115      1.0  0.02850  0.17710  0.53872  1.0000
  H   H175      1.0  0.16488  0.24828  0.49243  1.0000
  H   H176      1.0  0.20948  0.48314  0.69516  1.0000
  H   H177      1.0  0.23600  0.35038  0.62890  1.0000
  H   H178      1.0  0.29986  0.17293  0.50286  1.0000
  H   H179      1.0  0.04046  0.18494  0.53430  1.0000
  H   H180      1.0  0.09900  0.09613  0.53398  1.0000
  H   H181      1.0  0.11685  0.26282  0.64181  1.0000
  H   H182      1.0  0.23807  0.37007  0.63926  1.0000
  C   C116      1.0  0.15524  0.07134  0.55421  1.0000
  C   C117      1.0  0.16677  0.07959  0.53689  1.0000
  C   C118      1.0  0.15943  0.09846  0.52660  1.0000
  C   C119      1.0  0.14085  0.10932  0.53394  1.0000
  C   C120      1.0  0.12942  0.10111  0.55137  1.0000
  C   C121      1.0  0.13647  0.08201  0.56132  1.0000
  H   H183      1.0  0.18121  0.07132  0.53125  1.0000
  H   H184      1.0  0.11504  0.10933  0.55704  1.0000
  H   H185      1.0  0.12753  0.07560  0.57470  1.0000
  N   N11       1.0  0.20061  0.45612  0.71138  1.0000
  C   C122      1.0  0.28616  0.04990  0.51707  1.0000
  H   H186      1.0  0.28223  0.03685  0.52685  1.0000
  C   C123      1.0  0.26123  0.05568  0.60036  1.0000
  C   C124      1.0  0.26451  0.06784  0.61125  1.0000
  C   C125      1.0  0.28373  0.06704  0.61340  1.0000
  C   C126      1.0  0.29976  0.05379  0.60495  1.0000
  C   C127      1.0  0.29650  0.04147  0.59419  1.0000
  C   C128      1.0  0.27727  0.04251  0.59176  1.0000
  H   H187      1.0  0.25214  0.07799  0.61801  1.0000
  H   H188      1.0  0.28608  0.07647  0.62185  1.0000
  C   C129      1.0  0.30948  0.07152  0.50417  1.0000
  H   H189      1.0  0.27486  0.03299  0.58345  1.0000
  H   H190      1.0  0.01558  0.19189  0.51339  1.0000
  C   C130      1.0  0.20160  0.30081  0.65753  1.0000
  C   C131      1.0  0.21987  0.28843  0.66003  1.0000
  C   C132      1.0  0.23186  0.29335  0.67013  1.0000
  C   C133      1.0  0.22574  0.31070  0.67777  1.0000
  C   C134      1.0  0.20751  0.32318  0.67519  1.0000
  C   C135      1.0  0.19548  0.31822  0.66512  1.0000
  H   H191      1.0  0.22470  0.27496  0.65432  1.0000
  H   H192      1.0  0.24592  0.28360  0.67211  1.0000
  H   H193      1.0  0.18134  0.32786  0.66326  1.0000
  C   C136      1.0  0.26737  0.42445  0.67130  1.0000
  C   C137      1.0  0.26789  0.42887  0.68910  1.0000
  C   C138      1.0  0.26360  0.44869  0.69122  1.0000
  C   C139      1.0  0.25827  0.46397  0.67573  1.0000
  C   C140      1.0  0.25774  0.45942  0.65807  1.0000
  C   C141      1.0  0.26258  0.43977  0.65576  1.0000
  H   H194      1.0  0.27160  0.41701  0.70115  1.0000
  H   H195      1.0  0.26382  0.45213  0.70494  1.0000
  N   N12       1.0  0.17207  0.10406  0.58937  1.0000
  C   C142      1.0  0.16559  0.08505  0.59554  1.0000
  C   C143      1.0  0.19280  0.10072  0.59162  1.0000
  C   C144      1.0  0.15921  0.11807  0.60166  1.0000
  C   C145      1.0  0.17070  0.11237  0.56863  1.0000
  H   H196      1.0  0.15009  0.08689  0.59388  1.0000
  H   H197      1.0  0.16639  0.07833  0.61112  1.0000
  H   H198      1.0  0.17506  0.07412  0.58659  1.0000
  H   H199      1.0  0.20290  0.09028  0.58244  1.0000
  H   H200      1.0  0.19818  0.11474  0.58733  1.0000
  H   H201      1.0  0.19446  0.09410  0.60704  1.0000
  H   H202      1.0  0.16358  0.13265  0.59733  1.0000
  H   H203      1.0  0.15980  0.11238  0.61743  1.0000
  H   H204      1.0  0.14345  0.12100  0.60025  1.0000
  H   H205      1.0  0.17570  0.12660  0.56336  1.0000
  H   H206      1.0  0.15518  0.11540  0.56652  1.0000
  H   H207      1.0  0.17983  0.10202  0.55893  1.0000
  N   N13       1.0  0.28001  0.10434  0.55198  1.0000
  H   H208      1.0  0.31233  0.42093  0.69677  1.0000
  C   C146      1.0  0.26322  0.12060  0.54728  1.0000
  C   C147      1.0  0.27568  0.08535  0.55156  1.0000
  H   H209      1.0  0.05360  0.12067  0.51354  1.0000
  C   C148      1.0  0.29727  0.14832  0.65992  1.0000
  C   C149      1.0  0.27924  0.22158  0.50206  1.0000
  H   H210      1.0  0.08021  0.08383  0.53347  1.0000
  C   C150      1.0  0.29993  0.17689  0.63385  1.0000
  H   H211      1.0  0.26591  0.13511  0.54778  1.0000
  H   H212      1.0  0.24929  0.11848  0.55794  1.0000
  H   H213      1.0  0.27324  0.08518  0.53689  1.0000
  H   H214      1.0  0.26215  0.08237  0.56248  1.0000
  N   N14       1.0  0.26442  0.34723  0.63599  1.0000
  C   C151      1.0  0.26972  0.32577  0.63626  1.0000
  C   C152      1.0  0.27236  0.35137  0.65133  1.0000
  C   C153      1.0  0.27291  0.35796  0.61663  1.0000
  H   H215      1.0  0.26369  0.31726  0.65076  1.0000
  H   H216      1.0  0.26834  0.36739  0.65183  1.0000
  H   H217      1.0  0.26647  0.34326  0.66609  1.0000
  H   H218      1.0  0.28877  0.34680  0.64890  1.0000
  H   H219      1.0  0.26930  0.37419  0.61606  1.0000
  H   H220      1.0  0.28933  0.35324  0.61328  1.0000
  H   H221      1.0  0.15339  0.27083  0.66644  1.0000
  H   H222      1.0  0.26066  0.12148  0.53239  1.0000
  H   H223      1.0  0.17122  0.47090  0.72309  1.0000
  C   C154      1.0  0.14065  0.28858  0.63288  1.0000
  C   C155      1.0  0.20253  0.44245  0.73031  1.0000
  H   H224      1.0  0.22641  0.43910  0.69581  1.0000
  H   H225      1.0  0.25991  0.19689  0.49491  1.0000
  N   N15       1.0  0.17789  0.23429  0.54641  1.0000
  C   C156      1.0  0.18011  0.25312  0.53268  1.0000
  C   C157      1.0  0.18895  0.21760  0.53673  1.0000
  C   C158      1.0  0.15673  0.23336  0.55237  1.0000
  C   C159      1.0  0.18581  0.23306  0.56392  1.0000
  H   H226      1.0  0.19597  0.25399  0.52755  1.0000
  H   H227      1.0  0.17244  0.26604  0.53968  1.0000
  H   H228      1.0  0.17391  0.25486  0.51949  1.0000
  H   H229      1.0  0.18756  0.20316  0.54669  1.0000
  H   H230      1.0  0.18332  0.21808  0.52346  1.0000
  H   H231      1.0  0.20497  0.21786  0.53198  1.0000
  H   H232      1.0  0.15463  0.21914  0.56248  1.0000
  H   H233      1.0  0.15011  0.23449  0.53956  1.0000
  H   H234      1.0  0.14797  0.24547  0.56015  1.0000
  H   H235      1.0  0.18421  0.21912  0.57473  1.0000
  H   H236      1.0  0.17780  0.24548  0.57155  1.0000
  H   H237      1.0  0.20178  0.23372  0.56004  1.0000
  H   H238      1.0  0.17742  0.47457  0.69678  1.0000
  H   H239      1.0  0.23584  0.34649  0.65449  1.0000
  S   S58       1.0  0.18086  0.40400  0.71480  1.0000
  H   H240      1.0  0.27512  0.23485  0.49068  1.0000
  H   H241      1.0  0.29758  0.19476  0.66327  1.0000
  H   H242      1.0  0.30686  0.16705  0.62309  1.0000
  S   S59       1.0  0.23469  0.39298  0.71798  1.0000
  C   C160      1.0  0.12458  0.26275  0.65353  1.0000
  S   S60       1.0  0.10212  0.22770  0.52103  1.0000
  N   N16       1.0  0.12838  0.28245  0.65221  1.0000
  C   C161      1.0  0.20990  0.47285  0.70958  1.0000
  H   H243      1.0  0.06040  0.09451  0.56402  1.0000
  H   H244      1.0  0.09025  0.13141  0.53598  1.0000
  H   H245      1.0  0.28019  0.18389  0.52059  1.0000
  Fe  Fe28      1.0  0.23195  0.00380  0.56257  1.0000
  Fe  Fe29      1.0  0.31195  0.12522  0.60520  1.0000
  S   S61       1.0  0.25062  0.48879  0.67817  1.0000
  H   H246      1.0  0.26560  0.21976  0.51329  1.0000
  H   H247      1.0  0.20360  0.43329  0.69555  1.0000
  H   H248      1.0  0.30452  0.18881  0.51606  1.0000
  H   H249      1.0  0.26709  0.35531  0.60473  1.0000
  H   H250      1.0  0.16827  0.10474  0.51306  1.0000
  N   N17       1.0  0.06949  0.11401  0.53701  1.0000
  H   H251      1.0  0.28938  0.43361  0.72538  1.0000
  H   H252      1.0  0.30448  0.13843  0.64926  1.0000
  H   H253      1.0  0.28806  0.07271  0.55500  1.0000
  H   H254      1.0  0.06522  0.14495  0.53640  1.0000
  H   H255      1.0  0.07885  0.10723  0.56461  1.0000
  H   H256      1.0  0.05369  0.12022  0.56518  1.0000
  Fe  Fe30      1.0  0.32800  0.08087  0.61310  1.0000
  C   C162      1.0  0.29299  0.18031  0.66757  1.0000
  N   N18       1.0  0.28794  0.20378  0.49341  1.0000
  H   H257      1.0  0.20238  0.48156  0.72111  1.0000
  H   H258      1.0  0.20263  0.33657  0.68105  1.0000
  H   H259      1.0  0.28604  0.32022  0.63340  1.0000
  H   H260      1.0  0.24161  0.27024  0.49618  1.0000
  C   C163      1.0  0.29812  0.10757  0.53740  1.0000
  H   H261      1.0  0.07997  0.13717  0.51441  1.0000
  S   S62       1.0  0.32396  0.05280  0.60733  1.0000
  C   C164      1.0  0.30373  0.05502  0.51728  1.0000
  H   H262      1.0  0.13346  0.28898  0.62066  1.0000
  C   C165      1.0  0.29328  0.18660  0.50894  1.0000
  H   H263      1.0  0.26947  0.10205  0.58303  1.0000
  H   H264      1.0  0.14395  0.30334  0.63128  1.0000
  H   H265      1.0  0.12842  0.19474  0.50564  1.0000
  H   H266      1.0  0.15509  0.27806  0.63088  1.0000
  C   C166      1.0  0.24264  0.35388  0.63975  1.0000
  H   H267      1.0  0.14242  0.29613  0.66694  1.0000
  H   H268      1.0  0.33030  0.16282  0.53955  1.0000
  C   C167      1.0  0.05111  0.11656  0.52981  1.0000
  C   C168      1.0  0.28007  0.07765  0.49051  1.0000
  Fe  Fe31      1.0  0.23615  0.34501  0.70059  1.0000
  S   S63       1.0  0.25188  0.05511  0.50379  1.0000
  H   H269      1.0  0.31104  0.09549  0.54045  1.0000
  H   H270      1.0  0.09971  0.29276  0.66898  1.0000
  C   C169      1.0  0.01436  0.18104  0.52691  1.0000
  C   C170      1.0  0.07653  0.13270  0.53066  1.0000
  Fe  Fe32      1.0  0.24355  0.36155  0.73287  1.0000
  H   H271      1.0  0.12920  0.25402  0.50765  1.0000
  H   H272      1.0  0.10112  0.29797  0.64294  1.0000
  C   C171      1.0  0.21062  0.44561  0.69513  1.0000
  H   H273      1.0  0.13861  0.25146  0.65165  1.0000
  S   S64       1.0  0.20532  0.29859  0.49142  1.0000
  S   S65       1.0  0.30819  0.10167  0.63219  1.0000
  H   H274      1.0  0.29556  0.17346  0.68267  1.0000
  C   C172      1.0  0.10938  0.29694  0.65455  1.0000
  H   H275      1.0  0.11177  0.31195  0.65359  1.0000
  H   H276      1.0  0.29524  0.09148  0.57597  1.0000
  C   C173      1.0  0.06545  0.10871  0.55864  1.0000
  Fe  Fe33      1.0  0.21014  0.38283  0.71177  1.0000
  C   C174      1.0  0.01100  0.15363  0.56210  1.0000
  H   H277      1.0  0.29640  0.10799  0.52231  1.0000
  H   H278      1.0  0.30884  0.03112  0.58770  1.0000
  C   C175      1.0  0.13675  0.23994  0.50367  1.0000
  H   H279      1.0  0.11539  0.25755  0.66792  1.0000
  H   H280      1.0  0.04524  0.10280  0.53443  1.0000
  H   H281      1.0  0.17221  0.45138  0.71102  1.0000
  C   C176      1.0  0.32537  0.16344  0.65319  1.0000
  C   C177      1.0  0.15694  0.23670  0.49506  1.0000
  S   S66       1.0  0.26489  0.47913  0.73058  1.0000
  H   H282      1.0  0.25361  0.47117  0.64609  1.0000
  H   H283      1.0  0.31292  0.04611  0.52756  1.0000
  H   H284      1.0  0.28677  0.11783  0.57247  1.0000
  H   H285      1.0  0.23841  0.02260  0.49533  1.0000
  H   H286      1.0  0.23114  0.99927  0.50507  1.0000
  H   H287      1.0  0.08839  0.10184  0.51263  1.0000
  S   S67       1.0  0.32926  0.10416  0.58598  1.0000
  H   H288      1.0  0.00953  0.14312  0.57585  1.0000
  H   H289      1.0  0.28981  0.22482  0.50930  1.0000
  H   H290      1.0  0.26378  0.01321  0.51619  1.0000
  C   C178      1.0  0.30231  0.43732  0.72854  1.0000
  C   C179      1.0  0.29767  0.08285  0.49075  1.0000
  H   H291      1.0  0.21832  0.43688  0.73163  1.0000
  H   H292      1.0  0.16412  0.18890  0.49090  1.0000
  C   C180      1.0  0.31896  0.40305  0.73288  1.0000
  C   C181      1.0  0.15655  0.20318  0.49442  1.0000
  N   N19       1.0  0.32086  0.42332  0.72263  1.0000
  C   C182      1.0  0.16690  0.21825  0.49062  1.0000
  N   N20       1.0  0.26248  0.99720  0.49511  1.0000
  C   C183      1.0  0.26590  0.99777  0.51438  1.0000
  S   S68       1.0  0.21730  0.35200  0.72917  1.0000
  H   H293      1.0  0.19616  0.42938  0.73187  1.0000
  C   C184      1.0  0.99838  0.17144  0.53267  1.0000
  S   S69       1.0  0.31825  0.47967  0.73431  1.0000
  H   H294      1.0  0.32607  0.43974  0.69308  1.0000
  C   C185      1.0  0.32464  0.42457  0.70123  1.0000
  C   C186      1.0  0.07205  0.39987  0.76606  1.0000
  Fe  Fe34      1.0  0.25609  0.43824  0.90646  1.0000
  S   S70       1.0  0.25420  0.35297  0.76136  1.0000
  H   H295      1.0  0.09527  0.38597  0.79353  1.0000
  Fe  Fe35      1.0  0.23517  0.47333  0.92602  1.0000
  C   C187      1.0  0.20457  0.49145  0.77291  1.0000
  C   C188      1.0  0.10056  0.41389  0.76171  1.0000
  S   S71       1.0  0.26665  0.45655  0.92115  1.0000
  C   C189      1.0  0.24914  0.48735  0.96526  1.0000
  C   C190      1.0  0.16611  0.38033  0.74880  1.0000
  C   C191      1.0  0.31095  0.47033  0.78798  1.0000
  Fe  Fe36      1.0  0.26960  0.47664  0.89159  1.0000
  H   H296      1.0  0.06621  0.43981  0.76121  1.0000
  C   C192      1.0  0.99793  0.44877  0.86846  1.0000
  Fe  Fe37      1.0  0.32128  0.39713  0.79447  1.0000
  S   S72       1.0  0.29171  0.41189  0.78597  1.0000
  N   N21       1.0  0.08133  0.41122  0.77445  1.0000
  C   C193      1.0  0.08451  0.40031  0.79417  1.0000
  H   H297      1.0  0.18692  0.46532  0.94355  1.0000
  C   C194      1.0  0.16867  0.48334  0.77117  1.0000
  H   H298      1.0  0.15881  0.48202  0.90317  1.0000
  S   S73       1.0  0.11002  0.42343  0.84158  1.0000
  S   S74       1.0  0.00984  0.41302  0.81246  1.0000
  S   S75       1.0  0.10935  0.44531  0.79568  1.0000
  H   H299      1.0  0.05320  0.42925  0.78450  1.0000
  Fe  Fe38      1.0  0.12652  0.41807  0.81191  1.0000
  S   S76       1.0  0.13326  0.38945  0.80163  1.0000
  S   S77       1.0  0.26646  0.40544  0.91218  1.0000
  C   C195      1.0  0.02404  0.42740  0.81734  1.0000
  C   C196      1.0  0.03989  0.41802  0.82693  1.0000
  C   C197      1.0  0.05195  0.42908  0.83027  1.0000
  C   C198      1.0  0.04779  0.44967  0.82460  1.0000
  C   C199      1.0  0.03176  0.45907  0.81531  1.0000
  C   C200      1.0  0.02014  0.44796  0.81138  1.0000
  H   H300      1.0  0.04286  0.40213  0.83177  1.0000
  H   H301      1.0  0.06415  0.42174  0.83769  1.0000
  H   H302      1.0  0.02857  0.47500  0.81078  1.0000
  H   H303      1.0  0.24855  0.39593  0.75146  1.0000
  H   H304      1.0  0.29615  0.47490  0.78385  1.0000
  C   C201      1.0  0.30942  0.39939  0.86403  1.0000
  C   C202      1.0  0.29134  0.40541  0.87635  1.0000
  C   C203      1.0  0.28896  0.39832  0.89661  1.0000
  C   C204      1.0  0.30470  0.38542  0.90455  1.0000
  H   H305      1.0  0.07404  0.43935  0.78326  1.0000
  S   S78       1.0  0.11699  0.46932  0.82562  1.0000
  H   H306      1.0  0.27905  0.41508  0.87021  1.0000
  H   H307      1.0  0.30282  0.37991  0.92021  1.0000
  C   C205      1.0  0.16765  0.39953  0.73885  1.0000
  H   H308      1.0  0.22913  0.45255  0.79662  1.0000
  H   H309      1.0  0.31280  0.45472  0.79592  1.0000
  C   C206      1.0  0.17492  0.46744  0.93532  1.0000
  Fe  Fe39      1.0  0.09476  0.45208  0.82522  1.0000
  H   H310      1.0  0.11102  0.39945  0.76058  1.0000
  S   S79       1.0  0.21684  0.48131  0.95468  1.0000
  C   C207      1.0  0.17767  0.44230  0.87848  1.0000
  H   H311      1.0  0.08154  0.38500  0.76487  1.0000
  C   C208      1.0  0.16794  0.46471  0.84955  1.0000
  C   C209      1.0  0.15887  0.41540  0.74832  1.0000
  H   H312      1.0  0.32217  0.47052  0.77413  1.0000
  C   C210      1.0  0.14678  0.39307  0.77760  1.0000
  C   C211      1.0  0.15536  0.37713  0.76811  1.0000
  H   H313      1.0  0.10779  0.42254  0.76760  1.0000
  H   H314      1.0  0.26652  0.44056  0.83814  1.0000
  H   H315      1.0  0.14283  0.42445  0.77503  1.0000
  H   H316      1.0  0.15379  0.36235  0.77568  1.0000
  C   C212      1.0  0.24215  0.46988  0.81865  1.0000
  C   C213      1.0  0.26513  0.36966  0.76709  1.0000
  C   C214      1.0  0.27902  0.36233  0.77928  1.0000
  C   C215      1.0  0.28745  0.37524  0.78481  1.0000
  C   C216      1.0  0.28153  0.39563  0.77871  1.0000
  C   C217      1.0  0.26744  0.40309  0.76667  1.0000
  C   C218      1.0  0.25942  0.39010  0.76067  1.0000
  H   H317      1.0  0.28342  0.34655  0.78436  1.0000
  H   H318      1.0  0.29830  0.36935  0.79407  1.0000
  H   H319      1.0  0.26288  0.41888  0.76185  1.0000
  H   H320      1.0  0.25249  0.47684  0.80618  1.0000
  H   H321      1.0  0.18066  0.45816  0.92395  1.0000
  C   C219      1.0  0.14896  0.41210  0.76779  1.0000
  C   C220      1.0  0.22982  0.44041  0.83503  1.0000
  C   C221      1.0  0.06816  0.43076  0.77589  1.0000
  C   C222      1.0  0.26495  0.43838  0.82385  1.0000
  C   C223      1.0  0.24385  0.44517  0.80039  1.0000
  Fe  Fe40      1.0  0.13305  0.45968  0.79734  1.0000
  H   H322      1.0  0.31114  0.40461  0.84837  1.0000
  H   H323      1.0  0.26766  0.42216  0.82464  1.0000
  S   S80       1.0  0.22427  0.45297  0.91383  1.0000
  H   H324      1.0  0.16693  0.47012  0.80176  1.0000
  S   S81       1.0  0.21084  0.48403  0.86253  1.0000
  H   H325      1.0  0.17621  0.42926  0.88978  1.0000
  Fe  Fe41      1.0  0.13356  0.43998  0.83970  1.0000
  C   C224      1.0  0.19149  0.45330  0.87807  1.0000
  H   H326      1.0  0.32249  0.45455  0.85945  1.0000
  C   C225      1.0  0.16590  0.44793  0.86422  1.0000
  H   H327      1.0  0.27691  0.44389  0.81224  1.0000
  H   H328      1.0  0.24634  0.42915  0.80039  1.0000
  H   H329      1.0  0.20072  0.44855  0.88890  1.0000
  H   H330      1.0  0.23022  0.44301  0.84956  1.0000
  S   S82       1.0  0.14881  0.43369  0.86526  1.0000
  N   N22       1.0  0.24519  0.44846  0.81947  1.0000
  S   S83       1.0  0.06173  0.46400  0.82983  1.0000
  S   S84       1.0  0.15143  0.43185  0.81141  1.0000
  H   H331      1.0  0.30256  0.46584  0.82740  1.0000
  H   H332      1.0  0.00035  0.43482  0.87949  1.0000
  H   H333      1.0  0.07051  0.39704  0.80385  1.0000
  H   H334      1.0  0.19466  0.44985  0.74289  1.0000
  C   C226      1.0  0.29967  0.48122  0.81887  1.0000
  H   H335      1.0  0.21471  0.44755  0.83209  1.0000
  H   H336      1.0  0.32439  0.42016  0.89364  1.0000
  C   C227      1.0  0.32295  0.37994  0.89233  1.0000
  H   H337      1.0  0.29932  0.43730  0.74451  1.0000
  Fe  Fe42      1.0  0.23044  0.47348  0.88498  1.0000
  C   C228      1.0  0.19341  0.47017  0.86355  1.0000
  S   S85       1.0  0.14693  0.47748  0.76933  1.0000
  C   C229      1.0  0.18160  0.47587  0.84930  1.0000
  H   H338      1.0  0.30113  0.49106  0.82795  1.0000
  H   H339      1.0  0.15883  0.46921  0.83856  1.0000
  H   H340      1.0  0.23176  0.42423  0.83635  1.0000
  C   C230      1.0  0.32527  0.38684  0.87209  1.0000
  H   H341      1.0  0.19209  0.48728  0.90130  1.0000
  H   H342      1.0  0.25512  0.45127  0.78828  1.0000
  C   C231      1.0  0.22969  0.48464  0.97136  1.0000
  N   N23       1.0  0.31348  0.48341  0.79977  1.0000
  H   H343      1.0  0.24413  0.47291  0.83241  1.0000
  N   N24       1.0  0.20191  0.37758  0.79857  1.0000
  C   C232      1.0  0.21520  0.35883  0.80549  1.0000
  C   C233      1.0  0.20866  0.39433  0.80146  1.0000
  C   C234      1.0  0.18156  0.37754  0.80982  1.0000
  C   C235      1.0  0.20216  0.37967  0.77752  1.0000
  H   H344      1.0  0.21112  0.34595  0.80263  1.0000
  H   H345      1.0  0.21473  0.35637  0.82149  1.0000
  H   H346      1.0  0.23084  0.35867  0.79795  1.0000
  H   H347      1.0  0.19895  0.40871  0.79630  1.0000
  H   H348      1.0  0.20842  0.39331  0.81722  1.0000
  H   H349      1.0  0.22406  0.39468  0.79327  1.0000
  H   H350      1.0  0.17128  0.39166  0.80528  1.0000
  H   H351      1.0  0.18071  0.37566  0.82582  1.0000
  H   H352      1.0  0.17566  0.36549  0.80753  1.0000
  H   H353      1.0  0.19758  0.36706  0.77471  1.0000
  H   H354      1.0  0.21721  0.38012  0.76853  1.0000
  H   H355      1.0  0.19191  0.39343  0.77194  1.0000
  H   H356      1.0  0.00979  0.44691  0.85523  1.0000
  H   H357      1.0  0.00846  0.45532  0.80337  1.0000
  C   C236      1.0  0.17549  0.47762  0.78880  1.0000
  H   H358      1.0  0.22688  0.47777  0.81668  1.0000
  S   S86       1.0  0.26151  0.45691  0.87650  1.0000
  H   H359      1.0  0.16251  0.46150  0.94578  1.0000
  H   H360      1.0  0.05744  0.39767  0.77537  1.0000
  H   H361      1.0  0.15994  0.43028  0.74078  1.0000
  H   H362      1.0  0.31720  0.44562  0.89547  1.0000
  C   C237      1.0  0.25884  0.49079  0.97850  1.0000
  C   C238      1.0  0.33019  0.43311  0.89382  1.0000
  H   H363      1.0  0.09051  0.40888  0.80144  1.0000
  H   H364      1.0  0.00023  0.46079  0.87438  1.0000
  H   H365      1.0  0.19831  0.47774  0.80347  1.0000
  H   H366      1.0  0.18304  0.48891  0.83798  1.0000
  H   H367      1.0  0.17277  0.36802  0.74144  1.0000
  C   C239      1.0  0.19332  0.48188  0.78972  1.0000
  H   H368      1.0  0.09885  0.42188  0.74663  1.0000
  H   H369      1.0  0.31569  0.40178  0.74902  1.0000
  S   S87       1.0  0.32936  0.36873  0.81553  1.0000
  C   C240      1.0  0.15308  0.49050  0.91524  1.0000
  H   H370      1.0  0.14002  0.48490  0.92473  1.0000
  S   S88       1.0  0.29898  0.48495  0.87900  1.0000
  N   N25       1.0  0.16851  0.48847  0.92647  1.0000
  H   H371      1.0  0.28400  0.48521  0.81702  1.0000
  H   H372      1.0  0.25663  0.48714  0.95024  1.0000
  H   H373      1.0  0.06941  0.40766  0.75118  1.0000
  H   H374      1.0  0.33082  0.42908  0.85734  1.0000
  C   C241      1.0  0.06598  0.50888  0.13528  1.0000
  S   S89       1.0  0.24921  0.51816  0.06054  1.0000
  S   S90       1.0  0.20236  0.52105  0.10205  1.0000
  H   H375      1.0  0.22858  0.56584  0.22580  1.0000
  H   H376      1.0  0.24500  0.55005  0.16950  1.0000
  H   H377      1.0  0.28774  0.56861  0.21858  1.0000
  H   H378      1.0  0.25784  0.54328  0.13212  1.0000
  C   C242      1.0  0.15818  0.50352  0.14494  1.0000
  H   H379      1.0  0.27382  0.55649  0.00165  1.0000
  C   C243      1.0  0.27778  0.54038  0.00761  1.0000
  H   H380      1.0  0.29614  0.49762  0.13399  1.0000
  Fe  Fe43      1.0  0.27320  0.50005  0.07641  1.0000
  C   C244      1.0  0.29294  0.54555  0.03196  1.0000
  S   S91       1.0  0.28486  0.55405  0.14935  1.0000
  C   C245      1.0  0.24318  0.54467  0.18566  1.0000
  C   C246      1.0  0.31069  0.52869  0.10206  1.0000
  S   S92       1.0  0.31752  0.52039  0.18332  1.0000
  C   C247      1.0  0.30779  0.53767  0.11813  1.0000
  H   H381      1.0  0.01766  0.50281  0.22859  1.0000
  C   C248      1.0  0.17890  0.49420  0.10870  1.0000
  Fe  Fe44      1.0  0.32181  0.53810  0.20288  1.0000
  H   H382      1.0  0.05153  0.50555  0.17378  1.0000
  H   H383      1.0  0.10398  0.51028  0.15518  1.0000
  N   N26       1.0  0.29597  0.53503  0.01581  1.0000
  H   H384      1.0  0.22291  0.54409  0.22253  1.0000
  Fe  Fe45      1.0  0.31194  0.54906  0.16222  1.0000
  H   H385      1.0  0.25777  0.53546  0.18849  1.0000
  H   H386      1.0  0.05274  0.50208  0.14024  1.0000
  H   H387      1.0  0.28051  0.54159  0.04396  1.0000
  S   S93       1.0  0.11236  0.50605  0.19469  1.0000
  H   H388      1.0  0.20600  0.56500  0.19553  1.0000
  S   S94       1.0  0.15025  0.51629  0.22136  1.0000
  C   C249      1.0  0.21785  0.57366  0.19118  1.0000
  H   H389      1.0  0.24778  0.58606  0.19771  1.0000
  S   S95       1.0  0.31348  0.56713  0.18300  1.0000
  H   H390      1.0  0.26656  0.56449  0.19329  1.0000
  H   H391      1.0  0.32365  0.59217  0.22227  1.0000
  N   N27       1.0  0.23676  0.56133  0.19610  1.0000
  C   C250      1.0  0.27923  0.56271  0.23238  1.0000
  H   H392      1.0  0.06064  0.52511  0.13083  1.0000
  H   H393      1.0  0.28816  0.50892  0.03492  1.0000
  H   H394      1.0  0.25444  0.57949  0.17399  1.0000
  H   H395      1.0  0.26309  0.52669  0.10421  1.0000
  H   H396      1.0  0.28946  0.56184  0.02686  1.0000
  H   H397      1.0  0.32444  0.56719  0.22113  1.0000
  C   C251      1.0  0.25200  0.57341  0.19005  1.0000
  H   H398      1.0  0.06005  0.52825  0.16480  1.0000
  H   H399      1.0  0.21258  0.58639  0.19881  1.0000
  S   S96       1.0  0.05989  0.49550  0.22422  1.0000
  Fe  Fe46      1.0  0.22884  0.50300  0.08531  1.0000
  C   C252      1.0  0.06503  0.51190  0.16821  1.0000
  H   H400      1.0  0.31394  0.50885  0.03008  1.0000
  H   H401      1.0  0.30628  0.54160  0.03869  1.0000
  C   C253      1.0  0.17273  0.51380  0.13344  1.0000
  S   S97       1.0  0.29895  0.51200  0.07777  1.0000
  Fe  Fe47      1.0  0.13245  0.49656  0.21663  1.0000
  H   H402      1.0  0.24811  0.54476  0.22184  1.0000
  H   H403      1.0  0.17608  0.52527  0.13865  1.0000
  C   C254      1.0  0.29465  0.52450  0.09711  1.0000
  H   H404      1.0  0.21941  0.57973  0.17514  1.0000
  H   H405      1.0  0.30280  0.50498  0.01172  1.0000
  C   C255      1.0  0.28876  0.54294  0.12905  1.0000
  C   C256      1.0  0.27263  0.53912  0.12384  1.0000
  C   C257      1.0  0.27559  0.52974  0.10803  1.0000
  C   C258      1.0  0.23399  0.55362  0.21748  1.0000
  C   C259      1.0  0.30054  0.51351  0.02340  1.0000
  H   H406      1.0  0.07312  0.50822  0.18049  1.0000
  H   H407      1.0  0.17469  0.53387  0.23498  1.0000
  H   H408      1.0  0.23227  0.53498  0.19009  1.0000
  H   H409      1.0  0.25424  0.58733  0.23057  1.0000
  C   C260      1.0  0.18339  0.50887  0.11550  1.0000
  N   N28       1.0  0.07756  0.50420  0.15088  1.0000
  C   C261      1.0  0.09500  0.51342  0.14371  1.0000
  H   H410      1.0  0.09062  0.52974  0.13923  1.0000
  H   H411      1.0  0.26491  0.53629  0.01892  1.0000
  C   C262      1.0  0.31263  0.54058  0.00030  1.0000
  H   H412      1.0  0.27943  0.53239  0.99562  1.0000
  H   H413      1.0  0.32545  0.52478  0.09361  1.0000
  H   H414      1.0  0.15043  0.50702  0.15902  1.0000
  H   H415      1.0  0.32027  0.54076  0.12187  1.0000
  H   H416      1.0  0.31524  0.53283  0.98794  1.0000
  S   S98       1.0  0.26205  0.49651  0.01371  1.0000
  H   H417      1.0  0.32658  0.53664  0.00601  1.0000
  H   H418      1.0  0.30969  0.55675  0.99422  1.0000
  H   H419      1.0  0.07500  0.50326  0.12199  1.0000
  H   H420      1.0  0.10504  0.50759  0.13091  1.0000
  S   S99       1.0  0.31039  0.53064  0.23529  1.0000
  Fe  Fe48      1.0  0.21145  0.55818  0.29158  1.0000
  S   S100      1.0  0.17986  0.56381  0.30746  1.0000
  N   N29       1.0  0.21873  0.70485  0.48019  1.0000
  Fe  Fe49      1.0  0.22312  0.52050  0.31973  1.0000
  S   S101      1.0  0.19278  0.52262  0.33857  1.0000
  S   S102      1.0  0.31482  0.80027  0.43305  1.0000
  Fe  Fe50      1.0  0.18226  0.53134  0.30996  1.0000
  S   S103      1.0  0.15892  0.51674  0.30689  1.0000
  Fe  Fe51      1.0  0.19300  0.55469  0.33462  1.0000
  S   S104      1.0  0.18008  0.57267  0.35828  1.0000
  S   S105      1.0  0.21267  0.52659  0.29152  1.0000
  S   S106      1.0  0.22444  0.55174  0.31838  1.0000
  C   C263      1.0  0.25558  0.63142  0.48289  1.0000
  Fe  Fe52      1.0  0.23164  0.61998  0.41207  1.0000
  S   S107      1.0  0.22431  0.65230  0.39877  1.0000
  S   S108      1.0  0.24123  0.59579  0.39442  1.0000
  Fe  Fe53      1.0  0.22640  0.62771  0.45296  1.0000
  S   S109      1.0  0.21905  0.66052  0.44314  1.0000
  H   H421      1.0  0.23671  0.77319  0.48154  1.0000
  Fe  Fe54      1.0  0.20035  0.65434  0.42555  1.0000
  S   S110      1.0  0.16897  0.67155  0.42751  1.0000
  Fe  Fe55      1.0  0.24375  0.65568  0.41751  1.0000
  S   S111      1.0  0.26464  0.67647  0.40458  1.0000
  S   S112      1.0  0.20582  0.62168  0.43727  1.0000
  S   S113      1.0  0.25304  0.62315  0.42892  1.0000
  C   C264      1.0  0.32138  0.80130  0.46873  1.0000
  C   C265      1.0  0.24902  0.56571  0.25705  1.0000
  S   S114      1.0  0.29388  0.71074  0.46270  1.0000
  C   C266      1.0  0.19948  0.70560  0.47556  1.0000
  H   H422      1.0  0.22801  0.79881  0.48282  1.0000
  S   S115      1.0  0.31464  0.75118  0.46825  1.0000
  H   H423      1.0  0.28306  0.85049  0.47260  1.0000
  C   C267      1.0  0.26651  0.77773  0.45080  1.0000
  H   H424      1.0  0.22631  0.63953  0.32408  1.0000
  C   C268      1.0  0.28707  0.54466  0.24360  1.0000
  H   H425      1.0  0.17265  0.68107  0.46897  1.0000
  Fe  Fe56      1.0  0.14546  0.75199  0.47986  1.0000
  C   C269      1.0  0.05016  0.75446  0.47425  1.0000
  H   H426      1.0  0.17393  0.62741  0.48423  1.0000
  H   H427      1.0  0.23188  0.67570  0.47423  1.0000
  H   H428      1.0  0.22390  0.72994  0.45731  1.0000
  C   C270      1.0  0.16696  0.69554  0.43076  1.0000
  C   C271      1.0  0.18374  0.70367  0.42643  1.0000
  C   C272      1.0  0.18237  0.72186  0.43128  1.0000
  C   C273      1.0  0.16436  0.73164  0.44102  1.0000
  C   C274      1.0  0.14749  0.72375  0.44491  1.0000
  C   C275      1.0  0.14871  0.70590  0.43944  1.0000
  Fe  Fe57      1.0  0.31817  0.72794  0.45115  1.0000
  H   H429      1.0  0.19539  0.72808  0.42797  1.0000
  H   H430      1.0  0.13344  0.73152  0.45195  1.0000
  H   H431      1.0  0.13565  0.69979  0.44257  1.0000
  C   C276      1.0  0.27385  0.68492  0.42076  1.0000
  C   C277      1.0  0.28456  0.69998  0.41336  1.0000
  C   C278      1.0  0.29141  0.70757  0.42605  1.0000
  C   C279      1.0  0.28755  0.70010  0.44619  1.0000
  C   C280      1.0  0.27734  0.68467  0.45354  1.0000
  C   C281      1.0  0.27042  0.67712  0.44087  1.0000
  H   H432      1.0  0.28732  0.70596  0.39779  1.0000
  Fe  Fe58      1.0  0.32898  0.76816  0.44024  1.0000
  H   H433      1.0  0.26250  0.66526  0.44659  1.0000
  H   H434      1.0  0.04163  0.71463  0.47262  1.0000
  C   C282      1.0  0.15165  0.51724  0.24524  1.0000
  C   C283      1.0  0.27615  0.53752  0.26180  1.0000
  H   H435      1.0  0.18113  0.64673  0.46463  1.0000
  H   H436      1.0  0.17849  0.53418  0.26832  1.0000
  H   H437      1.0  0.19778  0.69598  0.41926  1.0000
  H   H438      1.0  0.27475  0.67860  0.46907  1.0000
  S   S116      1.0  0.01339  0.75662  0.46751  1.0000
  C   C284      1.0  0.29372  0.83677  0.47159  1.0000
  H   H439      1.0  0.14708  0.67982  0.47555  1.0000
  C   C285      1.0  0.31179  0.81124  0.45314  1.0000
  H   H440      1.0  0.15575  0.64512  0.47156  1.0000
  H   H441      1.0  0.32763  0.68017  0.47906  1.0000
  S   S117      1.0  0.24874  0.49501  0.32335  1.0000
  H   H442      1.0  0.22099  0.58769  0.33259  1.0000
  H   H443      1.0  0.28155  0.78037  0.44337  1.0000
  H   H444      1.0  0.18456  0.63557  0.32565  1.0000
  H   H445      1.0  0.29105  0.83707  0.44232  1.0000
  C   C286      1.0  0.16773  0.52687  0.26656  1.0000
  H   H446      1.0  0.03849  0.69397  0.46449  1.0000
  S   S118      1.0  0.16340  0.75295  0.44939  1.0000
  H   H447      1.0  0.28229  0.52382  0.27078  1.0000
  H   H448      1.0  0.28346  0.49805  0.25070  1.0000
  C   C287      1.0  0.25708  0.54788  0.26839  1.0000
  C   C288      1.0  0.16073  0.67708  0.48151  1.0000
  C   C289      1.0  0.19656  0.57760  0.37020  1.0000
  C   C290      1.0  0.19039  0.59345  0.38008  1.0000
  C   C291      1.0  0.20385  0.59896  0.38796  1.0000
  C   C292      1.0  0.22351  0.58850  0.38614  1.0000
  C   C293      1.0  0.22950  0.57228  0.37678  1.0000
  C   C294      1.0  0.21605  0.56676  0.36894  1.0000
  H   H449      1.0  0.17528  0.60178  0.38125  1.0000
  H   H450      1.0  0.19911  0.61143  0.39523  1.0000
  H   H451      1.0  0.24466  0.56406  0.37547  1.0000
  H   H452      1.0  0.22087  0.55434  0.36162  1.0000
  C   C295      1.0  0.15593  0.51765  0.28307  1.0000
  C   C296      1.0  0.13973  0.50818  0.26176  1.0000
  C   C297      1.0  0.14187  0.50839  0.28062  1.0000
  H   H453      1.0  0.23022  0.60426  0.34127  1.0000
  H   H454      1.0  0.12879  0.50112  0.26003  1.0000
  C   C298      1.0  0.19501  0.62261  0.33224  1.0000
  C   C299      1.0  0.23125  0.71440  0.46262  1.0000
  C   C300      1.0  0.16554  0.52671  0.24770  1.0000
  H   H455      1.0  0.14863  0.50214  0.34927  1.0000
  H   H456      1.0  0.24185  0.59735  0.31799  1.0000
  H   H457      1.0  0.20139  0.69766  0.46351  1.0000
  H   H458      1.0  0.24540  0.81464  0.44006  1.0000
  H   H459      1.0  0.18735  0.61001  0.33715  1.0000
  C   C301      1.0  0.16928  0.64325  0.47746  1.0000
  H   H460      1.0  0.21312  0.64829  0.30422  1.0000
  H   H461      1.0  0.24869  0.54194  0.28230  1.0000
  H   H462      1.0  0.29931  0.71945  0.42026  1.0000
  C   C302      1.0  0.22300  0.63527  0.31153  1.0000
  H   H463      1.0  0.20257  0.59948  0.30593  1.0000
  C   C303      1.0  0.29830  0.82921  0.45443  1.0000
  N   N30       1.0  0.21376  0.61789  0.31821  1.0000
  H   H464      1.0  0.23719  0.63223  0.30092  1.0000
  H   H465      1.0  0.26849  0.76228  0.45933  1.0000
  H   H466      1.0  0.22353  0.60846  0.29049  1.0000
  C   C304      1.0  0.20969  0.61250  0.30125  1.0000
  H   H467      1.0  0.19957  0.62481  0.29343  1.0000
  H   H468      1.0  0.28247  0.79233  0.47233  1.0000
  H   H469      1.0  0.25947  0.62995  0.46771  1.0000
  N   N31       1.0  0.25597  0.79218  0.46347  1.0000
  H   H470      1.0  0.19172  0.72111  0.47069  1.0000
  H   H471      1.0  0.07941  0.75224  0.47926  1.0000
  H   H472      1.0  0.19292  0.81531  0.47809  1.0000
  H   H473      1.0  0.13261  0.50135  0.29334  1.0000
  H   H474      1.0  0.01837  0.71478  0.46750  1.0000
  H   H475      1.0  0.24574  0.71462  0.46565  1.0000
  H   H476      1.0  0.19760  0.62592  0.34563  1.0000
  C   C305      1.0  0.26716  0.79022  0.47885  1.0000
  C   C306      1.0  0.25420  0.81241  0.45152  1.0000
  H   H477      1.0  0.28184  0.64158  0.48154  1.0000
  H   H478      1.0  0.31863  0.55729  0.25715  1.0000
  H   H479      1.0  0.05545  0.75286  0.45914  1.0000
  C   C307      1.0  0.22735  0.60111  0.32791  1.0000
  C   C308      1.0  0.02979  0.75697  0.48224  1.0000
  H   H480      1.0  0.22682  0.79053  0.46167  1.0000
  C   C309      1.0  0.23601  0.78846  0.47276  1.0000
  S   S119      1.0  0.22458  0.57786  0.26467  1.0000
  C   C310      1.0  0.26029  0.57335  0.23921  1.0000
  H   H481      1.0  0.23440  0.70650  0.45027  1.0000
  S   S120      1.0  0.32980  0.74622  0.42224  1.0000
  H   H482      1.0  0.25840  0.77871  0.43910  1.0000
  H   H483      1.0  0.26900  0.81550  0.44389  1.0000
  C   C311      1.0  0.03112  0.70506  0.47389  1.0000
  H   H484      1.0  0.24676  0.82375  0.46070  1.0000
  H   H485      1.0  0.26344  0.97537  0.47881  1.0000
  H   H486      1.0  0.31704  0.58236  0.25860  1.0000
  C   C312      1.0  0.32751  0.56800  0.25720  1.0000
  S   S121      1.0  0.16397  0.74651  0.50243  1.0000
  H   H487      1.0  0.27080  0.60360  0.67380  1.0000
  S   S122      1.0  0.26474  0.56753  0.70123  1.0000
  H   H488      1.0  0.25415  0.58647  0.57706  1.0000
  C   C313      1.0  0.32323  0.70627  0.58431  1.0000
  H   H489      1.0  0.31196  0.83440  0.55441  1.0000
  H   H490      1.0  0.30110  0.58846  0.71821  1.0000
  Fe  Fe59      1.0  0.23238  0.85391  0.55002  1.0000
  S   S123      1.0  0.20942  0.87203  0.53257  1.0000
  S   S124      1.0  0.22859  0.84376  0.58257  1.0000
  C   C314      1.0  0.19254  0.82436  0.50465  1.0000
  C   C315      1.0  0.21546  0.71540  0.49634  1.0000
  Fe  Fe60      1.0  0.23310  0.88929  0.51709  1.0000
  S   S125      1.0  0.22463  0.92280  0.51146  1.0000
  Fe  Fe61      1.0  0.22397  0.85178  0.51114  1.0000
  S   S126      1.0  0.31237  0.84008  0.59914  1.0000
  S   S127      1.0  0.25503  0.87223  0.53591  1.0000
  S   S128      1.0  0.24450  0.83206  0.53034  1.0000
  S   S129      1.0  0.24332  0.97066  0.56569  1.0000
  Fe  Fe62      1.0  0.27085  0.62337  0.59404  1.0000
  S   S130      1.0  0.29564  0.63250  0.57031  1.0000
  S   S131      1.0  0.27064  0.59181  0.60916  1.0000
  Fe  Fe63      1.0  0.24361  0.66333  0.58574  1.0000
  S   S132      1.0  0.26608  0.67622  0.56165  1.0000
  S   S133      1.0  0.21269  0.68070  0.59386  1.0000
  Fe  Fe64      1.0  0.27259  0.64731  0.55219  1.0000
  S   S134      1.0  0.28026  0.64662  0.52009  1.0000
  Fe  Fe65      1.0  0.28737  0.66065  0.58163  1.0000
  S   S135      1.0  0.31342  0.67294  0.58125  1.0000
  S   S136      1.0  0.24853  0.63545  0.57475  1.0000
  S   S137      1.0  0.26422  0.65041  0.60704  1.0000
  Fe  Fe66      1.0  0.32223  0.76743  0.60598  1.0000
  C   C316      1.0  0.22275  0.64576  0.64637  1.0000
  Fe  Fe67      1.0  0.13941  0.76820  0.51657  1.0000
  S   S138      1.0  0.12303  0.74485  0.53484  1.0000
  S   S139      1.0  0.14279  0.79042  0.53238  1.0000
  Fe  Fe68      1.0  0.26402  0.53516  0.71191  1.0000
  H   H491      1.0  0.22004  0.62398  0.52372  1.0000
  H   H492      1.0  0.28390  0.55942  0.57654  1.0000
  H   H493      1.0  0.24541  0.57591  0.56146  1.0000
  H   H494      1.0  0.05123  0.80503  0.56151  1.0000
  Fe  Fe69      1.0  0.14609  0.72390  0.51840  1.0000
  S   S140      1.0  0.16295  0.69327  0.52846  1.0000
  H   H495      1.0  0.10492  0.80366  0.51882  1.0000
  S   S141      1.0  0.12875  0.72803  0.49508  1.0000
  H   H496      1.0  0.13585  0.65407  0.50313  1.0000
  H   H497      1.0  0.26933  0.59534  0.52271  1.0000
  H   H498      1.0  0.28075  0.60930  0.54520  1.0000
  H   H499      1.0  0.24772  0.60121  0.55447  1.0000
  S   S142      1.0  0.12234  0.77606  0.49235  1.0000
  H   H500      1.0  0.23843  0.63812  0.64677  1.0000
  H   H501      1.0  0.26532  0.80350  0.56113  1.0000
  C   C317      1.0  0.19939  0.68538  0.57494  1.0000
  C   C318      1.0  0.20633  0.67478  0.55979  1.0000
  C   C319      1.0  0.19502  0.67730  0.54563  1.0000
  C   C320      1.0  0.17708  0.69114  0.54598  1.0000
  C   C321      1.0  0.17048  0.70249  0.56054  1.0000
  C   C322      1.0  0.18147  0.69935  0.57523  1.0000
  H   H502      1.0  0.22026  0.66438  0.55907  1.0000
  H   H503      1.0  0.20026  0.66850  0.53441  1.0000
  H   H504      1.0  0.15663  0.71324  0.56085  1.0000
  H   H505      1.0  0.17607  0.70776  0.58678  1.0000
  C   C323      1.0  0.25473  0.58617  0.56150  1.0000
  H   H506      1.0  0.31674  0.69380  0.66825  1.0000
  C   C324      1.0  0.08824  0.78394  0.55334  1.0000
  C   C325      1.0  0.30825  0.69560  0.58865  1.0000
  H   H507      1.0  0.32003  0.67284  0.54108  1.0000
  C   C326      1.0  0.30136  0.73081  0.60215  1.0000
  C   C327      1.0  0.28626  0.72036  0.60617  1.0000
  C   C328      1.0  0.28964  0.70282  0.59930  1.0000
  H   H508      1.0  0.27197  0.72571  0.61479  1.0000
  H   H509      1.0  0.27802  0.69465  0.60263  1.0000
  H   H510      1.0  0.18871  0.63771  0.50673  1.0000
  C   C329      1.0  0.18354  0.82359  0.52439  1.0000
  C   C330      1.0  0.16828  0.81313  0.53278  1.0000
  C   C331      1.0  0.16221  0.80309  0.52161  1.0000
  H   H511      1.0  0.18291  0.66295  0.50910  1.0000
  C   C332      1.0  0.28392  0.55996  0.56089  1.0000
  H   H512      1.0  0.18821  0.83119  0.53313  1.0000
  H   H513      1.0  0.16123  0.81275  0.54800  1.0000
  H   H514      1.0  0.07905  0.83408  0.54243  1.0000
  H   H515      1.0  0.20344  0.60464  0.65794  1.0000
  C   C333      1.0  0.23054  0.93622  0.52597  1.0000
  C   C334      1.0  0.21925  0.95523  0.52750  1.0000
  C   C335      1.0  0.22315  0.96604  0.53946  1.0000
  C   C336      1.0  0.23851  0.95796  0.54986  1.0000
  C   C337      1.0  0.25005  0.93912  0.54802  1.0000
  C   C338      1.0  0.24615  0.92832  0.53606  1.0000
  H   H516      1.0  0.20716  0.96145  0.51971  1.0000
  H   H517      1.0  0.26201  0.93281  0.55596  1.0000
  H   H518      1.0  0.25522  0.91389  0.53466  1.0000
  C   C339      1.0  0.31662  0.84814  0.54550  1.0000
  C   C340      1.0  0.27745  0.85922  0.58763  1.0000
  C   C341      1.0  0.25897  0.85999  0.58372  1.0000
  C   C342      1.0  0.25099  0.84306  0.58899  1.0000
  C   C343      1.0  0.26147  0.82536  0.59849  1.0000
  C   C344      1.0  0.28021  0.82446  0.60200  1.0000
  H   H519      1.0  0.15794  0.68742  0.49162  1.0000
  H   H520      1.0  0.25097  0.87370  0.57653  1.0000
  H   H521      1.0  0.25532  0.81224  0.60272  1.0000
  H   H522      1.0  0.28835  0.81068  0.60911  1.0000
  C   C345      1.0  0.26605  0.57459  0.67569  1.0000
  C   C346      1.0  0.26915  0.59342  0.66574  1.0000
  C   C347      1.0  0.27060  0.59892  0.64529  1.0000
  C   C348      1.0  0.26891  0.58560  0.63477  1.0000
  C   C349      1.0  0.26553  0.56694  0.64478  1.0000
  C   C350      1.0  0.26404  0.56147  0.66516  1.0000
  H   H523      1.0  0.30809  0.72802  0.64973  1.0000
  H   H524      1.0  0.27348  0.61325  0.63766  1.0000
  H   H525      1.0  0.26415  0.55656  0.63677  1.0000
  H   H526      1.0  0.26141  0.54701  0.67268  1.0000
  H   H527      1.0  0.29075  0.57561  0.52229  1.0000
  H   H528      1.0  0.26641  0.57023  0.52934  1.0000
  C   C351      1.0  0.28828  0.84137  0.59642  1.0000
  H   H529      1.0  0.28734  0.77059  0.52462  1.0000
  H   H530      1.0  0.21241  0.61569  0.62212  1.0000
  N   N32       1.0  0.02466  0.69559  0.49449  1.0000
  H   H531      1.0  0.24179  0.63691  0.53719  1.0000
  H   H532      1.0  0.29014  0.80718  0.55180  1.0000
  N   N33       1.0  0.21138  0.63250  0.64349  1.0000
  H   H533      1.0  0.27778  0.75022  0.55841  1.0000
  H   H534      1.0  0.31292  0.85883  0.55542  1.0000
  H   H535      1.0  0.23601  0.61867  0.62393  1.0000
  S   S143      1.0  0.29699  0.75211  0.61180  1.0000
  H   H536      1.0  0.19712  0.65604  0.48655  1.0000
  H   H537      1.0  0.30733  0.85430  0.53415  1.0000
  H   H538      1.0  0.15354  0.63608  0.51593  1.0000
  C   C352      1.0  0.23346  0.62795  0.51449  1.0000
  H   H539      1.0  0.32483  0.80150  0.49760  1.0000
  H   H540      1.0  0.21944  0.67626  0.49918  1.0000
  H   H541      1.0  0.25629  0.96807  0.50485  1.0000
  H   H542      1.0  0.31575  0.70661  0.52048  1.0000
  N   N34       1.0  0.20299  0.90743  0.58550  1.0000
  C   C353      1.0  0.21236  0.89420  0.60159  1.0000
  C   C354      1.0  0.18174  0.90704  0.58973  1.0000
  C   C355      1.0  0.21257  0.90057  0.56699  1.0000
  C   C356      1.0  0.20533  0.92780  0.58361  1.0000
  H   H543      1.0  0.22835  0.89440  0.59899  1.0000
  H   H544      1.0  0.21138  0.87858  0.60303  1.0000
  H   H545      1.0  0.20524  0.89864  0.61590  1.0000
  H   H546      1.0  0.17430  0.91682  0.57780  1.0000
  H   H547      1.0  0.17958  0.89183  0.59113  1.0000
  H   H548      1.0  0.17395  0.91208  0.60364  1.0000
  H   H549      1.0  0.20577  0.90998  0.55448  1.0000
  H   H550      1.0  0.21140  0.88512  0.56804  1.0000
  H   H551      1.0  0.22854  0.90088  0.56318  1.0000
  H   H552      1.0  0.19923  0.93802  0.57103  1.0000
  H   H553      1.0  0.22120  0.92846  0.58109  1.0000
  H   H554      1.0  0.19771  0.93378  0.59706  1.0000
  Fe  Fe70      1.0  0.26538  0.85189  0.51467  1.0000
  H   H555      1.0  0.29786  0.70153  0.50957  1.0000
  H   H556      1.0  0.10462  0.78139  0.55136  1.0000
  H   H557      1.0  0.20571  0.61910  0.67412  1.0000
  C   C357      1.0  0.00988  0.68400  0.49562  1.0000
  H   H558      1.0  0.22284  0.65904  0.63429  1.0000
  H   H559      1.0  0.22743  0.60642  0.65985  1.0000
  H   H560      1.0  0.22965  0.71476  0.50053  1.0000
  C   C358      1.0  0.17137  0.80368  0.50194  1.0000
  H   H561      1.0  0.28772  0.59379  0.56726  1.0000
  H   H562      1.0  0.21948  0.63904  0.61212  1.0000
  H   H563      1.0  0.08260  0.82024  0.51309  1.0000
  H   H564      1.0  0.18989  0.65657  0.63130  1.0000
  H   H565      1.0  0.05148  0.82112  0.53783  1.0000
  H   H566      1.0  0.05427  0.79500  0.54012  1.0000
  H   H567      1.0  0.31934  0.70967  0.49442  1.0000
  C   C359      1.0  0.05709  0.75632  0.50510  1.0000
  H   H568      1.0  0.07880  0.81801  0.56613  1.0000
  S   S144      1.0  0.07357  0.75614  0.51997  1.0000
  C   C360      1.0  0.05825  0.80639  0.54572  1.0000
  C   C361      1.0  0.27546  0.58027  0.53051  1.0000
  H   H569      1.0  0.30126  0.66883  0.53095  1.0000
  H   H570      1.0  0.00379  0.72216  0.50000  1.0000
  N   N35       1.0  0.32490  0.67952  0.50969  1.0000
  H   H571      1.0  0.29953  0.55494  0.55362  1.0000
  S   S145      1.0  0.32376  0.78400  0.62806  1.0000
  H   H572      1.0  0.29198  0.79457  0.52250  1.0000
  C   C362      1.0  0.21197  0.61493  0.65956  1.0000
  H   H573      1.0  0.27542  0.54904  0.56061  1.0000
  S   S146      1.0  0.23715  0.52266  0.71607  1.0000
  H   H574      1.0  0.31733  0.77887  0.54325  1.0000
  H   H575      1.0  0.25783  0.77075  0.56376  1.0000
  C   C363      1.0  0.19067  0.64319  0.64331  1.0000
  C   C364      1.0  0.03672  0.75883  0.51309  1.0000
  C   C365      1.0  0.26822  0.63802  0.49073  1.0000
  H   H576      1.0  0.05344  0.69074  0.50121  1.0000
  C   C366      1.0  0.08493  0.81894  0.55019  1.0000
  C   C367      1.0  0.26346  0.63970  0.51041  1.0000
  H   H577      1.0  0.18348  0.64820  0.65734  1.0000
  H   H578      1.0  0.28373  0.79250  0.57581  1.0000
  C   C368      1.0  0.26617  0.97642  0.49307  1.0000
  C   C369      1.0  0.14999  0.65170  0.50813  1.0000
  H   H579      1.0  0.25549  0.99059  0.52655  1.0000
  H   H580      1.0  0.27545  0.76046  0.57944  1.0000
  N   N36       1.0  0.07996  0.80373  0.54274  1.0000
  C   C370      1.0  0.31395  0.70025  0.50855  1.0000
  H   H581      1.0  0.31830  0.51812  0.70929  1.0000
  H   H582      1.0  0.18168  0.63372  0.64093  1.0000
  H   H583      1.0  0.00746  0.76122  0.50802  1.0000
  Fe  Fe71      1.0  0.28923  0.49528  0.72568  1.0000
  H   H584      1.0  0.30593  0.67272  0.49439  1.0000
  H   H585      1.0  0.26726  0.79056  0.53111  1.0000
  C   C371      1.0  0.24582  0.63512  0.52217  1.0000
  H   H586      1.0  0.28358  0.87234  0.58338  1.0000
  H   H587      1.0  0.20562  0.70887  0.50967  1.0000
  H   H588      1.0  0.21636  0.65107  0.66037  1.0000
  H   H589      1.0  0.08212  0.78201  0.56934  1.0000
  H   H590      1.0  0.08518  0.79418  0.51551  1.0000
  H   H591      1.0  0.30264  0.59014  0.54382  1.0000
  H   H592      1.0  0.31182  0.75522  0.54550  1.0000
  S   S147      1.0  0.29699  0.83563  0.50903  1.0000
  N   N37       1.0  0.28635  0.77822  0.55199  1.0000
  C   C372      1.0  0.28305  0.78369  0.53166  1.0000
  C   C373      1.0  0.27379  0.76428  0.56386  1.0000
  C   C374      1.0  0.28120  0.79613  0.56052  1.0000
  C   C375      1.0  0.30739  0.76873  0.55195  1.0000
  C   C376      1.0  0.18630  0.81448  0.49345  1.0000
  S   S148      1.0  0.28477  0.51228  0.69589  1.0000
  N   N38       1.0  0.27531  0.58006  0.55117  1.0000
  C   C377      1.0  0.28713  0.59391  0.55190  1.0000
  H   H593      1.0  0.08489  0.77207  0.54800  1.0000
  C   C378      1.0  0.31971  0.72401  0.59084  1.0000
  H   H594      1.0  0.26834  0.77533  0.48848  1.0000
  C   C379      1.0  0.22020  0.62618  0.62459  1.0000
  H   H595      1.0  0.03141  0.76061  0.52814  1.0000
  H   H596      1.0  0.10131  0.81712  0.54802  1.0000
  C   C380      1.0  0.08853  0.80554  0.52161  1.0000
  Fe  Fe72      1.0  0.10702  0.75150  0.50984  1.0000
  C   C381      1.0  0.32193  0.67169  0.49369  1.0000
  H   H597      1.0  0.32727  0.74078  0.63646  1.0000
  H   H598      1.0  0.32390  0.57181  0.72290  1.0000
  S   S149      1.0  0.21171  0.83730  0.49346  1.0000
  C   C382      1.0  0.32314  0.72975  0.64979  1.0000
  C   C383      1.0  0.02311  0.75917  0.50173  1.0000
  H   H599      1.0  0.14742  0.66131  0.51897  1.0000
  S   S150      1.0  0.32405  0.79298  0.58103  1.0000
  C   C384      1.0  0.23842  0.62598  0.49486  1.0000
  H   H600      1.0  0.21394  0.98039  0.54101  1.0000
  H   H601      1.0  0.02687  0.71900  0.50708  1.0000
  H   H602      1.0  0.31040  0.76413  0.56706  1.0000
  N   N39       1.0  0.16612  0.65630  0.49148  1.0000
  H   H603      1.0  0.16664  0.79618  0.49315  1.0000
  Fe  Fe73      1.0  0.32849  0.80857  0.60230  1.0000
  H   H604      1.0  0.00463  0.67667  0.51097  1.0000
  S   S151      1.0  0.24579  0.87064  0.49399  1.0000
  H   H605      1.0  0.00916  0.70464  0.52167  1.0000
  Fe  Fe74      1.0  0.25848  0.49841  0.70220  1.0000
  C   C385      1.0  0.31742  0.66768  0.52877  1.0000
  H   H606      1.0  0.20833  0.73124  0.49215  1.0000
  C   C386      1.0  0.01573  0.71096  0.50639  1.0000
  C   C387      1.0  0.18452  0.65317  0.49877  1.0000
  H   H607      1.0  0.32407  0.70107  0.63166  1.0000
  H   H608      1.0  0.03764  0.67530  0.51773  1.0000
  C   C388      1.0  0.32921  0.51515  0.71830  1.0000
  H   H609      1.0  0.30427  0.56267  0.71892  1.0000
  S   S152      1.0  0.22320  0.61660  0.48548  1.0000
  H   H610      1.0  0.24303  0.68296  0.49030  1.0000
  H   H611      1.0  0.32950  0.65592  0.49434  1.0000
  H   H612      1.0  0.28167  0.96861  0.49403  1.0000
  C   C389      1.0  0.04195  0.68240  0.50210  1.0000
  H   H613      1.0  0.04896  0.67048  0.49359  1.0000
  H   H614      1.0  0.28117  0.99005  0.51636  1.0000
  H   H615      1.0  0.32208  0.73629  0.66263  1.0000
  H   H616      1.0  0.32469  0.65178  0.52997  1.0000
  H   H617      1.0  0.26002  0.80148  0.48816  1.0000
  C   C390      1.0  0.30317  0.82676  0.48721  1.0000
  H   H618      1.0  0.18946  0.69895  0.48857  1.0000
  H   H619      1.0  0.33052  0.70194  0.68138  1.0000
  C   C391      1.0  0.30751  0.57347  0.72587  1.0000
  C   C392      1.0  0.22866  0.68403  0.48623  1.0000
  C   C393      1.0  0.06378  0.75409  0.48562  1.0000
  H   H620      1.0  0.01596  0.67241  0.48661  1.0000
  C   C394      1.0  0.31732  0.80923  0.48562  1.0000
  H   H621      1.0  0.14786  0.50619  0.90837  1.0000
  S   S153      1.0  0.27083  0.51920  0.74140  1.0000
  H   H622      1.0  0.15583  0.51606  0.93603  1.0000
  S   S154      1.0  0.22744  0.49566  0.77390  1.0000
  H   H623      1.0  0.30558  0.53871  0.75034  1.0000
  C   C395      1.0  0.30601  0.53808  0.82931  1.0000
  H   H624      1.0  0.27079  0.56987  0.76620  1.0000
  H   H625      1.0  0.29788  0.58279  0.77185  1.0000
  H   H626      1.0  0.27385  0.56142  0.74383  1.0000
  H   H627      1.0  0.18129  0.51160  0.90597  1.0000
  H   H628      1.0  0.32457  0.54842  0.75461  1.0000
  H   H629      1.0  0.29690  0.60035  0.74911  1.0000
  S   S155      1.0  0.30990  0.55838  0.81024  1.0000
  N   N40       1.0  0.29922  0.57029  0.74712  1.0000
  Fe  Fe75      1.0  0.24592  0.50438  0.74414  1.0000
  H   H630      1.0  0.31987  0.58388  0.75339  1.0000
  H   H631      1.0  0.19744  0.49475  0.92115  1.0000
  C   C396      1.0  0.30361  0.58503  0.75572  1.0000
  H   H632      1.0  0.14771  0.49497  0.95253  1.0000
  C   C397      1.0  0.28433  0.51944  0.85457  1.0000
  C   C398      1.0  0.30933  0.50414  0.78924  1.0000
  C   C399      1.0  0.30826  0.55029  0.75663  1.0000
  H   H633      1.0  0.31966  0.50628  0.77484  1.0000
  S   S156      1.0  0.23899  0.49523  0.89748  1.0000
  C   C400      1.0  0.19762  0.49730  0.75536  1.0000
  C   C401      1.0  0.32234  0.52378  0.83446  1.0000
  C   C402      1.0  0.27757  0.57229  0.75031  1.0000
  H   H634      1.0  0.27416  0.54679  0.83526  1.0000
  C   C403      1.0  0.16062  0.50007  0.94215  1.0000
  C   C404      1.0  0.30092  0.50558  0.86002  1.0000
  H   H635      1.0  0.26962  0.51777  0.86239  1.0000
  C   C405      1.0  0.28690  0.53581  0.83923  1.0000
  H   H636      1.0  0.27027  0.58720  0.74327  1.0000
  C   C406      1.0  0.31985  0.50774  0.84981  1.0000
  H   H637      1.0  0.17395  0.49845  0.74112  1.0000
  H   H638      1.0  0.31105  0.51439  0.79782  1.0000
  H   H639      1.0  0.20598  0.50504  0.74247  1.0000
  H   H640      1.0  0.29399  0.50875  0.78640  1.0000
  H   H641      1.0  0.30236  0.54750  0.77270  1.0000
  H   H642      1.0  0.17209  0.49866  0.95082  1.0000
  C   C407      1.0  0.18557  0.49586  0.91315  1.0000
  H   H643      1.0  0.27379  0.49315  0.97353  1.0000
  C   C408      1.0  0.17956  0.49348  0.75458  1.0000
  C   C409      1.0  0.60057  0.23197  0.11156  1.0000
  H   H644      1.0  0.64851  0.08823  0.19147  1.0000
  S   S157      1.0  0.63127  0.23247  0.17940  1.0000
  H   H645      1.0  0.60745  0.34822  0.15347  1.0000
  Fe  Fe76      1.0  0.57182  0.16986  0.05780  1.0000
  S   S158      1.0  0.55887  0.14521  0.07840  1.0000
  S   S159      1.0  0.57520  0.17706  0.02475  1.0000
  Fe  Fe77      1.0  0.57229  0.18927  0.09118  1.0000
  S   S160      1.0  0.55899  0.16651  0.11456  1.0000
  Fe  Fe78      1.0  0.57998  0.14489  0.09711  1.0000
  S   S161      1.0  0.59726  0.11653  0.11224  1.0000
  Fe  Fe79      1.0  0.53909  0.16878  0.09407  1.0000
  S   S162      1.0  0.50630  0.17104  0.10153  1.0000
  S   S163      1.0  0.59502  0.16762  0.07501  1.0000
  S   S164      1.0  0.55034  0.19349  0.07222  1.0000
  C   C410      1.0  0.49810  0.08686  0.22148  1.0000
  C   C411      1.0  0.35948  0.47157  0.17976  1.0000
  Fe  Fe80      1.0  0.57018  0.05081  0.20851  1.0000
  H   H646      1.0  0.60351  0.21707  0.16116  1.0000
  S   S165      1.0  0.54969  0.07256  0.19012  1.0000
  S   S166      1.0  0.65184  0.26624  0.18509  1.0000
  H   H647      1.0  0.48414  0.21274  0.20276  1.0000
  H   H648      1.0  0.56022  0.24874  0.18680  1.0000
  H   H649      1.0  0.59641  0.20076  0.18372  1.0000
  S   S167      1.0  0.59702  0.02770  0.19963  1.0000
  S   S168      1.0  0.59771  0.28559  0.18051  1.0000
  Fe  Fe81      1.0  0.47643  0.25480  0.15887  1.0000
  S   S169      1.0  0.47891  0.28651  0.14884  1.0000
  S   S170      1.0  0.46070  0.24342  0.14205  1.0000
  Fe  Fe82      1.0  0.49608  0.24839  0.19337  1.0000
  S   S171      1.0  0.50076  0.27926  0.18587  1.0000
  H   H650      1.0  0.63739  0.18194  0.12165  1.0000
  Fe  Fe83      1.0  0.46970  0.28776  0.18076  1.0000
  S   S172      1.0  0.45063  0.31359  0.19365  1.0000
  Fe  Fe84      1.0  0.50954  0.27504  0.15489  1.0000
  S   S173      1.0  0.53581  0.28351  0.13280  1.0000
  S   S174      1.0  0.46428  0.25704  0.19038  1.0000
  S   S175      1.0  0.50782  0.24307  0.16289  1.0000
  S   S176      1.0  0.65101  0.21066  0.13324  1.0000
  H   H651      1.0  0.54241  0.22243  0.18858  1.0000
  S   S177      1.0  0.35785  0.32588  0.20614  1.0000
  H   H652      1.0  0.48619  0.12321  0.22967  1.0000
  C   C412      1.0  0.47676  0.18737  0.22415  1.0000
  H   H653      1.0  0.63893  0.07939  0.14626  1.0000
  H   H654      1.0  0.58604  0.24569  0.17592  1.0000
  S   S178      1.0  0.35590  0.38376  0.18625  1.0000
  C   C413      1.0  0.34396  0.44084  0.20664  1.0000
  C   C414      1.0  0.42491  0.31664  0.19718  1.0000
  C   C415      1.0  0.41271  0.33401  0.20259  1.0000
  C   C416      1.0  0.39208  0.33694  0.20538  1.0000
  C   C417      1.0  0.38358  0.32232  0.20314  1.0000
  C   C418      1.0  0.39575  0.30480  0.19803  1.0000
  C   C419      1.0  0.41642  0.30206  0.19479  1.0000
  N   N41       1.0  0.62965  0.32905  0.16902  1.0000
  H   H655      1.0  0.38275  0.35040  0.20954  1.0000
  H   H656      1.0  0.38919  0.29347  0.19626  1.0000
  H   H657      1.0  0.42574  0.28868  0.19046  1.0000
  C   C420      1.0  0.58085  0.28750  0.16578  1.0000
  C   C421      1.0  0.58721  0.28169  0.14765  1.0000
  C   C422      1.0  0.57331  0.28185  0.13681  1.0000
  C   C423      1.0  0.55306  0.28711  0.14445  1.0000
  C   C424      1.0  0.54680  0.29372  0.16215  1.0000
  C   C425      1.0  0.56067  0.29402  0.17276  1.0000
  H   H658      1.0  0.60276  0.27677  0.14207  1.0000
  H   H659      1.0  0.57823  0.27698  0.12297  1.0000
  H   H660      1.0  0.53125  0.29875  0.16762  1.0000
  H   H661      1.0  0.55570  0.29877  0.18667  1.0000
  C   C426      1.0  0.58337  0.10389  0.13309  1.0000
  C   C427      1.0  0.59277  0.08609  0.14352  1.0000
  C   C428      1.0  0.58252  0.07650  0.16107  1.0000
  C   C429      1.0  0.56260  0.08433  0.16797  1.0000
  C   C430      1.0  0.55297  0.10179  0.15722  1.0000
  C   C431      1.0  0.56337  0.11163  0.13986  1.0000
  H   H662      1.0  0.60802  0.07975  0.13800  1.0000
  H   H663      1.0  0.58997  0.06289  0.16908  1.0000
  H   H664      1.0  0.53751  0.10783  0.16238  1.0000
  H   H665      1.0  0.55589  0.12516  0.13174  1.0000
  C   C432      1.0  0.49398  0.19092  0.11318  1.0000
  C   C433      1.0  0.50433  0.20026  0.12100  1.0000
  C   C434      1.0  0.49417  0.21612  0.13034  1.0000
  C   C435      1.0  0.47376  0.22298  0.13140  1.0000
  C   C436      1.0  0.46352  0.21378  0.12333  1.0000
  C   C437      1.0  0.47356  0.19766  0.11443  1.0000
  H   H666      1.0  0.52010  0.19508  0.12013  1.0000
  H   H667      1.0  0.50214  0.22305  0.13657  1.0000
  H   H668      1.0  0.44774  0.21900  0.12414  1.0000
  H   H669      1.0  0.46550  0.19047  0.10843  1.0000
  H   H670      1.0  0.59047  0.24602  0.10843  1.0000
  C   C438      1.0  0.60887  0.33909  0.16825  1.0000
  C   C439      1.0  0.56509  0.13071  0.00831  1.0000
  C   C440      1.0  0.56974  0.14208  0.01926  1.0000
  C   C441      1.0  0.56797  0.16244  0.01250  1.0000
  H   H671      1.0  0.62168  0.30544  0.19252  1.0000
  H   H672      1.0  0.41842  0.35179  0.14322  1.0000
  H   H673      1.0  0.56692  0.11489  0.01333  1.0000
  H   H674      1.0  0.57527  0.13501  0.03259  1.0000
  H   H675      1.0  0.55912  0.18726  0.99011  1.0000
  S   S179      1.0  0.50687  0.22927  0.22006  1.0000
  C   C442      1.0  0.59727  0.21509  0.10742  1.0000
  C   C443      1.0  0.59160  0.20918  0.16985  1.0000
  H   H676      1.0  0.60807  0.18396  0.10794  1.0000
  H   H677      1.0  0.61937  0.24384  0.12293  1.0000
  N   N42       1.0  0.52555  0.25776  0.09108  1.0000
  C   C444      1.0  0.61048  0.19702  0.11120  1.0000
  H   H678      1.0  0.59095  0.19842  0.16131  1.0000
  C   C445      1.0  0.52226  0.27924  0.09007  1.0000
  C   C446      1.0  0.53170  0.24702  0.10969  1.0000
  S   S180      1.0  0.64194  0.04704  0.20763  1.0000
  H   H679      1.0  0.49499  0.25638  0.10281  1.0000
  H   H680      1.0  0.37155  0.37062  0.12412  1.0000
  H   H681      1.0  0.50170  0.26077  0.07650  1.0000
  H   H682      1.0  0.47460  0.26872  0.22218  1.0000
  C   C447      1.0  0.65077  0.19830  0.22821  1.0000
  H   H683      1.0  0.51064  0.28397  0.10255  1.0000
  H   H684      1.0  0.51760  0.28793  0.07624  1.0000
  H   H685      1.0  0.53597  0.28341  0.09094  1.0000
  H   H686      1.0  0.54582  0.25021  0.11078  1.0000
  H   H687      1.0  0.64150  0.35340  0.14995  1.0000
  C   C448      1.0  0.61688  0.23077  0.11976  1.0000
  N   N43       1.0  0.50880  0.15979  0.04735  1.0000
  C   C449      1.0  0.51898  0.14160  0.05895  1.0000
  C   C450      1.0  0.51006  0.15662  0.02749  1.0000
  C   C451      1.0  0.51838  0.17624  0.04589  1.0000
  C   C452      1.0  0.48782  0.16472  0.05709  1.0000
  H   H688      1.0  0.51823  0.14346  0.07408  1.0000
  H   H689      1.0  0.53491  0.13753  0.05210  1.0000
  H   H690      1.0  0.51223  0.12884  0.06030  1.0000
  H   H691      1.0  0.50259  0.17003  0.01824  1.0000
  H   H692      1.0  0.52572  0.15296  0.01980  1.0000
  H   H693      1.0  0.50318  0.14417  0.02797  1.0000
  H   H694      1.0  0.53440  0.17273  0.03936  1.0000
  H   H695      1.0  0.51724  0.17942  0.06054  1.0000
  H   H696      1.0  0.51158  0.19008  0.03668  1.0000
  H   H697      1.0  0.47971  0.17847  0.04883  1.0000
  H   H698      1.0  0.48644  0.16710  0.07216  1.0000
  H   H699      1.0  0.48012  0.15263  0.05846  1.0000
  H   H700      1.0  0.57819  0.23018  0.19878  1.0000
  H   H701      1.0  0.33912  0.44431  0.14553  1.0000
  Fe  Fe85      1.0  0.62684  0.26543  0.17195  1.0000
  H   H702      1.0  0.49898  0.07064  0.22465  1.0000
  C   C453      1.0  0.56088  0.17145  0.99518  1.0000
  C   C454      1.0  0.63702  0.31626  0.15433  1.0000
  N   N44       1.0  0.63560  0.09898  0.16576  1.0000
  H   H703      1.0  0.65778  0.33667  0.16502  1.0000
  S   S181      1.0  0.57626  0.21697  0.09796  1.0000
  C   C455      1.0  0.63061  0.20694  0.23251  1.0000
  C   C456      1.0  0.55704  0.21221  0.18549  1.0000
  C   C457      1.0  0.54128  0.25205  0.07452  1.0000
  C   C458      1.0  0.61714  0.11172  0.16014  1.0000
  C   C459      1.0  0.57425  0.23754  0.18428  1.0000
  Fe  Fe86      1.0  0.34181  0.35764  0.20016  1.0000
  H   H704      1.0  0.50916  0.23660  0.09071  1.0000
  H   H705      1.0  0.55512  0.20132  0.17781  1.0000
  Fe  Fe87      1.0  0.61160  0.04035  0.21660  1.0000
  H   H706      1.0  0.39950  0.35503  0.16458  1.0000
  N   N45       1.0  0.39000  0.34786  0.14156  1.0000
  C   C460      1.0  0.40532  0.34630  0.15276  1.0000
  C   C461      1.0  0.39828  0.33585  0.12626  1.0000
  C   C462      1.0  0.38346  0.36875  0.13236  1.0000
  C   C463      1.0  0.37292  0.34055  0.15493  1.0000
  H   H707      1.0  0.45846  0.24021  0.23290  1.0000
  C   C464      1.0  0.64199  0.34388  0.16472  1.0000
  C   C465      1.0  0.49655  0.20830  0.22837  1.0000
  H   H708      1.0  0.40330  0.31999  0.13280  1.0000
  H   H709      1.0  0.38707  0.33672  0.11755  1.0000
  H   H710      1.0  0.41125  0.34091  0.11593  1.0000
  H   H711      1.0  0.63270  0.11241  0.19029  1.0000
  Fe  Fe88      1.0  0.33331  0.39221  0.16713  1.0000
  H   H712      1.0  0.37734  0.37823  0.14354  1.0000
  H   H713      1.0  0.36088  0.34176  0.14710  1.0000
  H   H714      1.0  0.36647  0.34914  0.16677  1.0000
  H   H715      1.0  0.37721  0.32481  0.16220  1.0000
  H   H716      1.0  0.55222  0.24440  0.15696  1.0000
  H   H717      1.0  0.41066  0.33072  0.15985  1.0000
  C   C466      1.0  0.34934  0.47433  0.19854  1.0000
  H   H718      1.0  0.62525  0.07215  0.17055  1.0000
  H   H719      1.0  0.39586  0.37478  0.12198  1.0000
  C   C467      1.0  0.33342  0.48388  0.13948  1.0000
  S   S182      1.0  0.36773  0.49118  0.16230  1.0000
  H   H720      1.0  0.53402  0.23075  0.11122  1.0000
  C   C468      1.0  0.35404  0.43814  0.18785  1.0000
  C   C469      1.0  0.36206  0.45338  0.17452  1.0000
  H   H721      1.0  0.36999  0.45116  0.16006  1.0000
  Fe  Fe89      1.0  0.65096  0.23366  0.14971  1.0000
  H   H722      1.0  0.55554  0.25537  0.07503  1.0000
  C   C470      1.0  0.56661  0.23368  0.15477  1.0000
  H   H723      1.0  0.52040  0.25143  0.12236  1.0000
  C   C471      1.0  0.63022  0.21272  0.12335  1.0000
  H   H724      1.0  0.64619  0.30910  0.18993  1.0000
  H   H725      1.0  0.60395  0.10562  0.16852  1.0000
  H   H726      1.0  0.59923  0.32818  0.17156  1.0000
  C   C472      1.0  0.48569  0.20372  0.21703  1.0000
  H   H727      1.0  0.54424  0.23589  0.07501  1.0000
  S   S183      1.0  0.64435  0.26683  0.14125  1.0000
  H   H728      1.0  0.53727  0.25987  0.06017  1.0000
  C   C473      1.0  0.62702  0.19589  0.11899  1.0000
  C   C474      1.0  0.50703  0.25270  0.09019  1.0000
  H   H729      1.0  0.35584  0.42427  0.18358  1.0000
  C   C475      1.0  0.55847  0.13968  0.99069  1.0000
  H   H730      1.0  0.56527  0.22332  0.14612  1.0000
  N   N46       1.0  0.57238  0.22312  0.17362  1.0000
  H   H731      1.0  0.50931  0.09019  0.20791  1.0000
  H   H732      1.0  0.33893  0.46201  0.11176  1.0000
  C   C476      1.0  0.63794  0.07901  0.16204  1.0000
  C   C477      1.0  0.34179  0.45889  0.21205  1.0000
  H   H733      1.0  0.62546  0.22250  0.22694  1.0000
  H   H734      1.0  0.63710  0.35363  0.17567  1.0000
  S   S184      1.0  0.33362  0.42192  0.22325  1.0000
  H   H735      1.0  0.57779  0.24215  0.14561  1.0000
  Fe  Fe90      1.0  0.58635  0.00919  0.22882  1.0000
  H   H736      1.0  0.53343  0.08573  0.22906  1.0000
  H   H737      1.0  0.61740  0.11312  0.14429  1.0000
  C   C478      1.0  0.50089  0.11478  0.23296  1.0000
  C   C479      1.0  0.64871  0.05464  0.22607  1.0000
  H   H738      1.0  0.33418  0.46100  0.22660  1.0000
  S   S185      1.0  0.34020  0.40541  0.13514  1.0000
  H   H739      1.0  0.51229  0.11872  0.21982  1.0000
  H   H740      1.0  0.65155  0.06888  0.16645  1.0000
  C   C480      1.0  0.63469  0.09763  0.18681  1.0000
  H   H741      1.0  0.41925  0.34529  0.20451  1.0000
  H   H742      1.0  0.46829  0.18388  0.21538  1.0000
  H   H743      1.0  0.65141  0.12259  0.15654  1.0000
  H   H744      1.0  0.43868  0.27390  0.22299  1.0000
  H   H745      1.0  0.65366  0.10883  0.13807  1.0000
  H   H746      1.0  0.60278  0.34891  0.17910  1.0000
  H   H747      1.0  0.34924  0.47649  0.13555  1.0000
  H   H748      1.0  0.62226  0.09077  0.19608  1.0000
  H   H749      1.0  0.56081  0.20411  0.19989  1.0000
  C   C481      1.0  0.63072  0.31690  0.18880  1.0000
  H   H750      1.0  0.63705  0.32495  0.13916  1.0000
  H   H751      1.0  0.62772  0.30526  0.15677  1.0000
  H   H752      1.0  0.62522  0.32606  0.20026  1.0000
  H   H753      1.0  0.61483  0.12692  0.16274  1.0000
  Fe  Fe91      1.0  0.33168  0.39954  0.20716  1.0000
  S   S186      1.0  0.58585  0.06487  0.22274  1.0000
  H   H754      1.0  0.48325  0.09441  0.21812  1.0000
  H   H755      1.0  0.65238  0.30788  0.15495  1.0000
  Fe  Fe92      1.0  0.65828  0.23333  0.18933  1.0000
  H   H756      1.0  0.34755  0.48829  0.20274  1.0000
  C   C482      1.0  0.65264  0.10753  0.15404  1.0000
  S   S187      1.0  0.61847  0.13387  0.32237  1.0000
  S   S188      1.0  0.61753  0.10691  0.29146  1.0000
  Fe  Fe93      1.0  0.61463  0.10327  0.32378  1.0000
  S   S189      1.0  0.58932  0.08886  0.34081  1.0000
  H   H757      1.0  0.34918  0.11233  0.39447  1.0000
  Fe  Fe94      1.0  0.44317  0.13977  0.32537  1.0000
  S   S190      1.0  0.46216  0.16073  0.30690  1.0000
  S   S191      1.0  0.41526  0.15331  0.34435  1.0000
  Fe  Fe95      1.0  0.47164  0.10457  0.31117  1.0000
  S   S192      1.0  0.49341  0.12239  0.29197  1.0000
  S   S193      1.0  0.47791  0.07250  0.31044  1.0000
  Fe  Fe96      1.0  0.48721  0.13748  0.31728  1.0000
  S   S194      1.0  0.50932  0.14855  0.32671  1.0000
  Fe  Fe97      1.0  0.46648  0.14364  0.28347  1.0000
  S   S195      1.0  0.46673  0.15573  0.25159  1.0000
  S   S196      1.0  0.46805  0.11756  0.33746  1.0000
  S   S197      1.0  0.44497  0.12482  0.30083  1.0000
  Fe  Fe98      1.0  0.36970  0.11969  0.44999  1.0000
  H   H758      1.0  0.61177  0.05160  0.27749  1.0000
  S   S198      1.0  0.39954  0.10859  0.43234  1.0000
  C   C483      1.0  0.54389  0.14326  0.27708  1.0000
  H   H759      1.0  0.64525  0.04192  0.30184  1.0000
  S   S199      1.0  0.60806  0.16271  0.27100  1.0000
  H   H760      1.0  0.47687  0.17168  0.38408  1.0000
  H   H761      1.0  0.65773  0.19803  0.31598  1.0000
  H   H762      1.0  0.58217  0.14305  0.26145  1.0000
  H   H763      1.0  0.64924  0.15147  0.25310  1.0000
  H   H764      1.0  0.35581  0.15273  0.35085  1.0000
  C   C484      1.0  0.40442  0.12133  0.40807  1.0000
  C   C485      1.0  0.39573  0.14130  0.40282  1.0000
  C   C486      1.0  0.39948  0.15113  0.38323  1.0000
  C   C487      1.0  0.41173  0.14096  0.36885  1.0000
  C   C488      1.0  0.42073  0.12110  0.37414  1.0000
  C   C489      1.0  0.41720  0.11134  0.39378  1.0000
  H   H765      1.0  0.38628  0.14921  0.41387  1.0000
  H   H766      1.0  0.39285  0.16662  0.37918  1.0000
  H   H767      1.0  0.42995  0.11307  0.36307  1.0000
  H   H768      1.0  0.42395  0.09587  0.39782  1.0000
  C   C490      1.0  0.63473  0.06590  0.23873  1.0000
  H   H769      1.0  0.62746  0.06445  0.29782  1.0000
  N   N47       1.0  0.34383  0.14330  0.38140  1.0000
  H   H770      1.0  0.53879  0.03759  0.27460  1.0000
  H   H771      1.0  0.52471  0.08680  0.25468  1.0000
  C   C491      1.0  0.48951  0.18022  0.25397  1.0000
  Fe  Fe99      1.0  0.62393  0.13623  0.28983  1.0000
  H   H772      1.0  0.61940  0.06999  0.23735  1.0000
  H   H773      1.0  0.53158  0.13808  0.28846  1.0000
  H   H774      1.0  0.49096  0.17121  0.26826  1.0000
  C   C492      1.0  0.56655  0.10520  0.33838  1.0000
  C   C493      1.0  0.54961  0.09797  0.33998  1.0000
  C   C494      1.0  0.53183  0.11114  0.33640  1.0000
  C   C495      1.0  0.53095  0.13152  0.33171  1.0000
  C   C496      1.0  0.54768  0.13868  0.33073  1.0000
  C   C497      1.0  0.56546  0.12556  0.33387  1.0000
  H   H775      1.0  0.55038  0.08221  0.34345  1.0000
  H   H776      1.0  0.51889  0.10554  0.33727  1.0000
  H   H777      1.0  0.54702  0.15443  0.32721  1.0000
  H   H778      1.0  0.57830  0.13128  0.33288  1.0000
  S   S200      1.0  0.35277  0.15114  0.44656  1.0000
  N   N48       1.0  0.55918  0.12647  0.27068  1.0000
  C   C498      1.0  0.64068  0.07209  0.25309  1.0000
  C   C499      1.0  0.55025  0.11463  0.26251  1.0000
  C   C500      1.0  0.47085  0.27086  0.23752  1.0000
  C   C501      1.0  0.54425  0.05833  0.28871  1.0000
  C   C502      1.0  0.53603  0.07113  0.30184  1.0000
  C   C503      1.0  0.51564  0.07481  0.30924  1.0000
  C   C504      1.0  0.50358  0.06528  0.30393  1.0000
  C   C505      1.0  0.51198  0.05145  0.29185  1.0000
  C   C506      1.0  0.53236  0.04805  0.28414  1.0000
  H   H779      1.0  0.54530  0.07856  0.30593  1.0000
  H   H780      1.0  0.50920  0.08514  0.31898  1.0000
  H   H781      1.0  0.50267  0.04387  0.28795  1.0000
  H   H782      1.0  0.47137  0.09672  0.25330  1.0000
  Fe  Fe100     1.0  0.57655  0.04372  0.25003  1.0000
  Fe  Fe101     1.0  0.64968  0.09494  0.29131  1.0000
  H   H783      1.0  0.59153  0.06441  0.30641  1.0000
  H   H784      1.0  0.64687  0.12270  0.40082  1.0000
  C   C507      1.0  0.35882  0.14045  0.36343  1.0000
  H   H785      1.0  0.35806  0.16223  0.38957  1.0000
  S   S201      1.0  0.64666  0.08895  0.32397  1.0000
  S   S202      1.0  0.56904  0.05660  0.27710  1.0000
  H   H786      1.0  0.60186  0.20262  0.24908  1.0000
  C   C508      1.0  0.47849  0.17574  0.24269  1.0000
  S   S203      1.0  0.34398  0.10691  0.45037  1.0000
  H   H787      1.0  0.33758  0.12852  0.41141  1.0000
  H   H788      1.0  0.44612  0.28285  0.26907  1.0000
  N   N49       1.0  0.45246  0.26415  0.24813  1.0000
  H   H789      1.0  0.58347  0.04149  0.31467  1.0000
  H   H790      1.0  0.49043  0.12494  0.36546  1.0000
  C   C509      1.0  0.65782  0.12649  0.36959  1.0000
  H   H791      1.0  0.50316  0.12027  0.24525  1.0000
  H   H792      1.0  0.45997  0.13717  0.41271  1.0000
  H   H793      1.0  0.65117  0.20017  0.26584  1.0000
  H   H794      1.0  0.47094  0.15699  0.35052  1.0000
  H   H795      1.0  0.37392  0.13984  0.36549  1.0000
  H   H796      1.0  0.55571  0.10833  0.29939  1.0000
  H   H797      1.0  0.48374  0.26239  0.24436  1.0000
  Fe  Fe102     1.0  0.33807  0.10454  0.48284  1.0000
  C   C510      1.0  0.62413  0.17584  0.25310  1.0000
  C   C511      1.0  0.64365  0.17576  0.30004  1.0000
  N   N50       1.0  0.46903  0.14554  0.38144  1.0000
  H   H798      1.0  0.63155  0.18643  0.30737  1.0000
  C   C512      1.0  0.48649  0.08879  0.25567  1.0000
  H   H799      1.0  0.46036  0.25845  0.27627  1.0000
  H   H800      1.0  0.62908  0.05175  0.32237  1.0000
  H   H801      1.0  0.36344  0.12618  0.40086  1.0000
  C   C513      1.0  0.49862  0.19646  0.24676  1.0000
  C   C514      1.0  0.44811  0.26701  0.26854  1.0000
  H   H802      1.0  0.45155  0.17111  0.36583  1.0000
  H   H803      1.0  0.57448  0.12231  0.29408  1.0000
  H   H804      1.0  0.62991  0.08092  0.26265  1.0000
  H   H805      1.0  0.59364  0.05043  0.33048  1.0000
  S   S204      1.0  0.60352  0.02000  0.24494  1.0000
  H   H806      1.0  0.61888  0.01934  0.33474  1.0000
  H   H807      1.0  0.63135  0.03010  0.27986  1.0000
  H   H808      1.0  0.44574  0.16016  0.40173  1.0000
  H   H809      1.0  0.48661  0.07269  0.25998  1.0000
  H   H810      1.0  0.57876  0.10084  0.28356  1.0000
  H   H811      1.0  0.46822  0.11652  0.37871  1.0000
  H   H812      1.0  0.53820  0.10867  0.27363  1.0000
  H   H813      1.0  0.56139  0.10170  0.25777  1.0000
  H   H814      1.0  0.49110  0.14883  0.39532  1.0000
  C   C515      1.0  0.57521  0.13402  0.25565  1.0000
  C   C516      1.0  0.47899  0.12511  0.37920  1.0000
  C   C517      1.0  0.56745  0.11392  0.28765  1.0000
  H   H815      1.0  0.44148  0.23729  0.25592  1.0000
  H   H816      1.0  0.44219  0.13720  0.39892  1.0000
  C   C518      1.0  0.45975  0.15586  0.36439  1.0000
  H   H817      1.0  0.48654  0.11704  0.39160  1.0000
  C   C519      1.0  0.45359  0.14502  0.39951  1.0000
  H   H818      1.0  0.49566  0.15658  0.36913  1.0000
  H   H819      1.0  0.44903  0.14794  0.36266  1.0000
  C   C520      1.0  0.48379  0.15614  0.38260  1.0000
  H   H820      1.0  0.60588  0.02779  0.28618  1.0000
  N   N51       1.0  0.61511  0.03855  0.30714  1.0000
  C   C521      1.0  0.61935  0.01859  0.31934  1.0000
  C   C522      1.0  0.62987  0.04959  0.30737  1.0000
  C   C523      1.0  0.59508  0.04914  0.31505  1.0000
  C   C524      1.0  0.61614  0.03688  0.28681  1.0000
  H   H821      1.0  0.63429  0.01017  0.31362  1.0000
  H   H822      1.0  0.60833  0.00995  0.31963  1.0000
  H   H823      1.0  0.64621  0.21384  0.28484  1.0000
  S   S205      1.0  0.36523  0.11467  0.48271  1.0000
  S   S206      1.0  0.65663  0.12468  0.28692  1.0000
  H   H824      1.0  0.63802  0.17236  0.28843  1.0000
  C   C525      1.0  0.65785  0.12809  0.38871  1.0000
  H   H825      1.0  0.64691  0.11987  0.36704  1.0000
  C   C526      1.0  0.34362  0.16220  0.38641  1.0000
  H   H826      1.0  0.42170  0.27133  0.24600  1.0000
  Fe  Fe103     1.0  0.65093  0.11997  0.31979  1.0000
  Fe  Fe104     1.0  0.34587  0.14497  0.47935  1.0000
  C   C527      1.0  0.66048  0.06641  0.25525  1.0000
  C   C528      1.0  0.34875  0.12686  0.39773  1.0000
  C   C529      1.0  0.45503  0.24296  0.24808  1.0000
  H   H827      1.0  0.55011  0.15229  0.28364  1.0000
  H   H828      1.0  0.64640  0.16188  0.31106  1.0000
  H   H829      1.0  0.34034  0.17493  0.37429  1.0000
  H   H830      1.0  0.50699  0.20002  0.25556  1.0000
  C   C530      1.0  0.61729  0.19571  0.24505  1.0000
  C   C531      1.0  0.64404  0.16697  0.24774  1.0000
  H   H831      1.0  0.48889  0.09330  0.26848  1.0000
  N   N52       1.0  0.50175  0.09327  0.23805  1.0000
  H   H832      1.0  0.46755  0.23377  0.25515  1.0000
  H   H833      1.0  0.35931  0.12639  0.35916  1.0000
  H   H834      1.0  0.53733  0.15322  0.26468  1.0000
  H   H835      1.0  0.43384  0.29192  0.23775  1.0000
  H   H836      1.0  0.43432  0.26207  0.27699  1.0000
  H   H837      1.0  0.58717  0.12173  0.25075  1.0000
  H   H838      1.0  0.56959  0.14356  0.24256  1.0000
  N   N53       1.0  0.66181  0.18368  0.29187  1.0000
  C   C532      1.0  0.43592  0.27580  0.23838  1.0000
  C   C533      1.0  0.52153  0.08266  0.24204  1.0000
  H   H839      1.0  0.52268  0.06638  0.24563  1.0000
  H   H840      1.0  0.46943  0.28688  0.23689  1.0000
  C   C534      1.0  0.65734  0.20236  0.27770  1.0000
  H   H841      1.0  0.54382  0.12362  0.24966  1.0000
  S   S207      1.0  0.55832  0.03151  0.23652  1.0000
  H   H842      1.0  0.33218  0.16496  0.39966  1.0000
  C   C535      1.0  0.65739  0.17824  0.23552  1.0000
  C   C536      1.0  0.38093  0.08398  0.73517  1.0000
  S   S208      1.0  0.59915  0.18290  0.69153  1.0000
  H   H843      1.0  0.40771  0.08713  0.70167  1.0000
  H   H844      1.0  0.38223  0.14115  0.49921  1.0000
  S   S209      1.0  0.59416  0.13726  0.71204  1.0000
  H   H845      1.0  0.49550  0.13354  0.62336  1.0000
  Fe  Fe105     1.0  0.61898  0.15284  0.69661  1.0000
  S   S210      1.0  0.64350  0.14073  0.67348  1.0000
  Fe  Fe106     1.0  0.57480  0.16773  0.70955  1.0000
  S   S211      1.0  0.54339  0.17816  0.70492  1.0000
  H   H846      1.0  0.50603  0.06894  0.72415  1.0000
  H   H847      1.0  0.47942  0.11704  0.67690  1.0000
  S   S212      1.0  0.49839  0.11111  0.71090  1.0000
  H   H848      1.0  0.35235  0.09858  0.54776  1.0000
  S   S213      1.0  0.38134  0.11199  0.56847  1.0000
  S   S214      1.0  0.35632  0.08371  0.61949  1.0000
  H   H849      1.0  0.64705  0.19108  0.70547  1.0000
  C   C537      1.0  0.36071  0.08845  0.53764  1.0000
  C   C538      1.0  0.33741  0.42847  0.72787  1.0000
  C   C539      1.0  0.37206  0.12914  0.54904  1.0000
  C   C540      1.0  0.38272  0.12947  0.52983  1.0000
  C   C541      1.0  0.37418  0.14132  0.51408  1.0000
  C   C542      1.0  0.35526  0.15331  0.51755  1.0000
  C   C543      1.0  0.34496  0.15362  0.53677  1.0000
  C   C544      1.0  0.35327  0.14139  0.55249  1.0000
  H   H850      1.0  0.39727  0.12007  0.52710  1.0000
  H   H851      1.0  0.48270  0.06171  0.72940  1.0000
  H   H852      1.0  0.33281  0.39205  0.72912  1.0000
  H   H853      1.0  0.34500  0.14137  0.56727  1.0000
  C   C545      1.0  0.65989  0.19796  0.70355  1.0000
  H   H854      1.0  0.33482  0.07160  0.56618  1.0000
  Fe  Fe107     1.0  0.35588  0.10878  0.59359  1.0000
  H   H855      1.0  0.48703  0.14788  0.67941  1.0000
  C   C546      1.0  0.65529  0.17608  0.66288  1.0000
  H   H856      1.0  0.37740  0.04948  0.57189  1.0000
  C   C547      1.0  0.39937  0.12099  0.66900  1.0000
  C   C548      1.0  0.39695  0.11632  0.65204  1.0000
  C   C549      1.0  0.37861  0.11346  0.65074  1.0000
  C   C550      1.0  0.36256  0.11527  0.66641  1.0000
  C   C551      1.0  0.36483  0.12037  0.68323  1.0000
  H   H857      1.0  0.40936  0.11472  0.63991  1.0000
  H   H858      1.0  0.37698  0.10963  0.63767  1.0000
  S   S215      1.0  0.33968  0.11086  0.66552  1.0000
  H   H859      1.0  0.63621  0.19472  0.60171  1.0000
  C   C552      1.0  0.37573  0.05494  0.53394  1.0000
  H   H860      1.0  0.36565  0.07415  0.57496  1.0000
  H   H861      1.0  0.50129  0.15597  0.62514  1.0000
  S   S216      1.0  0.33119  0.07792  0.50529  1.0000
  H   H862      1.0  0.64110  0.18216  0.67112  1.0000
  S   S217      1.0  0.40837  0.12273  0.72901  1.0000
  H   H863      1.0  0.37818  0.03905  0.54110  1.0000
  H   H864      1.0  0.35240  0.09108  0.52575  1.0000
  Fe  Fe108     1.0  0.46531  0.11883  0.71679  1.0000
  C   C553      1.0  0.53084  0.15926  0.70765  1.0000
  C   C554      1.0  0.51017  0.16376  0.71002  1.0000
  C   C555      1.0  0.49991  0.14891  0.71181  1.0000
  C   C556      1.0  0.51044  0.12964  0.71066  1.0000
  C   C557      1.0  0.53104  0.12513  0.70845  1.0000
  C   C558      1.0  0.54121  0.13988  0.70708  1.0000
  H   H865      1.0  0.50214  0.17876  0.71048  1.0000
  H   H866      1.0  0.48395  0.15247  0.71372  1.0000
  H   H867      1.0  0.53924  0.11022  0.70767  1.0000
  H   H868      1.0  0.55712  0.13630  0.70511  1.0000
  C   C559      1.0  0.64535  0.19119  0.58752  1.0000
  H   H869      1.0  0.39047  0.05876  0.52753  1.0000
  S   S218      1.0  0.44482  0.14536  0.70333  1.0000
  H   H870      1.0  0.65827  0.16663  0.61887  1.0000
  S   S219      1.0  0.45128  0.09723  0.71054  1.0000
  C   C560      1.0  0.55793  0.23322  0.72885  1.0000
  S   S220      1.0  0.42284  0.12365  0.67040  1.0000
  H   H871      1.0  0.33398  0.15359  0.64282  1.0000
  H   H872      1.0  0.41999  0.07294  0.72124  1.0000
  H   H873      1.0  0.44568  0.27208  0.71710  1.0000
  H   H874      1.0  0.38500  0.05535  0.70243  1.0000
  H   H875      1.0  0.37504  0.09301  0.53084  1.0000
  C   C561      1.0  0.37810  0.06731  0.71092  1.0000
  N   N54       1.0  0.36384  0.06758  0.54796  1.0000
  H   H876      1.0  0.56544  0.21944  0.72317  1.0000
  H   H877      1.0  0.54605  0.24110  0.72045  1.0000
  H   H878      1.0  0.47595  0.15355  0.63037  1.0000
  Fe  Fe109     1.0  0.60444  0.18473  0.72035  1.0000
  S   S221      1.0  0.60933  0.21292  0.72461  1.0000
  S   S222      1.0  0.34375  0.16653  0.49792  1.0000
  H   H879      1.0  0.36820  0.05678  0.52153  1.0000
  H   H880      1.0  0.49714  0.16394  0.65805  1.0000
  H   H881      1.0  0.35162  0.41783  0.72440  1.0000
  H   H882      1.0  0.44707  0.24725  0.73087  1.0000
  H   H883      1.0  0.42453  0.26089  0.72303  1.0000
  H   H884      1.0  0.38880  0.06990  0.55834  1.0000
  H   H885      1.0  0.66421  0.20400  0.68766  1.0000
  H   H886      1.0  0.41766  0.06120  0.70286  1.0000
  N   N55       1.0  0.39087  0.06823  0.72387  1.0000
  C   C562      1.0  0.38321  0.12319  0.68455  1.0000
  Fe  Fe110     1.0  0.42895  0.12351  0.69972  1.0000
  H   H887      1.0  0.47155  0.16236  0.66256  1.0000
  H   H888      1.0  0.50545  0.04350  0.72647  1.0000
  C   C563      1.0  0.37444  0.06509  0.56395  1.0000
  H   H889      1.0  0.56916  0.24250  0.72541  1.0000
  H   H890      1.0  0.44654  0.17758  0.72249  1.0000
  H   H891      1.0  0.38482  0.12726  0.69747  1.0000
  C   C564      1.0  0.43720  0.26221  0.72870  1.0000
  S   S223      1.0  0.33876  0.13214  0.61062  1.0000
  H   H892      1.0  0.46998  0.19707  0.72407  1.0000
  H   H893      1.0  0.35239  0.12202  0.69531  1.0000
  H   H894      1.0  0.36341  0.06456  0.71939  1.0000
  H   H895      1.0  0.63850  0.18107  0.58311  1.0000
  N   N56       1.0  0.49240  0.13732  0.65279  1.0000
  C   C565      1.0  0.51284  0.12651  0.65432  1.0000
  C   C566      1.0  0.47867  0.12371  0.66130  1.0000
  C   C567      1.0  0.49126  0.14546  0.63198  1.0000
  C   C568      1.0  0.48678  0.15364  0.66361  1.0000
  H   H896      1.0  0.51420  0.12029  0.66987  1.0000
  H   H897      1.0  0.52361  0.13634  0.64811  1.0000
  H   H898      1.0  0.51756  0.11395  0.64649  1.0000
  H   H899      1.0  0.46303  0.13147  0.66080  1.0000
  H   H900      1.0  0.48215  0.11136  0.65333  1.0000
  S   S224      1.0  0.62615  0.15586  0.72424  1.0000
  Fe  Fe111     1.0  0.33677  0.10676  0.63622  1.0000
  H   H901      1.0  0.40235  0.03684  0.72964  1.0000
  C   C569      1.0  0.34455  0.06181  0.55625  1.0000
  H   H902      1.0  0.33961  0.44348  0.71990  1.0000
  C   C570      1.0  0.66024  0.15610  0.66180  1.0000
  H   H903      1.0  0.66055  0.15284  0.60042  1.0000
  H   H904      1.0  0.64428  0.20517  0.57635  1.0000
  C   C571      1.0  0.49796  0.05707  0.73246  1.0000
  H   H905      1.0  0.33656  0.06250  0.54457  1.0000
  H   H906      1.0  0.33855  0.41419  0.69624  1.0000
  C   C572      1.0  0.40988  0.07256  0.71187  1.0000
  Fe  Fe112     1.0  0.42606  0.14249  0.73364  1.0000
  H   H907      1.0  0.65451  0.21068  0.71120  1.0000
  H   H908      1.0  0.42493  0.30020  0.73238  1.0000
  H   H909      1.0  0.37789  0.09867  0.72533  1.0000
  H   H910      1.0  0.37538  0.08136  0.70008  1.0000
  H   H911      1.0  0.34635  0.04648  0.56504  1.0000
  H   H912      1.0  0.33098  0.17735  0.64860  1.0000
  Fe  Fe113     1.0  0.63338  0.23823  0.85126  1.0000
  S   S225      1.0  0.62164  0.27022  0.83989  1.0000
  S   S226      1.0  0.63285  0.22769  0.88349  1.0000
  Fe  Fe114     1.0  0.64079  0.22743  0.81163  1.0000
  S   S227      1.0  0.63013  0.25868  0.79680  1.0000
  H   H913      1.0  0.57481  0.20503  0.75524  1.0000
  H   H914      1.0  0.51457  0.12744  0.78634  1.0000
  C   C573      1.0  0.41724  0.28950  0.74374  1.0000
  Fe  Fe115     1.0  0.60554  0.25935  0.82307  1.0000
  S   S228      1.0  0.57379  0.27293  0.82050  1.0000
  H   H915      1.0  0.34480  0.48013  0.78878  1.0000
  S   S229      1.0  0.61498  0.22760  0.83684  1.0000
  S   S230      1.0  0.36778  0.33186  0.78707  1.0000
  H   H916      1.0  0.35390  0.34337  0.84523  1.0000
  H   H917      1.0  0.37644  0.42399  0.80817  1.0000
  C   C574      1.0  0.38562  0.46255  0.77103  1.0000
  H   H918      1.0  0.33459  0.42866  0.74378  1.0000
  C   C575      1.0  0.56630  0.21864  0.76060  1.0000
  C   C576      1.0  0.59393  0.18416  0.94902  1.0000
  H   H919      1.0  0.37948  0.44714  0.82746  1.0000
  Fe  Fe116     1.0  0.51555  0.02148  0.83291  1.0000
  H   H920      1.0  0.40251  0.34634  0.78569  1.0000
  C   C577      1.0  0.40582  0.33042  0.78997  1.0000
  Fe  Fe117     1.0  0.47107  0.22182  0.78332  1.0000
  S   S231      1.0  0.44406  0.23525  0.80310  1.0000
  S   S232      1.0  0.47283  0.21553  0.75387  1.0000
  Fe  Fe118     1.0  0.49878  0.22134  0.80914  1.0000
  S   S233      1.0  0.47459  0.23502  0.83135  1.0000
  S   S234      1.0  0.53083  0.21039  0.81084  1.0000
  Fe  Fe119     1.0  0.45794  0.21422  0.82733  1.0000
  S   S235      1.0  0.43954  0.19781  0.85282  1.0000
  Fe  Fe120     1.0  0.46276  0.25498  0.80545  1.0000
  S   S236      1.0  0.45315  0.28793  0.80310  1.0000
  S   S237      1.0  0.48310  0.19876  0.80723  1.0000
  S   S238      1.0  0.48882  0.24330  0.78354  1.0000
  Fe  Fe121     1.0  0.51730  0.06339  0.81059  1.0000
  S   S239      1.0  0.49878  0.07734  0.83557  1.0000
  S   S240      1.0  0.52433  0.08284  0.78113  1.0000
  S   S241      1.0  0.49646  0.03197  0.85986  1.0000
  Fe  Fe122     1.0  0.48017  0.05547  0.83894  1.0000
  S   S242      1.0  0.44764  0.06751  0.84110  1.0000
  Fe  Fe123     1.0  0.51690  0.05291  0.85410  1.0000
  S   S243      1.0  0.52615  0.05740  0.88022  1.0000
  S   S244      1.0  0.49735  0.04320  0.81260  1.0000
  S   S245      1.0  0.53739  0.04071  0.82865  1.0000
  Fe  Fe124     1.0  0.54377  0.17995  0.92011  1.0000
  S   S246      1.0  0.54781  0.21019  0.91911  1.0000
  Fe  Fe125     1.0  0.55121  0.14252  0.90402  1.0000
  S   S247      1.0  0.56342  0.12991  0.87652  1.0000
  Fe  Fe126     1.0  0.51061  0.15862  0.92578  1.0000
  S   S248      1.0  0.47802  0.16174  0.92781  1.0000
  S   S249      1.0  0.53025  0.17185  0.89914  1.0000
  S   S250      1.0  0.56712  0.15212  0.92234  1.0000
  H   H921      1.0  0.56147  0.17735  0.82310  1.0000
  S   S251      1.0  0.34762  0.38977  0.77095  1.0000
  H   H922      1.0  0.39023  0.08501  0.74511  1.0000
  H   H923      1.0  0.33517  0.37021  0.89859  1.0000
  C   C578      1.0  0.38416  0.47038  0.80237  1.0000
  H   H924      1.0  0.46390  0.15943  0.79155  1.0000
  C   C579      1.0  0.53735  0.07718  0.87833  1.0000
  C   C580      1.0  0.54174  0.07995  0.89526  1.0000
  C   C581      1.0  0.54984  0.09602  0.89468  1.0000
  C   C582      1.0  0.55370  0.10943  0.87712  1.0000
  C   C583      1.0  0.54949  0.10661  0.86006  1.0000
  C   C584      1.0  0.54122  0.09055  0.86068  1.0000
  H   H925      1.0  0.53888  0.06959  0.90893  1.0000
  H   H926      1.0  0.55343  0.09778  0.90780  1.0000
  H   H927      1.0  0.55224  0.11698  0.84644  1.0000
  H   H928      1.0  0.53787  0.08849  0.84754  1.0000
  C   C585      1.0  0.42933  0.29983  0.79875  1.0000
  C   C586      1.0  0.42465  0.32048  0.79369  1.0000
  H   H929      1.0  0.43571  0.32884  0.79244  1.0000
  H   H930      1.0  0.41828  0.27326  0.80466  1.0000
  C   C587      1.0  0.45061  0.18856  0.87343  1.0000
  C   C588      1.0  0.47076  0.18756  0.87205  1.0000
  C   C589      1.0  0.47936  0.17953  0.88870  1.0000
  C   C590      1.0  0.46780  0.17274  0.90676  1.0000
  H   H931      1.0  0.47976  0.19259  0.85810  1.0000
  H   H932      1.0  0.49491  0.17838  0.88744  1.0000
  C   C591      1.0  0.63912  0.28258  0.87768  1.0000
  Fe  Fe127     1.0  0.59944  0.14308  0.73939  1.0000
  Fe  Fe128     1.0  0.35719  0.36280  0.79302  1.0000
  C   C592      1.0  0.43271  0.06833  0.78274  1.0000
  C   C593      1.0  0.42851  0.08581  0.78979  1.0000
  C   C594      1.0  0.43262  0.08544  0.80799  1.0000
  C   C595      1.0  0.44138  0.06767  0.81895  1.0000
  C   C596      1.0  0.44553  0.05017  0.81192  1.0000
  C   C597      1.0  0.44082  0.05044  0.79402  1.0000
  H   H933      1.0  0.42179  0.09961  0.78141  1.0000
  H   H934      1.0  0.42926  0.09896  0.81347  1.0000
  H   H935      1.0  0.45213  0.03637  0.82047  1.0000
  H   H936      1.0  0.44377  0.03681  0.78883  1.0000
  C   C598      1.0  0.33406  0.47802  0.80293  1.0000
  H   H937      1.0  0.54035  0.11133  0.74992  1.0000
  H   H938      1.0  0.60300  0.12451  0.81151  1.0000
  C   C599      1.0  0.45587  0.20203  0.75310  1.0000
  C   C600      1.0  0.44026  0.19885  0.76886  1.0000
  H   H939      1.0  0.62302  0.17855  0.91757  1.0000
  S   S252      1.0  0.55359  0.12506  0.97676  1.0000
  H   H940      1.0  0.38595  0.32080  0.88184  1.0000
  H   H941      1.0  0.43862  0.20447  0.78194  1.0000
  N   N57       1.0  0.49763  0.05366  0.75365  1.0000
  H   H942      1.0  0.58775  0.17794  0.79237  1.0000
  H   H943      1.0  0.59656  0.17361  0.82444  1.0000
  H   H944      1.0  0.62955  0.15212  0.92463  1.0000
  H   H945      1.0  0.57738  0.12723  0.81152  1.0000
  H   H946      1.0  0.59877  0.14922  0.97461  1.0000
  H   H947      1.0  0.49418  0.08450  0.75319  1.0000
  H   H948      1.0  0.39728  0.30267  0.83526  1.0000
  C   C601      1.0  0.56408  0.16114  0.82423  1.0000
  N   N58       1.0  0.54991  0.22879  0.75013  1.0000
  C   C602      1.0  0.60961  0.22203  0.89386  1.0000
  C   C603      1.0  0.60396  0.20707  0.88850  1.0000
  C   C604      1.0  0.58506  0.20300  0.89652  1.0000
  C   C605      1.0  0.57169  0.21433  0.90937  1.0000
  C   C606      1.0  0.57731  0.22937  0.91455  1.0000
  C   C607      1.0  0.59637  0.23300  0.90706  1.0000
  H   H949      1.0  0.61418  0.19867  0.87816  1.0000
  H   H950      1.0  0.58069  0.19147  0.89237  1.0000
  H   H951      1.0  0.56693  0.23816  0.92447  1.0000
  H   H952      1.0  0.60063  0.24469  0.91105  1.0000
  C   C608      1.0  0.56218  0.25629  0.81581  1.0000
  C   C609      1.0  0.57280  0.23742  0.81332  1.0000
  C   C610      1.0  0.56306  0.22345  0.81173  1.0000
  C   C611      1.0  0.54272  0.22846  0.81206  1.0000
  C   C612      1.0  0.53219  0.24768  0.81340  1.0000
  C   C613      1.0  0.54193  0.26158  0.81538  1.0000
  H   H953      1.0  0.58856  0.23354  0.81264  1.0000
  H   H954      1.0  0.57142  0.20878  0.81022  1.0000
  H   H955      1.0  0.51650  0.25174  0.81331  1.0000
  H   H956      1.0  0.53376  0.27633  0.81690  1.0000
  C   C614      1.0  0.56436  0.11727  0.75891  1.0000
  C   C615      1.0  0.54883  0.10781  0.76133  1.0000
  C   C616      1.0  0.54440  0.09382  0.77831  1.0000
  C   C617      1.0  0.55565  0.08926  0.79289  1.0000
  C   C618      1.0  0.57169  0.09829  0.79013  1.0000
  H   H957      1.0  0.42903  0.24103  0.76507  1.0000
  H   H958      1.0  0.55225  0.07852  0.80610  1.0000
  H   H959      1.0  0.58076  0.09427  0.80112  1.0000
  H   H960      1.0  0.39835  0.33809  0.82787  1.0000
  C   C619      1.0  0.63127  0.18844  0.77402  1.0000
  H   H961      1.0  0.48447  0.11258  0.77284  1.0000
  H   H962      1.0  0.45997  0.13517  0.79316  1.0000
  H   H963      1.0  0.43864  0.16863  0.92192  1.0000
  H   H964      1.0  0.48603  0.03496  0.78017  1.0000
  H   H965      1.0  0.38266  0.29224  0.85768  1.0000
  S   S253      1.0  0.52218  0.16932  0.94653  1.0000
  C   C620      1.0  0.57617  0.11220  0.77302  1.0000
  H   H966      1.0  0.62206  0.17045  0.97078  1.0000
  H   H967      1.0  0.35951  0.45263  0.88899  1.0000
  C   C621      1.0  0.36192  0.42106  0.87442  1.0000
  N   N59       1.0  0.58485  0.15285  0.81591  1.0000
  C   C622      1.0  0.37335  0.32434  0.87415  1.0000
  Fe  Fe129     1.0  0.64742  0.26679  0.81479  1.0000
  H   H968      1.0  0.63119  0.27017  0.88182  1.0000
  N   N60       1.0  0.51647  0.23334  0.87462  1.0000
  C   C623      1.0  0.50856  0.22908  0.89592  1.0000
  C   C624      1.0  0.50927  0.22142  0.86490  1.0000
  C   C625      1.0  0.53836  0.22838  0.87090  1.0000
  C   C626      1.0  0.50963  0.25456  0.86678  1.0000
  H   H969      1.0  0.51392  0.23761  0.90379  1.0000
  H   H970      1.0  0.51331  0.21319  0.90238  1.0000
  H   H971      1.0  0.49210  0.23272  0.89927  1.0000
  H   H972      1.0  0.51480  0.20535  0.86989  1.0000
  H   H973      1.0  0.49282  0.22420  0.86800  1.0000
  H   H974      1.0  0.51436  0.22474  0.84875  1.0000
  H   H975      1.0  0.54409  0.21250  0.87675  1.0000
  H   H976      1.0  0.54434  0.23707  0.87806  1.0000
  H   H977      1.0  0.54483  0.23145  0.85495  1.0000
  H   H978      1.0  0.51493  0.26394  0.87376  1.0000
  H   H979      1.0  0.49319  0.25884  0.86925  1.0000
  H   H980      1.0  0.51531  0.25835  0.85076  1.0000
  N   N61       1.0  0.48102  0.11524  0.89526  1.0000
  C   C627      1.0  0.47081  0.12919  0.88012  1.0000
  C   C628      1.0  0.48583  0.09511  0.89115  1.0000
  C   C629      1.0  0.46803  0.11552  0.91476  1.0000
  C   C630      1.0  0.49947  0.12113  0.89501  1.0000
  H   H981      1.0  0.45681  0.12520  0.87990  1.0000
  H   H982      1.0  0.48028  0.12938  0.86525  1.0000
  H   H983      1.0  0.46695  0.14453  0.88277  1.0000
  H   H984      1.0  0.49549  0.09438  0.87647  1.0000
  H   H985      1.0  0.49389  0.08418  0.90207  1.0000
  H   H986      1.0  0.47230  0.08999  0.89141  1.0000
  H   H987      1.0  0.47540  0.10523  0.92650  1.0000
  H   H988      1.0  0.45396  0.11114  0.91553  1.0000
  H   H989      1.0  0.46414  0.13051  0.91832  1.0000
  H   H990      1.0  0.50752  0.11093  0.90630  1.0000
  H   H991      1.0  0.49644  0.13623  0.89808  1.0000
  H   H992      1.0  0.50971  0.12101  0.88057  1.0000
  N   N62       1.0  0.61044  0.16683  0.94732  1.0000
  C   C631      1.0  0.42653  0.18849  0.76763  1.0000
  H   H993      1.0  0.60472  0.15527  0.78796  1.0000
  H   H994      1.0  0.36655  0.08120  0.74445  1.0000
  H   H995      1.0  0.56725  0.12836  0.74599  1.0000
  H   H996      1.0  0.63223  0.18288  0.94684  1.0000
  H   H997      1.0  0.41213  0.29572  0.75732  1.0000
  H   H998      1.0  0.45615  0.28168  0.74333  1.0000
  H   H999      1.0  0.53380  0.24447  0.77306  1.0000
  C   C632      1.0  0.53991  0.24738  0.75704  1.0000
  S   S254      1.0  0.42902  0.06892  0.75931  1.0000
  H   H1000     1.0  0.63527  0.29178  0.86362  1.0000
  C   C633      1.0  0.38669  0.47581  0.78199  1.0000
  H   H1001     1.0  0.65784  0.25073  0.89987  1.0000
  S   S255      1.0  0.37465  0.37746  0.80481  1.0000
  H   H1002     1.0  0.38492  0.35335  0.84523  1.0000
  N   N63       1.0  0.38032  0.32361  0.85314  1.0000
  S   S256      1.0  0.64823  0.20073  0.79773  1.0000
  C   C634      1.0  0.62431  0.22554  0.74950  1.0000
  C   C635      1.0  0.44771  0.27120  0.75407  1.0000
  H   H1003     1.0  0.60521  0.16403  0.92007  1.0000
  H   H1004     1.0  0.48829  0.16450  0.75022  1.0000
  H   H1005     1.0  0.52281  0.22330  0.74663  1.0000
  H   H1006     1.0  0.56077  0.21425  0.77653  1.0000
  H   H1007     1.0  0.36460  0.33932  0.87620  1.0000
  H   H1008     1.0  0.51854  0.04555  0.77280  1.0000
  Fe  Fe130     1.0  0.36238  0.40509  0.78501  1.0000
  H   H1009     1.0  0.35066  0.47889  0.75193  1.0000
  H   H1010     1.0  0.63414  0.17404  0.78341  1.0000
  C   C636      1.0  0.58933  0.16166  0.79483  1.0000
  C   C637      1.0  0.62684  0.16926  0.95505  1.0000
  C   C638      1.0  0.62237  0.19108  0.75793  1.0000
  H   H1011     1.0  0.56003  0.15449  0.84000  1.0000
  H   H1012     1.0  0.40380  0.28893  0.73887  1.0000
  C   C639      1.0  0.39618  0.29906  0.79642  1.0000
  C   C640      1.0  0.37923  0.43844  0.80086  1.0000
  S   S257      1.0  0.38373  0.48746  0.81631  1.0000
  H   H1013     1.0  0.38508  0.29076  0.79768  1.0000
  C   C641      1.0  0.38091  0.45151  0.81177  1.0000
  H   H1014     1.0  0.51198  0.15313  0.75651  1.0000
  S   S258      1.0  0.37861  0.42827  0.76663  1.0000
  H   H1015     1.0  0.65951  0.46126  0.84385  1.0000
  H   H1016     1.0  0.58095  0.18261  0.94397  1.0000
  H   H1017     1.0  0.52948  0.21200  0.77001  1.0000
  H   H1018     1.0  0.40642  0.25432  0.75723  1.0000
  H   H1019     1.0  0.63732  0.23522  0.76841  1.0000
  N   N64       1.0  0.48777  0.14080  0.77538  1.0000
  C   C642      1.0  0.41945  0.25600  0.76206  1.0000
  C   C643      1.0  0.46648  0.14751  0.78320  1.0000
  C   C644      1.0  0.49021  0.12570  0.76371  1.0000
  H   H1020     1.0  0.35713  0.40748  0.87437  1.0000
  H   H1021     1.0  0.34617  0.44645  0.84477  1.0000
  S   S259      1.0  0.34836  0.38022  0.85720  1.0000
  C   C645      1.0  0.60365  0.14872  0.95875  1.0000
  H   H1022     1.0  0.58884  0.18628  0.96441  1.0000
  H   H1023     1.0  0.41392  0.26123  0.77617  1.0000
  C   C646      1.0  0.39155  0.31974  0.79135  1.0000
  C   C647      1.0  0.38150  0.44402  0.78046  1.0000
  H   H1024     1.0  0.45796  0.15347  0.77121  1.0000
  H   H1025     1.0  0.61398  0.15118  0.82038  1.0000
  H   H1026     1.0  0.59839  0.19798  0.94005  1.0000
  H   H1027     1.0  0.47133  0.07603  0.75913  1.0000
  C   C648      1.0  0.63650  0.20441  0.77798  1.0000
  C   C649      1.0  0.49840  0.13219  0.79178  1.0000
  C   C650      1.0  0.39179  0.30358  0.85097  1.0000
  Fe  Fe131     1.0  0.34625  0.38527  0.82576  1.0000
  H   H1028     1.0  0.38764  0.46681  0.75524  1.0000
  C   C651      1.0  0.42887  0.18064  0.75099  1.0000
  H   H1029     1.0  0.48809  0.99839  0.82134  1.0000
  C   C652      1.0  0.59819  0.15739  0.82617  1.0000
  H   H1030     1.0  0.41430  0.18621  0.77974  1.0000
  H   H1031     1.0  0.44323  0.27645  0.76816  1.0000
  H   H1032     1.0  0.40633  0.33473  0.85045  1.0000
  H   H1033     1.0  0.57931  0.15872  0.78674  1.0000
  H   H1034     1.0  0.61558  0.13527  0.95744  1.0000
  C   C653      1.0  0.41500  0.28913  0.80024  1.0000
  S   S260      1.0  0.53077  0.12875  0.92984  1.0000
  S   S261      1.0  0.59651  0.12320  0.76910  1.0000
  H   H1035     1.0  0.58531  0.12396  0.83423  1.0000
  H   H1036     1.0  0.59500  0.15107  0.84218  1.0000
  C   C654      1.0  0.43913  0.18166  0.89142  1.0000
  Fe  Fe132     1.0  0.54467  0.14094  0.94789  1.0000
  H   H1037     1.0  0.33661  0.42965  0.90719  1.0000
  C   C655      1.0  0.58775  0.13120  0.81845  1.0000
  C   C656      1.0  0.44767  0.17389  0.90804  1.0000
  C   C657      1.0  0.39304  0.33807  0.84379  1.0000
  H   H1038     1.0  0.36774  0.32853  0.82764  1.0000
  H   H1039     1.0  0.55359  0.15840  0.81656  1.0000
  C   C658      1.0  0.49594  0.15773  0.76277  1.0000
  H   H1040     1.0  0.57696  0.22825  0.75862  1.0000
  H   H1041     1.0  0.47209  0.04069  0.76118  1.0000
  H   H1042     1.0  0.42357  0.18237  0.89253  1.0000
  H   H1043     1.0  0.49422  0.16956  0.77098  1.0000
  H   H1044     1.0  0.54249  0.20193  0.74872  1.0000
  H   H1045     1.0  0.40498  0.29937  0.85794  1.0000
  H   H1046     1.0  0.36363  0.31367  0.88163  1.0000
  C   C659      1.0  0.61918  0.20959  0.74551  1.0000
  H   H1047     1.0  0.36238  0.46014  0.86277  1.0000
  S   S262      1.0  0.57845  0.17232  0.73795  1.0000
  C   C660      1.0  0.36307  0.32849  0.84359  1.0000
  H   H1048     1.0  0.49318  0.11885  0.80113  1.0000
  H   H1049     1.0  0.33652  0.48728  0.81212  1.0000
  H   H1050     1.0  0.50603  0.12041  0.75737  1.0000
  C   C661      1.0  0.63291  0.22296  0.76574  1.0000
  H   H1051     1.0  0.63961  0.15649  0.95395  1.0000
  H   H1052     1.0  0.52676  0.03485  0.75139  1.0000
  C   C662      1.0  0.48698  0.07188  0.76101  1.0000
  H   H1053     1.0  0.55095  0.16723  0.97083  1.0000
  S   S263      1.0  0.33547  0.41433  0.80710  1.0000
  H   H1054     1.0  0.37306  0.42400  0.86072  1.0000
  N   N65       1.0  0.43039  0.26975  0.74714  1.0000
  H   H1055     1.0  0.35331  0.31769  0.84996  1.0000
  S   S264      1.0  0.41199  0.16719  0.74990  1.0000
  H   H1056     1.0  0.61826  0.17875  0.75502  1.0000
  N   N66       1.0  0.34492  0.43798  0.87583  1.0000
  C   C663      1.0  0.61738  0.16528  0.92650  1.0000
  H   H1057     1.0  0.36950  0.41768  0.88701  1.0000
  H   H1058     1.0  0.48674  0.07006  0.77689  1.0000
  H   H1059     1.0  0.62186  0.23989  0.73993  1.0000
  C   C664      1.0  0.35189  0.45550  0.87651  1.0000
  H   H1060     1.0  0.49636  0.14299  0.80126  1.0000
  S   S265      1.0  0.44812  0.11781  0.74732  1.0000
  C   C665      1.0  0.48736  0.03740  0.76404  1.0000
  H   H1061     1.0  0.38956  0.49024  0.77465  1.0000
  H   H1062     1.0  0.49540  0.02320  0.75948  1.0000
  H   H1063     1.0  0.63312  0.29184  0.88903  1.0000
  H   H1064     1.0  0.45807  0.25662  0.75650  1.0000
  H   H1065     1.0  0.33935  0.46832  0.87840  1.0000
  S   S266      1.0  0.66044  0.23530  0.82740  1.0000
  C   C666      1.0  0.33569  0.44221  0.85856  1.0000
  H   H1066     1.0  0.33807  0.46227  0.81015  1.0000
  H   H1067     1.0  0.66028  0.27266  0.90625  1.0000
  H   H1068     1.0  0.38059  0.04529  0.74684  1.0000
  C   C667      1.0  0.53555  0.21596  0.75405  1.0000
  H   H1069     1.0  0.40408  0.04935  0.74769  1.0000
  H   H1070     1.0  0.59089  0.14664  0.95375  1.0000
  C   C668      1.0  0.51816  0.04838  0.75696  1.0000
  H   H1071     1.0  0.52615  0.06057  0.74965  1.0000
  H   H1072     1.0  0.52743  0.25552  0.74953  1.0000
  H   H1073     1.0  0.55036  0.25736  0.75442  1.0000
  H   H1074     1.0  0.66338  0.27036  0.84682  1.0000
  S   S267      1.0  0.66280  0.29254  0.80252  1.0000
  H   H1075     1.0  0.66159  0.24899  0.86575  1.0000
  N   N67       1.0  0.66074  0.27519  0.87572  1.0000
  H   H1076     1.0  0.48231  0.13167  0.75128  1.0000
  H   H1077     1.0  0.65759  0.16955  0.73600  1.0000
  Fe  Fe133     1.0  0.43223  0.09827  0.74013  1.0000
  C   C669      1.0  0.45799  0.19449  0.73633  1.0000
  C   C670      1.0  0.55613  0.16013  0.98430  1.0000
  C   C671      1.0  0.39462  0.04907  0.73758  1.0000
  C   C672      1.0  0.44476  0.18346  0.73543  1.0000
  H   H1078     1.0  0.45819  0.74799  0.04887  1.0000
  Fe  Fe134     1.0  0.60311  0.85843  0.20407  1.0000
  S   S268      1.0  0.59013  0.87875  0.17928  1.0000
  S   S269      1.0  0.63502  0.85554  0.20401  1.0000
  H   H1079     1.0  0.36594  0.58634  0.22636  1.0000
  S   S270      1.0  0.54705  0.87062  0.20471  1.0000
  H   H1080     1.0  0.43404  0.61702  0.11240  1.0000
  Fe  Fe135     1.0  0.57174  0.85638  0.18316  1.0000
  S   S271      1.0  0.56540  0.85145  0.15564  1.0000
  Fe  Fe136     1.0  0.56659  0.89152  0.20246  1.0000
  S   S272      1.0  0.55625  0.92478  0.19558  1.0000
  S   S273      1.0  0.58729  0.83455  0.20586  1.0000
  H   H1081     1.0  0.56139  0.63178  0.22571  1.0000
  H   H1082     1.0  0.55471  0.64908  0.16520  1.0000
  Fe  Fe137     1.0  0.61455  0.67657  0.20831  1.0000
  S   S274      1.0  0.41924  0.58881  0.21679  1.0000
  S   S275      1.0  0.62698  0.69185  0.17834  1.0000
  C   C673      1.0  0.59779  0.74748  0.16686  1.0000
  H   H1083     1.0  0.52463  0.90800  0.18484  1.0000
  H   H1084     1.0  0.61302  0.77960  0.14958  1.0000
  H   H1085     1.0  0.63360  0.89230  0.22003  1.0000
  N   N68       1.0  0.63120  0.91615  0.19508  1.0000
  C   C674      1.0  0.52281  0.76032  0.00987  1.0000
  S   S276      1.0  0.46841  0.65225  0.19608  1.0000
  H   H1086     1.0  0.54339  0.66306  0.13435  1.0000
  Fe  Fe138     1.0  0.43558  0.61363  0.21015  1.0000
  S   S277      1.0  0.42474  0.64509  0.19580  1.0000
  H   H1087     1.0  0.48949  0.64572  0.22624  1.0000
  Fe  Fe139     1.0  0.45503  0.64165  0.17681  1.0000
  S   S278      1.0  0.46269  0.65262  0.14444  1.0000
  H   H1088     1.0  0.65771  0.91413  0.20521  1.0000
  H   H1089     1.0  0.52632  0.93544  0.13345  1.0000
  S   S279      1.0  0.46494  0.60974  0.18946  1.0000
  C   C675      1.0  0.52164  0.88913  0.15795  1.0000
  H   H1090     1.0  0.52051  0.80508  0.21857  1.0000
  H   H1091     1.0  0.55546  0.89376  0.16377  1.0000
  Fe  Fe140     1.0  0.53844  0.76092  0.13066  1.0000
  S   S280      1.0  0.56040  0.75049  0.10487  1.0000
  S   S281      1.0  0.54406  0.77045  0.15632  1.0000
  Fe  Fe141     1.0  0.50744  0.74102  0.12569  1.0000
  S   S282      1.0  0.52674  0.72822  0.10030  1.0000
  S   S283      1.0  0.47679  0.73694  0.14016  1.0000
  Fe  Fe142     1.0  0.55093  0.72166  0.11720  1.0000
  S   S284      1.0  0.57311  0.69306  0.12027  1.0000
  Fe  Fe143     1.0  0.53441  0.75804  0.08964  1.0000
  S   S285      1.0  0.53387  0.77317  0.05784  1.0000
  S   S286      1.0  0.53078  0.73127  0.14366  1.0000
  S   S287      1.0  0.51323  0.77147  0.11435  1.0000
  Fe  Fe144     1.0  0.34604  0.56269  0.17006  1.0000
  S   S288      1.0  0.35444  0.53478  0.19159  1.0000
  S   S289      1.0  0.36011  0.58909  0.16395  1.0000
  H   H1092     1.0  0.51405  0.63822  0.18036  1.0000
  Fe  Fe145     1.0  0.34942  0.51975  0.16995  1.0000
  S   S290      1.0  0.51882  0.72634  0.00012  1.0000
  H   H1093     1.0  0.60816  0.94226  0.19678  1.0000
  H   H1094     1.0  0.46293  0.62016  0.12407  1.0000
  H   H1095     1.0  0.61495  0.91381  0.22478  1.0000
  C   C676      1.0  0.43254  0.60402  0.12456  1.0000
  H   H1096     1.0  0.54655  0.60664  0.21942  1.0000
  H   H1097     1.0  0.66361  0.86057  0.22306  1.0000
  H   H1098     1.0  0.42985  0.63739  0.13744  1.0000
  H   H1099     1.0  0.41173  0.62380  0.15257  1.0000
  C   C677      1.0  0.55004  0.90390  0.15091  1.0000
  H   H1100     1.0  0.60474  0.75219  0.17666  1.0000
  C   C678      1.0  0.54571  0.63485  0.22578  1.0000
  H   H1101     1.0  0.53621  0.72865  0.18577  1.0000
  H   H1102     1.0  0.50412  0.67179  0.18847  1.0000
  C   C679      1.0  0.52629  0.77037  0.02288  1.0000
  C   C680      1.0  0.53172  0.75999  0.04079  1.0000
  C   C681      1.0  0.53422  0.73944  0.04528  1.0000
  C   C682      1.0  0.53067  0.72944  0.03239  1.0000
  H   H1103     1.0  0.43228  0.62525  0.16193  1.0000
  C   C683      1.0  0.60583  0.77426  0.14043  1.0000
  H   H1104     1.0  0.53899  0.73118  0.05866  1.0000
  H   H1105     1.0  0.53250  0.71354  0.03614  1.0000
  C   C684      1.0  0.40331  0.58917  0.20154  1.0000
  C   C685      1.0  0.39384  0.60690  0.19116  1.0000
  C   C686      1.0  0.38072  0.60670  0.17954  1.0000
  C   C687      1.0  0.37700  0.58881  0.17824  1.0000
  C   C688      1.0  0.38668  0.57107  0.18842  1.0000
  C   C689      1.0  0.39969  0.57127  0.20014  1.0000
  H   H1106     1.0  0.39634  0.62079  0.19238  1.0000
  H   H1107     1.0  0.37321  0.62049  0.17174  1.0000
  H   H1108     1.0  0.38433  0.55718  0.18711  1.0000
  H   H1109     1.0  0.40710  0.55749  0.20804  1.0000
  C   C690      1.0  0.47222  0.71406  0.14020  1.0000
  C   C691      1.0  0.48287  0.70321  0.12576  1.0000
  C   C692      1.0  0.47922  0.68468  0.12641  1.0000
  C   C693      1.0  0.46533  0.67682  0.14180  1.0000
  C   C694      1.0  0.45451  0.68782  0.15602  1.0000
  C   C695      1.0  0.45778  0.70651  0.15507  1.0000
  H   H1110     1.0  0.49389  0.70905  0.11413  1.0000
  H   H1111     1.0  0.48764  0.67615  0.11542  1.0000
  H   H1112     1.0  0.44364  0.68189  0.16787  1.0000
  H   H1113     1.0  0.44943  0.71489  0.16622  1.0000
  H   H1114     1.0  0.54158  0.82632  0.22179  1.0000
  H   H1115     1.0  0.52768  0.91430  0.12353  1.0000
  C   C696      1.0  0.52478  0.73978  0.01472  1.0000
  C   C697      1.0  0.61555  0.93167  0.18684  1.0000
  H   H1116     1.0  0.49691  0.71361  0.20082  1.0000
  C   C698      1.0  0.61195  0.69155  0.16253  1.0000
  C   C699      1.0  0.59131  0.69549  0.16846  1.0000
  C   C700      1.0  0.57931  0.69647  0.15532  1.0000
  C   C701      1.0  0.58794  0.69248  0.13661  1.0000
  C   C702      1.0  0.60856  0.68814  0.13085  1.0000
  C   C703      1.0  0.62054  0.68810  0.14364  1.0000
  H   H1117     1.0  0.58460  0.69823  0.18302  1.0000
  H   H1118     1.0  0.56341  0.70006  0.15977  1.0000
  H   H1119     1.0  0.61526  0.68509  0.11637  1.0000
  H   H1120     1.0  0.63648  0.68500  0.13904  1.0000
  C   C704      1.0  0.50748  0.72066  0.23127  1.0000
  H   H1121     1.0  0.34471  0.57864  0.20806  1.0000
  C   C705      1.0  0.59753  0.74634  0.13365  1.0000
  H   H1122     1.0  0.53264  0.70527  0.20122  1.0000
  C   C706      1.0  0.57257  0.93068  0.22416  1.0000
  H   H1123     1.0  0.51833  0.76847  0.99629  1.0000
  C   C707      1.0  0.55922  0.82899  0.15601  1.0000
  C   C708      1.0  0.55607  0.82550  0.13876  1.0000
  C   C709      1.0  0.55112  0.80773  0.13863  1.0000
  C   C710      1.0  0.54925  0.79338  0.15581  1.0000
  C   C711      1.0  0.55241  0.79688  0.17305  1.0000
  C   C712      1.0  0.55737  0.81461  0.17317  1.0000
  H   H1124     1.0  0.55750  0.83656  0.12542  1.0000
  H   H1125     1.0  0.54879  0.80513  0.12526  1.0000
  H   H1126     1.0  0.55095  0.78585  0.18641  1.0000
  H   H1127     1.0  0.55967  0.81718  0.18656  1.0000
  H   H1128     1.0  0.52651  0.87875  0.17106  1.0000
  Fe  Fe146     1.0  0.57653  0.66451  0.23103  1.0000
  H   H1129     1.0  0.61286  0.77873  0.12482  1.0000
  H   H1130     1.0  0.48682  0.76417  0.04385  1.0000
  C   C713      1.0  0.51978  0.91754  0.17135  1.0000
  H   H1131     1.0  0.59008  0.78229  0.14224  1.0000
  H   H1132     1.0  0.46639  0.60835  0.14833  1.0000
  H   H1133     1.0  0.44139  0.58955  0.17094  1.0000
  H   H1134     1.0  0.60433  0.75001  0.11786  1.0000
  H   H1135     1.0  0.52472  0.93162  0.16916  1.0000
  H   H1136     1.0  0.60386  0.92524  0.18452  1.0000
  C   C714      1.0  0.56974  0.97123  0.20886  1.0000
  H   H1137     1.0  0.42167  0.58641  0.16143  1.0000
  H   H1138     1.0  0.52807  0.88131  0.14545  1.0000
  H   H1139     1.0  0.50509  0.92452  0.13867  1.0000
  H   H1140     1.0  0.51265  0.69216  0.17103  1.0000
  C   C715      1.0  0.52151  0.92115  0.13669  1.0000
  S   S291      1.0  0.60233  0.64998  0.21071  1.0000
  C   C716      1.0  0.49715  0.72927  0.20013  1.0000
  C   C717      1.0  0.56261  0.95962  0.20008  1.0000
  C   C718      1.0  0.56420  0.93926  0.20757  1.0000
  H   H1141     1.0  0.50333  0.92088  0.17435  1.0000
  C   C719      1.0  0.62851  0.74251  0.14343  1.0000
  C   C720      1.0  0.50518  0.64275  0.22577  1.0000
  H   H1142     1.0  0.55609  0.96641  0.18729  1.0000
  N   N69       1.0  0.60742  0.75265  0.14609  1.0000
  H   H1143     1.0  0.50421  0.67093  0.23193  1.0000
  H   H1144     1.0  0.58177  0.75461  0.16931  1.0000
  H   H1145     1.0  0.50498  0.64815  0.15799  1.0000
  N   N70       1.0  0.47282  0.74868  0.07135  1.0000
  C   C721      1.0  0.48173  0.76544  0.05953  1.0000
  C   C722      1.0  0.46774  0.75031  0.09219  1.0000
  C   C723      1.0  0.57838  0.96254  0.22528  1.0000
  C   C724      1.0  0.45476  0.74906  0.06462  1.0000
  H   H1146     1.0  0.65281  0.93438  0.18518  1.0000
  H   H1147     1.0  0.49481  0.76613  0.06492  1.0000
  H   H1148     1.0  0.47113  0.77984  0.06019  1.0000
  H   H1149     1.0  0.45715  0.76438  0.09453  1.0000
  H   H1150     1.0  0.46094  0.73796  0.10167  1.0000
  H   H1151     1.0  0.48113  0.74996  0.09769  1.0000
  H   H1152     1.0  0.56875  0.98683  0.20281  1.0000
  C   C725      1.0  0.52203  0.80586  0.23296  1.0000
  H   H1153     1.0  0.49116  0.72811  0.05348  1.0000
  H   H1154     1.0  0.44777  0.73651  0.07317  1.0000
  H   H1155     1.0  0.63630  0.74619  0.12797  1.0000
  H   H1156     1.0  0.44359  0.76298  0.06624  1.0000
  N   N71       1.0  0.51206  0.73064  0.21052  1.0000
  C   C726      1.0  0.53731  0.62065  0.22224  1.0000
  C   C727      1.0  0.65765  0.54008  0.21418  1.0000
  H   H1157     1.0  0.49680  0.75950  0.21617  1.0000
  H   H1158     1.0  0.50019  0.73659  0.18439  1.0000
  C   C728      1.0  0.51164  0.75166  0.20945  1.0000
  H   H1159     1.0  0.44107  0.59053  0.11885  1.0000
  C   C729      1.0  0.43725  0.58828  0.15740  1.0000
  H   H1160     1.0  0.41663  0.60310  0.12852  1.0000
  C   C730      1.0  0.64575  0.92544  0.19887  1.0000
  H   H1161     1.0  0.63858  0.93551  0.20943  1.0000
  C   C731      1.0  0.48713  0.72991  0.06904  1.0000
  H   H1162     1.0  0.63638  0.74655  0.15292  1.0000
  C   C732      1.0  0.46067  0.60696  0.13578  1.0000
  S   S292      1.0  0.44748  0.62151  0.23282  1.0000
  C   C733      1.0  0.51353  0.65695  0.22917  1.0000
  H   H1163     1.0  0.63019  0.72616  0.14733  1.0000
  N   N72       1.0  0.52474  0.66384  0.16286  1.0000
  C   C734      1.0  0.54201  0.65945  0.17227  1.0000
  C   C735      1.0  0.53032  0.67269  0.14192  1.0000
  C   C736      1.0  0.50842  0.67787  0.17255  1.0000
  C   C737      1.0  0.51819  0.64536  0.16472  1.0000
  H   H1164     1.0  0.53838  0.65256  0.18801  1.0000
  H   H1165     1.0  0.54722  0.67305  0.17136  1.0000
  H   H1166     1.0  0.51801  0.67524  0.13410  1.0000
  H   H1167     1.0  0.53432  0.68716  0.14002  1.0000
  H   H1168     1.0  0.49501  0.68114  0.16608  1.0000
  H   H1169     1.0  0.53008  0.63445  0.15750  1.0000
  N   N73       1.0  0.52822  0.90793  0.15423  1.0000
  S   S293      1.0  0.34374  0.54731  0.14714  1.0000
  Fe  Fe147     1.0  0.43916  0.65278  0.21664  1.0000
  C   C738      1.0  0.33352  0.57734  0.22193  1.0000
  H   H1170     1.0  0.55702  0.89659  0.13814  1.0000
  H   H1171     1.0  0.55563  0.91763  0.14846  1.0000
  H   H1172     1.0  0.50110  0.72932  0.07357  1.0000
  H   H1173     1.0  0.47007  0.59364  0.13030  1.0000
  H   H1174     1.0  0.59896  0.73126  0.17170  1.0000
  N   N74       1.0  0.43958  0.60576  0.14161  1.0000
  H   H1175     1.0  0.58158  0.75362  0.13539  1.0000
  H   H1176     1.0  0.44664  0.57445  0.15294  1.0000
  H   H1177     1.0  0.48110  0.71693  0.07808  1.0000
  H   H1178     1.0  0.48199  0.73653  0.20669  1.0000
  H   H1179     1.0  0.50525  0.89150  0.16045  1.0000
  C   C739      1.0  0.42780  0.62382  0.14869  1.0000
  H   H1180     1.0  0.59841  0.73014  0.13751  1.0000
  Fe  Fe148     1.0  0.47590  0.62054  0.21061  1.0000
  H   H1181     1.0  0.52443  0.78627  0.01919  1.0000
  H   H1182     1.0  0.64821  0.91118  0.16683  1.0000
  S   S294      1.0  0.58760  0.69210  0.22627  1.0000
  S   S295      1.0  0.58106  0.87281  0.22715  1.0000
  C   C740      1.0  0.51704  0.62468  0.22205  1.0000
  H   H1183     1.0  0.33143  0.49888  0.13008  1.0000
  H   H1184     1.0  0.61101  0.89754  0.21137  1.0000
  C   C741      1.0  0.64120  0.90298  0.18103  1.0000
  S   S296      1.0  0.50683  0.60763  0.21607  1.0000
  C   C742      1.0  0.62228  0.90448  0.21365  1.0000
  S   S297      1.0  0.42682  0.67968  0.23035  1.0000
  C   C743      1.0  0.53378  0.65309  0.22907  1.0000
  H   H1185     1.0  0.65567  0.50169  0.22220  1.0000
  C   C744      1.0  0.57957  0.94229  0.23298  1.0000
  H   H1186     1.0  0.52249  0.75332  0.21737  1.0000
  H   H1187     1.0  0.65294  0.89092  0.18689  1.0000
  H   H1188     1.0  0.63058  0.89569  0.17796  1.0000
  H   H1189     1.0  0.62163  0.94039  0.17251  1.0000
  H   H1190     1.0  0.50753  0.70478  0.23266  1.0000
  C   C745      1.0  0.63971  0.84571  0.22770  1.0000
  C   C746      1.0  0.53195  0.72100  0.20123  1.0000
  H   H1191     1.0  0.54346  0.72108  0.20918  1.0000
  Fe  Fe149     1.0  0.56398  0.85057  0.22714  1.0000
  H   H1192     1.0  0.51523  0.75964  0.19401  1.0000
  H   H1193     1.0  0.64272  0.53771  0.22226  1.0000
  H   H1194     1.0  0.65757  0.54333  0.19822  1.0000
  H   H1195     1.0  0.57359  0.91513  0.23025  1.0000
  S   S298      1.0  0.54376  0.67171  0.23228  1.0000
  H   H1196     1.0  0.65730  0.62342  0.21185  1.0000
  S   S299      1.0  0.63075  0.66394  0.23335  1.0000
  H   H1197     1.0  0.36801  0.55136  0.22445  1.0000
  H   H1198     1.0  0.65975  0.55363  0.21770  1.0000
  C   C747      1.0  0.65466  0.85098  0.23340  1.0000
  C   C748      1.0  0.65583  0.59757  0.23474  1.0000
  C   C749      1.0  0.53391  0.81791  0.23477  1.0000
  S   S300      1.0  0.65650  0.72793  0.29736  1.0000
  S   S301      1.0  0.59328  0.69283  0.27701  1.0000
  Fe  Fe150     1.0  0.64003  0.79665  0.30821  1.0000
  S   S302      1.0  0.61874  0.79887  0.33663  1.0000
  H   H1199     1.0  0.58193  0.82914  0.32487  1.0000
  Fe  Fe151     1.0  0.64248  0.75274  0.31365  1.0000
  S   S303      1.0  0.62123  0.75121  0.34264  1.0000
  H   H1200     1.0  0.54736  0.70067  0.28275  1.0000
  Fe  Fe152     1.0  0.60371  0.77943  0.32783  1.0000
  S   S304      1.0  0.57101  0.78965  0.32769  1.0000
  H   H1201     1.0  0.55489  0.75572  0.28673  1.0000
  S   S305      1.0  0.62364  0.77940  0.29836  1.0000
  H   H1202     1.0  0.60775  0.84173  0.29812  1.0000
  Fe  Fe153     1.0  0.48646  0.76041  0.27552  1.0000
  S   S306      1.0  0.50752  0.73167  0.28237  1.0000
  Fe  Fe154     1.0  0.45484  0.74934  0.31077  1.0000
  S   S307      1.0  0.47356  0.71967  0.32038  1.0000
  S   S308      1.0  0.42387  0.76085  0.32618  1.0000
  Fe  Fe155     1.0  0.49815  0.73598  0.31329  1.0000
  S   S309      1.0  0.52084  0.72694  0.33239  1.0000
  Fe  Fe156     1.0  0.48106  0.71831  0.28851  1.0000
  S   S310      1.0  0.48457  0.68958  0.27953  1.0000
  S   S311      1.0  0.47885  0.76599  0.30621  1.0000
  S   S312      1.0  0.46048  0.74672  0.27924  1.0000
  H   H1203     1.0  0.36250  0.57873  0.25243  1.0000
  S   S313      1.0  0.35988  0.75642  0.44600  1.0000
  C   C750      1.0  0.59571  0.85281  0.29163  1.0000
  Fe  Fe157     1.0  0.36003  0.73320  0.42976  1.0000
  S   S314      1.0  0.38768  0.71837  0.41108  1.0000
  H   H1204     1.0  0.47354  0.73056  0.37061  1.0000
  S   S315      1.0  0.49709  0.78002  0.24729  1.0000
  H   H1205     1.0  0.43611  0.76810  0.39514  1.0000
  H   H1206     1.0  0.37947  0.72222  0.31935  1.0000
  H   H1207     1.0  0.39631  0.73043  0.32877  1.0000
  H   H1208     1.0  0.44162  0.77720  0.35018  1.0000
  H   H1209     1.0  0.43072  0.69501  0.32304  1.0000
  H   H1210     1.0  0.57861  0.78104  0.23858  1.0000
  C   C751      1.0  0.45646  0.66638  0.25144  1.0000
  C   C752      1.0  0.41386  0.74878  0.34968  1.0000
  C   C753      1.0  0.42285  0.72965  0.35780  1.0000
  C   C754      1.0  0.41458  0.72050  0.37662  1.0000
  C   C755      1.0  0.39727  0.73036  0.38744  1.0000
  C   C756      1.0  0.38821  0.74943  0.37928  1.0000
  C   C757      1.0  0.39646  0.75858  0.36040  1.0000
  H   H1211     1.0  0.43611  0.72183  0.34968  1.0000
  H   H1212     1.0  0.42157  0.70569  0.38289  1.0000
  H   H1213     1.0  0.37483  0.75710  0.38752  1.0000
  H   H1214     1.0  0.38935  0.77334  0.35416  1.0000
  C   C758      1.0  0.56186  0.86016  0.28726  1.0000
  H   H1215     1.0  0.65892  0.57003  0.25553  1.0000
  C   C759      1.0  0.45556  0.70390  0.25724  1.0000
  C   C760      1.0  0.46870  0.68744  0.26535  1.0000
  C   C761      1.0  0.44310  0.68271  0.24358  1.0000
  H   H1216     1.0  0.45541  0.71843  0.25912  1.0000
  C   C762      1.0  0.55759  0.77190  0.32867  1.0000
  C   C763      1.0  0.53931  0.77817  0.32270  1.0000
  C   C764      1.0  0.52817  0.76441  0.32335  1.0000
  C   C765      1.0  0.53505  0.74433  0.33046  1.0000
  C   C766      1.0  0.55331  0.73806  0.33648  1.0000
  C   C767      1.0  0.56470  0.75179  0.33537  1.0000
  H   H1217     1.0  0.53375  0.79372  0.31757  1.0000
  H   H1218     1.0  0.51413  0.76941  0.31868  1.0000
  H   H1219     1.0  0.55872  0.72254  0.34198  1.0000
  H   H1220     1.0  0.57878  0.74684  0.34003  1.0000
  C   C768      1.0  0.52574  0.80819  0.27006  1.0000
  Fe  Fe158     1.0  0.34544  0.73731  0.47263  1.0000
  H   H1221     1.0  0.56729  0.85382  0.32426  1.0000
  H   H1222     1.0  0.54793  0.85467  0.29030  1.0000
  C   C769      1.0  0.61147  0.70136  0.28305  1.0000
  H   H1223     1.0  0.61009  0.76642  0.25088  1.0000
  C   C770      1.0  0.64082  0.83237  0.42331  1.0000
  C   C771      1.0  0.63922  0.71740  0.29221  1.0000
  C   C772      1.0  0.62016  0.71874  0.30369  1.0000
  C   C773      1.0  0.60640  0.71050  0.29925  1.0000
  H   H1224     1.0  0.40726  0.68424  0.30937  1.0000
  H   H1225     1.0  0.56649  0.86379  0.27104  1.0000
  H   H1226     1.0  0.61611  0.72592  0.31611  1.0000
  H   H1227     1.0  0.59177  0.71129  0.30836  1.0000
  C   C774      1.0  0.55820  0.66500  0.30524  1.0000
  C   C775      1.0  0.57199  0.76964  0.25004  1.0000
  S   S316      1.0  0.66096  0.76998  0.32094  1.0000
  C   C776      1.0  0.65783  0.84416  0.25263  1.0000
  C   C777      1.0  0.54409  0.68790  0.27884  1.0000
  H   H1228     1.0  0.55694  0.83439  0.32165  1.0000
  C   C778      1.0  0.62826  0.83316  0.24111  1.0000
  C   C779      1.0  0.64662  0.83142  0.26601  1.0000
  H   H1229     1.0  0.63246  0.84619  0.41539  1.0000
  H   H1230     1.0  0.56202  0.67716  0.30973  1.0000
  H   H1231     1.0  0.57716  0.74612  0.29628  1.0000
  C   C780      1.0  0.52357  0.68028  0.31073  1.0000
  H   H1232     1.0  0.65844  0.51553  0.24940  1.0000
  C   C781      1.0  0.44294  0.75614  0.38663  1.0000
  N   N75       1.0  0.45991  0.76111  0.37115  1.0000
  H   H1233     1.0  0.58495  0.77908  0.28862  1.0000
  C   C782      1.0  0.51206  0.79490  0.24971  1.0000
  H   H1234     1.0  0.50993  0.68601  0.30454  1.0000
  H   H1235     1.0  0.45685  0.65183  0.24933  1.0000
  H   H1236     1.0  0.52033  0.66884  0.32403  1.0000
  H   H1237     1.0  0.54825  0.64958  0.27916  1.0000
  C   C783      1.0  0.60227  0.75598  0.26245  1.0000
  S   S317      1.0  0.65033  0.82400  0.29025  1.0000
  C   C784      1.0  0.57110  0.74993  0.28267  1.0000
  H   H1238     1.0  0.65920  0.70677  0.26741  1.0000
  H   H1239     1.0  0.63953  0.83421  0.43855  1.0000
  H   H1240     1.0  0.47936  0.65595  0.26847  1.0000
  H   H1241     1.0  0.57329  0.73593  0.27751  1.0000
  H   H1242     1.0  0.55698  0.68243  0.26779  1.0000
  C   C785      1.0  0.42966  0.70848  0.31126  1.0000
  H   H1243     1.0  0.51856  0.72118  0.23950  1.0000
  C   C786      1.0  0.53590  0.65582  0.29028  1.0000
  C   C787      1.0  0.44263  0.70150  0.24652  1.0000
  S   S318      1.0  0.55051  0.83399  0.25602  1.0000
  H   H1244     1.0  0.48057  0.75094  0.39062  1.0000
  C   C788      1.0  0.63052  0.69995  0.27159  1.0000
  H   H1245     1.0  0.58657  0.82996  0.27214  1.0000
  H   H1246     1.0  0.59333  0.86644  0.29743  1.0000
  H   H1247     1.0  0.44181  0.70527  0.29863  1.0000
  S   S319      1.0  0.63158  0.60628  0.24669  1.0000
  H   H1248     1.0  0.39245  0.70204  0.29337  1.0000
  H   H1249     1.0  0.44625  0.79197  0.36468  1.0000
  C   C789      1.0  0.57056  0.84053  0.31770  1.0000
  C   C790      1.0  0.58141  0.82707  0.28832  1.0000
  H   H1250     1.0  0.55835  0.87409  0.29282  1.0000
  Fe  Fe159     1.0  0.60212  0.67691  0.25179  1.0000
  Fe  Fe160     1.0  0.63836  0.77074  0.34883  1.0000
  H   H1251     1.0  0.63451  0.69289  0.25908  1.0000
  H   H1252     1.0  0.60134  0.85636  0.27554  1.0000
  H   H1253     1.0  0.36365  0.54447  0.25064  1.0000
  C   C791      1.0  0.46868  0.74467  0.36057  1.0000
  C   C792      1.0  0.63204  0.82566  0.26014  1.0000
  H   H1254     1.0  0.48191  0.74768  0.34922  1.0000
  C   C793      1.0  0.51416  0.79590  0.26824  1.0000
  C   C794      1.0  0.40694  0.69811  0.29808  1.0000
  H   H1255     1.0  0.46542  0.78336  0.34529  1.0000
  H   H1256     1.0  0.41185  0.74482  0.29546  1.0000
  H   H1257     1.0  0.39488  0.70488  0.33508  1.0000
  H   H1258     1.0  0.43254  0.72049  0.31672  1.0000
  C   C795      1.0  0.39450  0.71808  0.32295  1.0000
  H   H1259     1.0  0.39472  0.73729  0.28573  1.0000
  H   H1260     1.0  0.43110  0.75395  0.38034  1.0000
  C   C796      1.0  0.47505  0.76437  0.38008  1.0000
  H   H1261     1.0  0.53309  0.64362  0.30295  1.0000
  S   S320      1.0  0.64619  0.76623  0.37859  1.0000
  H   H1262     1.0  0.52658  0.69269  0.31550  1.0000
  C   C797      1.0  0.40934  0.73239  0.29025  1.0000
  H   H1263     1.0  0.45791  0.74230  0.35304  1.0000
  N   N76       1.0  0.41009  0.71425  0.30563  1.0000
  H   H1264     1.0  0.52695  0.80923  0.28444  1.0000
  S   S321      1.0  0.34833  0.71300  0.45704  1.0000
  C   C798      1.0  0.46913  0.66873  0.26237  1.0000
  N   N77       1.0  0.57738  0.84518  0.29623  1.0000
  H   H1265     1.0  0.57139  0.65896  0.29484  1.0000
  C   C799      1.0  0.53564  0.81918  0.25335  1.0000
  H   H1266     1.0  0.56219  0.78893  0.28015  1.0000
  N   N78       1.0  0.54046  0.67222  0.29626  1.0000
  H   H1267     1.0  0.52256  0.66091  0.28345  1.0000
  H   H1268     1.0  0.42084  0.73005  0.27693  1.0000
  H   H1269     1.0  0.41864  0.69466  0.28516  1.0000
  C   C800      1.0  0.57813  0.78244  0.27550  1.0000
  S   S322      1.0  0.58955  0.64999  0.25756  1.0000
  H   H1270     1.0  0.55601  0.65315  0.31842  1.0000
  H   H1271     1.0  0.46905  0.77675  0.38814  1.0000
  H   H1272     1.0  0.63335  0.82021  0.42420  1.0000
  H   H1273     1.0  0.53115  0.69325  0.27146  1.0000
  C   C801      1.0  0.64445  0.70782  0.27629  1.0000
  N   N79       1.0  0.58088  0.76450  0.26764  1.0000
  H   H1274     1.0  0.60496  0.74201  0.25709  1.0000
  H   H1275     1.0  0.50665  0.78747  0.28120  1.0000
  H   H1276     1.0  0.56788  0.82090  0.29157  1.0000
  H   H1277     1.0  0.48813  0.76799  0.36875  1.0000
  H   H1278     1.0  0.62352  0.81571  0.27032  1.0000
  C   C802      1.0  0.45302  0.77922  0.35724  1.0000
  H   H1279     1.0  0.59289  0.81540  0.29493  1.0000
  H   H1280     1.0  0.44742  0.74226  0.39716  1.0000
  H   H1281     1.0  0.66350  0.85859  0.40450  1.0000
  N   N80       1.0  0.66177  0.82795  0.41333  1.0000
  H   H1282     1.0  0.55578  0.77573  0.25360  1.0000
  H   H1283     1.0  0.65486  0.83873  0.38451  1.0000
  H   H1284     1.0  0.60949  0.75240  0.27535  1.0000
  H   H1285     1.0  0.58485  0.79402  0.26442  1.0000
  H   H1286     1.0  0.65658  0.81263  0.39341  1.0000
  H   H1287     1.0  0.43243  0.71419  0.24027  1.0000
  C   C803      1.0  0.66295  0.82536  0.39326  1.0000
  H   H1288     1.0  0.58605  0.93553  0.24580  1.0000
  H   H1289     1.0  0.57412  0.75645  0.24358  1.0000
  H   H1290     1.0  0.33410  0.56261  0.27057  1.0000
  H   H1291     1.0  0.33188  0.78746  0.46780  1.0000
  H   H1292     1.0  0.34793  0.53950  0.23724  1.0000
  H   H1293     1.0  0.61678  0.82895  0.23669  1.0000
  H   H1294     1.0  0.34498  0.59883  0.24147  1.0000
  Fe  Fe161     1.0  0.61679  0.63811  0.23699  1.0000
  S   S323      1.0  0.58901  0.97588  0.23606  1.0000
  H   H1295     1.0  0.49266  0.72765  0.23882  1.0000
  C   C804      1.0  0.35622  0.55048  0.23785  1.0000
  C   C805      1.0  0.35456  0.58407  0.23996  1.0000
  N   N81       1.0  0.34296  0.56998  0.23924  1.0000
  Fe  Fe162     1.0  0.42967  0.80119  0.69539  1.0000
  S   S324      1.0  0.44304  0.76882  0.70184  1.0000
  S   S325      1.0  0.40392  0.81537  0.68007  1.0000
  Fe  Fe163     1.0  0.46077  0.81224  0.71091  1.0000
  C   C806      1.0  0.34957  0.83670  0.55232  1.0000
  Fe  Fe164     1.0  0.47201  0.77823  0.68923  1.0000
  S   S326      1.0  0.49302  0.76271  0.66622  1.0000
  H   H1296     1.0  0.57809  0.87656  0.68603  1.0000
  S   S327      1.0  0.45844  0.81029  0.68092  1.0000
  H   H1297     1.0  0.60722  0.83225  0.62693  1.0000
  Fe  Fe165     1.0  0.57265  0.79082  0.71263  1.0000
  S   S328      1.0  0.57959  0.80877  0.68243  1.0000
  C   C807      1.0  0.61369  0.81624  0.63109  1.0000
  Fe  Fe166     1.0  0.60890  0.75881  0.70603  1.0000
  S   S329      1.0  0.61947  0.77368  0.67516  1.0000
  S   S330      1.0  0.62604  0.72995  0.71993  1.0000
  Fe  Fe167     1.0  0.61066  0.80130  0.68733  1.0000
  S   S331      1.0  0.62645  0.82640  0.67848  1.0000
  Fe  Fe168     1.0  0.58770  0.77991  0.67274  1.0000
  S   S332      1.0  0.58021  0.77696  0.64539  1.0000
  S   S333      1.0  0.60309  0.78595  0.71854  1.0000
  S   S334      1.0  0.57779  0.76241  0.70244  1.0000
  Fe  Fe169     1.0  0.35662  0.77304  0.62007  1.0000
  C   C808      1.0  0.35738  0.71398  0.65008  1.0000
  S   S335      1.0  0.37457  0.75861  0.64362  1.0000
  Fe  Fe170     1.0  0.35671  0.78178  0.57656  1.0000
  H   H1298     1.0  0.63767  0.83544  0.60151  1.0000
  S   S336      1.0  0.37132  0.78541  0.54484  1.0000
  H   H1299     1.0  0.64337  0.82305  0.53435  1.0000
  H   H1300     1.0  0.43765  0.84760  0.69603  1.0000
  S   S337      1.0  0.36158  0.79931  0.59614  1.0000
  S   S338      1.0  0.35477  0.75439  0.59979  1.0000
  C   C809      1.0  0.36465  0.76984  0.53334  1.0000
  H   H1301     1.0  0.35489  0.66305  0.50879  1.0000
  C   C810      1.0  0.58170  0.84412  0.71427  1.0000
  H   H1302     1.0  0.60413  0.80252  0.60383  1.0000
  C   C811      1.0  0.60577  0.86422  0.70839  1.0000
  C   C812      1.0  0.42768  0.88276  0.70647  1.0000
  C   C813      1.0  0.34237  0.82955  0.52409  1.0000
  C   C814      1.0  0.64993  0.82239  0.66327  1.0000
  C   C815      1.0  0.34621  0.67848  0.50794  1.0000
  N   N82       1.0  0.33772  0.71080  0.65007  1.0000
  C   C816      1.0  0.66148  0.82369  0.50546  1.0000
  C   C817      1.0  0.34001  0.52945  0.71677  1.0000
  H   H1303     1.0  0.35811  0.74884  0.55998  1.0000
  C   C818      1.0  0.36014  0.76202  0.50388  1.0000
  H   H1304     1.0  0.62143  0.81438  0.64329  1.0000
  H   H1305     1.0  0.58672  0.84088  0.69926  1.0000
  H   H1306     1.0  0.35856  0.82498  0.51860  1.0000
  C   C819      1.0  0.34327  0.86289  0.52464  1.0000
  H   H1307     1.0  0.34884  0.68445  0.51976  1.0000
  C   C820      1.0  0.36535  0.77459  0.51308  1.0000
  C   C821      1.0  0.39453  0.79964  0.67101  1.0000
  C   C822      1.0  0.38350  0.80762  0.65613  1.0000
  C   C823      1.0  0.37690  0.79520  0.64791  1.0000
  C   C824      1.0  0.38127  0.77472  0.65458  1.0000
  C   C825      1.0  0.39191  0.76680  0.66974  1.0000
  C   C826      1.0  0.39848  0.77922  0.67795  1.0000
  H   H1308     1.0  0.38025  0.82342  0.65078  1.0000
  H   H1309     1.0  0.36857  0.80148  0.63633  1.0000
  H   H1310     1.0  0.39517  0.75100  0.67509  1.0000
  H   H1311     1.0  0.40648  0.77297  0.68975  1.0000
  C   C827      1.0  0.51694  0.76747  0.66039  1.0000
  C   C828      1.0  0.52311  0.77671  0.67212  1.0000
  C   C829      1.0  0.54255  0.77974  0.66749  1.0000
  C   C830      1.0  0.55568  0.77387  0.65092  1.0000
  C   C831      1.0  0.54932  0.76510  0.63894  1.0000
  C   C832      1.0  0.53005  0.76172  0.64378  1.0000
  H   H1312     1.0  0.51305  0.78127  0.68490  1.0000
  H   H1313     1.0  0.54731  0.78668  0.67673  1.0000
  H   H1314     1.0  0.55945  0.76049  0.62618  1.0000
  H   H1315     1.0  0.52535  0.75455  0.63469  1.0000
  H   H1316     1.0  0.61486  0.85222  0.71767  1.0000
  S   S339      1.0  0.47715  0.78083  0.71790  1.0000
  Fe  Fe171     1.0  0.44678  0.77463  0.72981  1.0000
  H   H1317     1.0  0.36999  0.78791  0.50446  1.0000
  H   H1318     1.0  0.35244  0.68740  0.49384  1.0000
  H   H1319     1.0  0.60861  0.87853  0.70920  1.0000
  H   H1320     1.0  0.35705  0.72036  0.66283  1.0000
  H   H1321     1.0  0.42214  0.89269  0.71725  1.0000
  N   N83       1.0  0.62730  0.80848  0.61427  1.0000
  H   H1322     1.0  0.34959  0.72636  0.54375  1.0000
  H   H1323     1.0  0.57489  0.89407  0.70130  1.0000
  N   N84       1.0  0.58452  0.86374  0.71472  1.0000
  H   H1324     1.0  0.38426  0.87046  0.70815  1.0000
  H   H1325     1.0  0.60119  0.80845  0.63696  1.0000
  C   C833      1.0  0.35857  0.75265  0.54440  1.0000
  H   H1326     1.0  0.34931  0.68851  0.63240  1.0000
  C   C834      1.0  0.35380  0.73991  0.53518  1.0000
  C   C835      1.0  0.63573  0.78729  0.62059  1.0000
  H   H1327     1.0  0.42920  0.89212  0.69150  1.0000
  C   C836      1.0  0.65920  0.83836  0.65505  1.0000
  H   H1328     1.0  0.65256  0.79124  0.66578  1.0000
  H   H1329     1.0  0.36258  0.72455  0.63671  1.0000
  H   H1330     1.0  0.61145  0.86206  0.69302  1.0000
  S   S340      1.0  0.47076  0.83785  0.71553  1.0000
  N   N85       1.0  0.41444  0.86908  0.70913  1.0000
  H   H1331     1.0  0.65027  0.83428  0.49832  1.0000
  N   N86       1.0  0.45035  0.77266  0.63425  1.0000
  C   C837      1.0  0.46961  0.76852  0.62077  1.0000
  C   C838      1.0  0.44904  0.79025  0.64215  1.0000
  C   C839      1.0  0.44871  0.75545  0.65053  1.0000
  C   C840      1.0  0.43407  0.77642  0.62361  1.0000
  H   H1332     1.0  0.47113  0.75536  0.61448  1.0000
  H   H1333     1.0  0.48217  0.76553  0.62849  1.0000
  H   H1334     1.0  0.47150  0.78126  0.60842  1.0000
  H   H1335     1.0  0.46142  0.78814  0.64978  1.0000
  H   H1336     1.0  0.44965  0.80365  0.63038  1.0000
  H   H1337     1.0  0.43503  0.79343  0.65292  1.0000
  H   H1338     1.0  0.43451  0.75813  0.66114  1.0000
  H   H1339     1.0  0.46079  0.75214  0.65885  1.0000
  H   H1340     1.0  0.44950  0.74194  0.64512  1.0000
  H   H1341     1.0  0.41939  0.78003  0.63334  1.0000
  H   H1342     1.0  0.43420  0.76331  0.61785  1.0000
  H   H1343     1.0  0.43499  0.78911  0.61103  1.0000
  H   H1344     1.0  0.62622  0.80518  0.58566  1.0000
  H   H1345     1.0  0.65424  0.81373  0.59436  1.0000
  H   H1346     1.0  0.36081  0.76563  0.48823  1.0000
  H   H1347     1.0  0.33755  0.54326  0.70643  1.0000
  H   H1348     1.0  0.39495  0.88992  0.69148  1.0000
  H   H1349     1.0  0.59030  0.83212  0.72396  1.0000
  H   H1350     1.0  0.65210  0.85277  0.65843  1.0000
  H   H1351     1.0  0.65185  0.81823  0.61832  1.0000
  S   S341      1.0  0.36413  0.54549  0.72952  1.0000
  C   C841      1.0  0.61631  0.81083  0.59862  1.0000
  C   C842      1.0  0.57314  0.87905  0.70134  1.0000
  H   H1352     1.0  0.62386  0.77868  0.62684  1.0000
  H   H1353     1.0  0.60960  0.82660  0.59349  1.0000
  H   H1354     1.0  0.36877  0.69998  0.65054  1.0000
  N   N87       1.0  0.33795  0.84431  0.53663  1.0000
  H   H1355     1.0  0.64465  0.78499  0.63195  1.0000
  S   S342      1.0  0.34901  0.72783  0.50404  1.0000
  C   C843      1.0  0.64344  0.81946  0.60680  1.0000
  H   H1356     1.0  0.42344  0.86480  0.67932  1.0000
  C   C844      1.0  0.65758  0.81736  0.52583  1.0000
  H   H1357     1.0  0.35923  0.86048  0.51761  1.0000
  H   H1358     1.0  0.44284  0.87455  0.70854  1.0000
  C   C845      1.0  0.35464  0.74452  0.51493  1.0000
  C   C846      1.0  0.39450  0.88046  0.70639  1.0000
  C   C847      1.0  0.42248  0.85616  0.69458  1.0000
  S   S343      1.0  0.43066  0.80625  0.72465  1.0000
  H   H1359     1.0  0.33759  0.70077  0.57590  1.0000
  H   H1360     1.0  0.48803  0.86115  0.73095  1.0000
  H   H1361     1.0  0.56586  0.84309  0.71915  1.0000
  H   H1362     1.0  0.55704  0.87896  0.70576  1.0000
  H   H1363     1.0  0.38789  0.89025  0.71723  1.0000
  H   H1364     1.0  0.34388  0.71330  0.61885  1.0000
  C   C848      1.0  0.65930  0.80374  0.65897  1.0000
  C   C849      1.0  0.35349  0.52614  0.72902  1.0000
  H   H1365     1.0  0.41309  0.84535  0.69637  1.0000
  H   H1366     1.0  0.64556  0.78087  0.60803  1.0000
  H   H1367     1.0  0.36577  0.83378  0.54628  1.0000
  H   H1368     1.0  0.66083  0.75482  0.65523  1.0000
  H   H1369     1.0  0.64110  0.73068  0.67734  1.0000
  H   H1370     1.0  0.65874  0.74825  0.69089  1.0000
  S   S344      1.0  0.54466  0.80143  0.73298  1.0000
  H   H1371     1.0  0.34027  0.87428  0.53372  1.0000
  H   H1372     1.0  0.42794  0.84798  0.73154  1.0000
  H   H1373     1.0  0.33701  0.81591  0.53223  1.0000
  H   H1374     1.0  0.34623  0.84714  0.56248  1.0000
  H   H1375     1.0  0.34615  0.82253  0.56125  1.0000
  H   H1376     1.0  0.33528  0.83539  0.51109  1.0000
  H   H1377     1.0  0.33457  0.86909  0.51277  1.0000
  H   H1378     1.0  0.40326  0.84633  0.73170  1.0000
  H   H1379     1.0  0.34220  0.68198  0.66858  1.0000
  C   C850      1.0  0.65481  0.71893  0.67592  1.0000
  C   C851      1.0  0.41314  0.85685  0.72910  1.0000
  C   C852      1.0  0.33880  0.70304  0.63252  1.0000
  H   H1380     1.0  0.65350  0.70769  0.68978  1.0000
  H   H1381     1.0  0.65489  0.71183  0.66377  1.0000
  H   H1382     1.0  0.46469  0.73164  0.73460  1.0000
  C   C853      1.0  0.33277  0.49701  0.73122  1.0000
  C   C854      1.0  0.33153  0.69648  0.66788  1.0000
  H   H1383     1.0  0.33130  0.73220  0.58732  1.0000
  C   C855      1.0  0.57744  0.86753  0.73484  1.0000
  Fe  Fe172     1.0  0.48230  0.86647  0.80818  1.0000
  S   S345      1.0  0.50812  0.84762  0.82125  1.0000
  S   S346      1.0  0.46209  0.84995  0.80203  1.0000
  Fe  Fe173     1.0  0.49300  0.90489  0.80930  1.0000
  S   S347      1.0  0.52008  0.88890  0.82165  1.0000
  S   S348      1.0  0.48202  0.93817  0.80426  1.0000
  Fe  Fe174     1.0  0.52508  0.86909  0.80044  1.0000
  C   C856      1.0  0.58101  0.72271  0.76642  1.0000
  Fe  Fe175     1.0  0.50078  0.86884  0.84141  1.0000
  S   S349      1.0  0.50546  0.86004  0.87250  1.0000
  S   S350      1.0  0.49978  0.88691  0.78588  1.0000
  S   S351      1.0  0.47313  0.88595  0.83061  1.0000
  H   H1384     1.0  0.52698  0.80333  0.83843  1.0000
  C   C857      1.0  0.53388  0.84157  0.76685  1.0000
  H   H1385     1.0  0.51808  0.83288  0.74971  1.0000
  S   S352      1.0  0.43946  0.75759  0.76029  1.0000
  Fe  Fe176     1.0  0.47271  0.65886  0.81071  1.0000
  S   S353      1.0  0.44322  0.67386  0.82572  1.0000
  S   S354      1.0  0.48606  0.67008  0.77944  1.0000
  Fe  Fe177     1.0  0.47795  0.62660  0.84646  1.0000
  S   S355      1.0  0.44911  0.63926  0.86454  1.0000
  S   S356      1.0  0.49597  0.59677  0.85677  1.0000
  Fe  Fe178     1.0  0.43719  0.64346  0.83722  1.0000
  S   S357      1.0  0.40806  0.63599  0.83782  1.0000
  Fe  Fe179     1.0  0.45826  0.66833  0.85118  1.0000
  S   S358      1.0  0.45619  0.69502  0.86353  1.0000
  S   S359      1.0  0.46553  0.62891  0.82012  1.0000
  S   S360      1.0  0.48818  0.65519  0.83521  1.0000
  Fe  Fe180     1.0  0.59601  0.62541  0.83520  1.0000
  S   S361      1.0  0.62334  0.62397  0.84576  1.0000
  S   S362      1.0  0.58707  0.59654  0.83963  1.0000
  Fe  Fe181     1.0  0.59257  0.66880  0.81626  1.0000
  S   S363      1.0  0.61981  0.67107  0.82500  1.0000
  S   S364      1.0  0.57403  0.69475  0.79959  1.0000
  Fe  Fe182     1.0  0.63283  0.64171  0.81606  1.0000
  H   H1386     1.0  0.62565  0.57784  0.85445  1.0000
  Fe  Fe183     1.0  0.60765  0.65322  0.85383  1.0000
  S   S365      1.0  0.60676  0.65831  0.88366  1.0000
  S   S366      1.0  0.60652  0.64099  0.80477  1.0000
  S   S367      1.0  0.57924  0.65315  0.84581  1.0000
  Fe  Fe184     1.0  0.49900  0.71823  0.94150  1.0000
  S   S368      1.0  0.50411  0.74308  0.91636  1.0000
  S   S369      1.0  0.48662  0.69277  0.93959  1.0000
  Fe  Fe185     1.0  0.51412  0.73562  0.96859  1.0000
  S   S370      1.0  0.52059  0.76204  0.94509  1.0000
  Fe  Fe186     1.0  0.49140  0.76283  0.93802  1.0000
  S   S371      1.0  0.46876  0.78906  0.92711  1.0000
  Fe  Fe187     1.0  0.53276  0.74005  0.92521  1.0000
  S   S372      1.0  0.55736  0.74224  0.89884  1.0000
  S   S373      1.0  0.48379  0.73817  0.96289  1.0000
  S   S374      1.0  0.52880  0.71348  0.94895  1.0000
  Fe  Fe188     1.0  0.38465  0.56047  0.78633  1.0000
  S   S375      1.0  0.35818  0.57172  0.77172  1.0000
  S   S376      1.0  0.40757  0.57846  0.78350  1.0000
  Fe  Fe189     1.0  0.36873  0.54392  0.75974  1.0000
  C   C858      1.0  0.50295  0.76132  0.78730  1.0000
  S   S377      1.0  0.36800  0.54447  0.81394  1.0000
  Fe  Fe190     1.0  0.37759  0.51856  0.79888  1.0000
  H   H1387     1.0  0.55529  0.82377  0.84864  1.0000
  C   C859      1.0  0.42449  0.77170  0.91762  1.0000
  S   S378      1.0  0.39631  0.53363  0.77232  1.0000
  H   H1388     1.0  0.51749  0.79410  0.77299  1.0000
  C   C860      1.0  0.47775  0.77904  0.76859  1.0000
  H   H1389     1.0  0.48313  0.69687  0.74233  1.0000
  C   C861      1.0  0.59349  0.68185  0.88762  1.0000
  C   C862      1.0  0.58763  0.68540  0.90674  1.0000
  C   C863      1.0  0.57632  0.70386  0.91028  1.0000
  C   C864      1.0  0.57125  0.71898  0.89466  1.0000
  C   C865      1.0  0.57727  0.71550  0.87550  1.0000
  C   C866      1.0  0.58811  0.69686  0.87201  1.0000
  H   H1390     1.0  0.59180  0.67384  0.91884  1.0000
  H   H1391     1.0  0.57194  0.70653  0.92507  1.0000
  H   H1392     1.0  0.57341  0.72715  0.86336  1.0000
  H   H1393     1.0  0.59256  0.69421  0.85722  1.0000
  C   C867      1.0  0.58869  0.70464  0.77769  1.0000
  H   H1394     1.0  0.56621  0.73070  0.77137  1.0000
  C   C868      1.0  0.40766  0.62024  0.82257  1.0000
  C   C869      1.0  0.39168  0.61089  0.82639  1.0000
  C   C870      1.0  0.39132  0.59801  0.81456  1.0000
  C   C871      1.0  0.40688  0.59459  0.79874  1.0000
  C   C872      1.0  0.42271  0.60413  0.79484  1.0000
  C   C873      1.0  0.42311  0.61687  0.80669  1.0000
  H   H1395     1.0  0.37960  0.61349  0.83860  1.0000
  H   H1396     1.0  0.37903  0.59075  0.81765  1.0000
  H   H1397     1.0  0.43473  0.60161  0.78255  1.0000
  H   H1398     1.0  0.43529  0.62422  0.80336  1.0000
  C   C874      1.0  0.46719  0.69231  0.88364  1.0000
  C   C875      1.0  0.47703  0.70679  0.88393  1.0000
  C   C876      1.0  0.48373  0.70656  0.90077  1.0000
  C   C877      1.0  0.48008  0.69225  0.91765  1.0000
  C   C878      1.0  0.47088  0.67733  0.91715  1.0000
  C   C879      1.0  0.46457  0.67726  0.90012  1.0000
  H   H1399     1.0  0.47923  0.71836  0.87115  1.0000
  H   H1400     1.0  0.49145  0.71765  0.90072  1.0000
  H   H1401     1.0  0.46815  0.66608  0.93011  1.0000
  H   H1402     1.0  0.45684  0.66612  0.90005  1.0000
  C   C880      1.0  0.52116  0.59693  0.85303  1.0000
  C   C881      1.0  0.53521  0.57965  0.85022  1.0000
  C   C882      1.0  0.55543  0.57967  0.84631  1.0000
  C   C883      1.0  0.56167  0.59691  0.84541  1.0000
  C   C884      1.0  0.54764  0.61406  0.84885  1.0000
  C   C885      1.0  0.52737  0.61410  0.85255  1.0000
  H   H1403     1.0  0.53048  0.56631  0.85074  1.0000
  H   H1404     1.0  0.56623  0.56634  0.84382  1.0000
  H   H1405     1.0  0.55241  0.62723  0.84870  1.0000
  H   H1406     1.0  0.51657  0.62726  0.85546  1.0000
  C   C886      1.0  0.45511  0.73441  0.76486  1.0000
  C   C887      1.0  0.46546  0.72450  0.74964  1.0000
  C   C888      1.0  0.47591  0.70489  0.75400  1.0000
  C   C889      1.0  0.47621  0.69544  0.77353  1.0000
  C   C890      1.0  0.46716  0.70593  0.78852  1.0000
  C   C891      1.0  0.45633  0.72527  0.78424  1.0000
  C   C892      1.0  0.61172  0.72038  0.74228  1.0000
  H   H1407     1.0  0.57060  0.67001  0.77566  1.0000
  H   H1408     1.0  0.46819  0.69907  0.80353  1.0000
  H   H1409     1.0  0.44861  0.73303  0.79602  1.0000
  C   C893      1.0  0.49560  0.83984  0.88697  1.0000
  C   C894      1.0  0.50365  0.82883  0.90328  1.0000
  C   C895      1.0  0.49584  0.81282  0.91528  1.0000
  C   C896      1.0  0.47954  0.80817  0.91138  1.0000
  C   C897      1.0  0.47154  0.81912  0.89500  1.0000
  C   C898      1.0  0.47979  0.83474  0.88259  1.0000
  H   H1410     1.0  0.51587  0.83275  0.90673  1.0000
  H   H1411     1.0  0.50196  0.80455  0.92799  1.0000
  H   H1412     1.0  0.45891  0.81560  0.89194  1.0000
  H   H1413     1.0  0.47352  0.84321  0.87001  1.0000
  C   C899      1.0  0.49519  0.95293  0.81019  1.0000
  C   C900      1.0  0.51473  0.94559  0.81271  1.0000
  C   C901      1.0  0.52458  0.95714  0.81853  1.0000
  C   C902      1.0  0.51503  0.97618  0.82177  1.0000
  C   C903      1.0  0.49562  0.98378  0.81877  1.0000
  C   C904      1.0  0.48575  0.97216  0.81297  1.0000
  H   H1414     1.0  0.52231  0.93101  0.81013  1.0000
  H   H1415     1.0  0.53965  0.95127  0.82066  1.0000
  H   H1416     1.0  0.52168  0.85318  0.77114  1.0000
  H   H1417     1.0  0.47062  0.97796  0.81101  1.0000
  C   C905      1.0  0.40486  0.67332  0.79380  1.0000
  C   C906      1.0  0.46503  0.84635  0.77798  1.0000
  C   C907      1.0  0.47707  0.85617  0.76217  1.0000
  H   H1418     1.0  0.53019  0.77312  0.87628  1.0000
  C   C908      1.0  0.45503  0.76011  0.89636  1.0000
  C   C909      1.0  0.45675  0.83057  0.75553  1.0000
  C   C910      1.0  0.45486  0.83355  0.77458  1.0000
  H   H1419     1.0  0.48493  0.86609  0.76458  1.0000
  H   H1420     1.0  0.65197  0.57510  0.85033  1.0000
  H   H1421     1.0  0.47408  0.79034  0.75556  1.0000
  H   H1422     1.0  0.44542  0.82600  0.78674  1.0000
  N   N88       1.0  0.49668  0.92061  0.87119  1.0000
  C   C911      1.0  0.49359  0.94217  0.86957  1.0000
  C   C912      1.0  0.51760  0.91260  0.86309  1.0000
  C   C913      1.0  0.48375  0.91662  0.86011  1.0000
  C   C914      1.0  0.49178  0.91096  0.89199  1.0000
  H   H1423     1.0  0.49655  0.94988  0.85400  1.0000
  H   H1424     1.0  0.50361  0.94587  0.87712  1.0000
  H   H1425     1.0  0.47808  0.94867  0.87595  1.0000
  H   H1426     1.0  0.52043  0.89636  0.86404  1.0000
  H   H1427     1.0  0.52181  0.91946  0.84741  1.0000
  H   H1428     1.0  0.52780  0.91539  0.87106  1.0000
  H   H1429     1.0  0.48530  0.90049  0.86145  1.0000
  H   H1430     1.0  0.48746  0.92309  0.84425  1.0000
  H   H1431     1.0  0.46789  0.92296  0.86538  1.0000
  H   H1432     1.0  0.50120  0.91372  0.90082  1.0000
  H   H1433     1.0  0.49412  0.89463  0.89362  1.0000
  H   H1434     1.0  0.47604  0.91645  0.89853  1.0000
  N   N89       1.0  0.43948  0.75400  0.91300  1.0000
  C   C915      1.0  0.44834  0.74378  0.93034  1.0000
  C   C916      1.0  0.43005  0.74046  0.90770  1.0000
  C   C917      1.0  0.64002  0.56700  0.85236  1.0000
  H   H1435     1.0  0.57318  0.64498  0.77363  1.0000
  H   H1436     1.0  0.41743  0.77981  0.90491  1.0000
  H   H1437     1.0  0.42355  0.74748  0.89442  1.0000
  H   H1438     1.0  0.41803  0.73578  0.91980  1.0000
  H   H1439     1.0  0.64050  0.55577  0.86617  1.0000
  H   H1440     1.0  0.46261  0.77016  0.89992  1.0000
  N   N90       1.0  0.53844  0.66162  0.90521  1.0000
  C   C918      1.0  0.52820  0.65103  0.92373  1.0000
  C   C919      1.0  0.53839  0.68167  0.90735  1.0000
  C   C920      1.0  0.52825  0.66308  0.88918  1.0000
  C   C921      1.0  0.55908  0.65070  0.90053  1.0000
  H   H1441     1.0  0.52832  0.63572  0.92276  1.0000
  H   H1442     1.0  0.51247  0.65865  0.92754  1.0000
  H   H1443     1.0  0.53527  0.65013  0.93619  1.0000
  H   H1444     1.0  0.54639  0.68994  0.89378  1.0000
  H   H1445     1.0  0.52311  0.69051  0.91063  1.0000
  H   H1446     1.0  0.54570  0.68112  0.91953  1.0000
  H   H1447     1.0  0.52831  0.64821  0.88696  1.0000
  H   H1448     1.0  0.53550  0.67126  0.87507  1.0000
  H   H1449     1.0  0.51254  0.67102  0.89231  1.0000
  H   H1450     1.0  0.56702  0.65817  0.88647  1.0000
  H   H1451     1.0  0.55990  0.63537  0.89907  1.0000
  H   H1452     1.0  0.56752  0.64982  0.91194  1.0000
  N   N91       1.0  0.45290  0.57113  0.84615  1.0000
  C   C922      1.0  0.46414  0.55514  0.85914  1.0000
  C   C923      1.0  0.43691  0.56411  0.84197  1.0000
  C   C924      1.0  0.46641  0.57713  0.82759  1.0000
  C   C925      1.0  0.44420  0.58819  0.85590  1.0000
  H   H1453     1.0  0.47635  0.56010  0.86242  1.0000
  H   H1454     1.0  0.47092  0.54198  0.85230  1.0000
  H   H1455     1.0  0.45446  0.55036  0.87337  1.0000
  H   H1456     1.0  0.44290  0.55143  0.83432  1.0000
  H   H1457     1.0  0.42646  0.55935  0.85562  1.0000
  H   H1458     1.0  0.42805  0.57597  0.83237  1.0000
  H   H1459     1.0  0.45839  0.58906  0.81736  1.0000
  H   H1460     1.0  0.47338  0.56456  0.81992  1.0000
  H   H1461     1.0  0.47853  0.58273  0.83019  1.0000
  H   H1462     1.0  0.43611  0.60073  0.84633  1.0000
  H   H1463     1.0  0.45577  0.59364  0.85966  1.0000
  H   H1464     1.0  0.43349  0.58442  0.86969  1.0000
  N   N92       1.0  0.49860  0.77655  0.76991  1.0000
  H   H1465     1.0  0.63424  0.69434  0.74866  1.0000
  C   C926      1.0  0.50198  0.79552  0.77161  1.0000
  H   H1466     1.0  0.44441  0.66470  0.78765  1.0000
  H   H1467     1.0  0.46006  0.73064  0.92734  1.0000
  Fe  Fe191     1.0  0.34264  0.55310  0.79792  1.0000
  H   H1468     1.0  0.49936  0.80715  0.75839  1.0000
  H   H1469     1.0  0.46737  0.78387  0.78169  1.0000
  H   H1470     1.0  0.44093  0.72678  0.90453  1.0000
  C   C927      1.0  0.64187  0.57336  0.81748  1.0000
  C   C928      1.0  0.34731  0.49314  0.74244  1.0000
  S   S379      1.0  0.52752  0.98934  0.83064  1.0000
  H   H1471     1.0  0.42749  0.69930  0.79059  1.0000
  H   H1472     1.0  0.58667  0.74481  0.74049  1.0000
  H   H1473     1.0  0.43113  0.70686  0.76450  1.0000
  H   H1474     1.0  0.39000  0.68335  0.79551  1.0000
  H   H1475     1.0  0.61136  0.55795  0.84027  1.0000
  N   N93       1.0  0.64235  0.55781  0.83542  1.0000
  C   C929      1.0  0.42104  0.70048  0.77765  1.0000
  H   H1476     1.0  0.57735  0.79965  0.75119  1.0000
  C   C930      1.0  0.62601  0.54754  0.83856  1.0000
  H   H1477     1.0  0.40279  0.65855  0.79333  1.0000
  H   H1478     1.0  0.42032  0.68908  0.74500  1.0000
  H   H1479     1.0  0.41054  0.67155  0.80736  1.0000
  H   H1480     1.0  0.44871  0.82081  0.75309  1.0000
  H   H1481     1.0  0.51720  0.67750  0.79867  1.0000
  H   H1482     1.0  0.40670  0.71138  0.77913  1.0000
  H   H1483     1.0  0.55969  0.63621  0.80903  1.0000
  S   S380      1.0  0.35131  0.52627  0.78478  1.0000
  H   H1484     1.0  0.65378  0.58163  0.81490  1.0000
  H   H1485     1.0  0.55698  0.66122  0.81132  1.0000
  H   H1486     1.0  0.61407  0.68058  0.77999  1.0000
  C   C931      1.0  0.46870  0.84053  0.73973  1.0000
  H   H1487     1.0  0.47464  0.76503  0.76727  1.0000
  H   H1488     1.0  0.43713  0.73862  0.94307  1.0000
  H   H1489     1.0  0.62759  0.58440  0.81859  1.0000
  C   C932      1.0  0.60794  0.69448  0.77131  1.0000
  H   H1490     1.0  0.56743  0.78519  0.87772  1.0000
  C   C933      1.0  0.54951  0.65101  0.80791  1.0000
  H   H1491     1.0  0.52056  0.64285  0.79573  1.0000
  H   H1492     1.0  0.43129  0.78221  0.92157  1.0000
  H   H1493     1.0  0.46657  0.74721  0.89237  1.0000
  H   H1494     1.0  0.44880  0.76805  0.88310  1.0000
  H   H1495     1.0  0.53606  0.64977  0.81954  1.0000
  C   C934      1.0  0.53433  0.64429  0.78456  1.0000
  H   H1496     1.0  0.52761  0.76754  0.75292  1.0000
  H   H1497     1.0  0.54398  0.62927  0.78496  1.0000
  C   C935      1.0  0.52975  0.78885  0.87604  1.0000
  C   C936      1.0  0.54191  0.79495  0.84104  1.0000
  H   H1498     1.0  0.56660  0.76917  0.86258  1.0000
  H   H1499     1.0  0.51461  0.79754  0.87454  1.0000
  H   H1500     1.0  0.55300  0.80101  0.82866  1.0000
  N   N94       1.0  0.54441  0.65821  0.78829  1.0000
  N   N95       1.0  0.54506  0.79656  0.86010  1.0000
  H   H1501     1.0  0.53196  0.78943  0.89068  1.0000
  H   H1502     1.0  0.54317  0.77929  0.84035  1.0000
  H   H1503     1.0  0.64384  0.56706  0.80430  1.0000
  H   H1504     1.0  0.36810  0.50511  0.75079  1.0000
  H   H1505     1.0  0.55937  0.66494  0.75830  1.0000
  H   H1506     1.0  0.52672  0.68372  0.77294  1.0000
  H   H1507     1.0  0.58553  0.85613  0.74542  1.0000
  H   H1508     1.0  0.52991  0.64941  0.77001  1.0000
  C   C937      1.0  0.56487  0.78497  0.86312  1.0000
  H   H1509     1.0  0.49196  0.80111  0.78452  1.0000
  H   H1510     1.0  0.54521  0.81948  0.87455  1.0000
  C   C938      1.0  0.56267  0.65955  0.77329  1.0000
  H   H1511     1.0  0.53832  0.68884  0.79011  1.0000
  H   H1512     1.0  0.57685  0.79072  0.85173  1.0000
  S   S381      1.0  0.55510  0.85485  0.78569  1.0000
  C   C939      1.0  0.54368  0.81752  0.86015  1.0000
  H   H1513     1.0  0.52914  0.82670  0.85725  1.0000
  H   H1514     1.0  0.45525  0.75366  0.93498  1.0000
  H   H1515     1.0  0.50040  0.74686  0.78647  1.0000
  H   H1516     1.0  0.50961  0.78199  0.73876  1.0000
  C   C940      1.0  0.56760  0.82350  0.76696  1.0000
  H   H1517     1.0  0.40809  0.66898  0.75708  1.0000
  H   H1518     1.0  0.51866  0.75900  0.78863  1.0000
  H   H1519     1.0  0.41261  0.76774  0.93025  1.0000
  H   H1520     1.0  0.50891  0.75660  0.74971  1.0000
  C   C941      1.0  0.55188  0.83864  0.77264  1.0000
  H   H1521     1.0  0.43671  0.65245  0.77286  1.0000
  H   H1522     1.0  0.39568  0.69389  0.75929  1.0000
  C   C942      1.0  0.54756  0.81508  0.74878  1.0000
  C   C943      1.0  0.43794  0.66714  0.77447  1.0000
  H   H1523     1.0  0.44886  0.67280  0.76166  1.0000
  C   C944      1.0  0.41028  0.68336  0.75859  1.0000
  N   N96       1.0  0.41853  0.68108  0.77614  1.0000
  H   H1524     1.0  0.49339  0.76562  0.80100  1.0000
  C   C945      1.0  0.51171  0.77033  0.75209  1.0000
  H   H1525     1.0  0.58150  0.82104  0.77160  1.0000
  C   C946      1.0  0.53110  0.67795  0.78747  1.0000
  C   C947      1.0  0.35726  0.50790  0.74174  1.0000
  C   C948      1.0  0.61940  0.70229  0.75357  1.0000
  C   C949      1.0  0.59258  0.73066  0.74885  1.0000
  H   H1526     1.0  0.62591  0.53576  0.85202  1.0000
  C   C950      1.0  0.53180  0.82997  0.75478  1.0000
  C   C951      1.0  0.56535  0.81156  0.75520  1.0000
  C   C952      1.0  0.47876  0.85340  0.74310  1.0000
  H   H1527     1.0  0.62728  0.54051  0.82600  1.0000
  H   H1528     1.0  0.33707  0.52513  0.82688  1.0000
  H   H1529     1.0  0.33277  0.49707  0.85374  1.0000
  H   H1530     1.0  0.56141  0.86741  0.74004  1.0000
  H   H1531     1.0  0.66367  0.53608  0.82068  1.0000
  H   H1532     1.0  0.57942  0.88214  0.73585  1.0000
  H   H1533     1.0  0.40740  0.86608  0.74051  1.0000
  C   C953      1.0  0.66144  0.54340  0.83326  1.0000
  S   S382      1.0  0.66244  0.63254  0.79712  1.0000
  H   H1534     1.0  0.66243  0.53158  0.84661  1.0000
  H   H1535     1.0  0.73371  0.46938  0.16741  1.0000
  H   H1536     1.0  0.78600  0.29037  0.13585  1.0000
  H   H1537     1.0  0.77968  0.29880  0.16895  1.0000
  S   S383      1.0  0.84323  0.47516  0.08362  1.0000
  C   C954      1.0  0.77309  0.28309  0.14111  1.0000
  H   H1538     1.0  0.74605  0.26650  0.16927  1.0000
  C   C955      1.0  0.78432  0.47617  0.16020  1.0000
  H   H1539     1.0  0.76615  0.41703  0.09034  1.0000
  H   H1540     1.0  0.92130  0.42567  0.10948  1.0000
  C   C956      1.0  0.91141  0.41600  0.10927  1.0000
  C   C957      1.0  0.72047  0.44385  0.22178  1.0000
  H   H1541     1.0  0.76664  0.28418  0.12817  1.0000
  H   H1542     1.0  0.94506  0.39525  0.12089  1.0000
  S   S384      1.0  0.72960  0.43045  0.16827  1.0000
  C   C958      1.0  0.89219  0.44728  0.15728  1.0000
  Fe  Fe192     1.0  0.72344  0.35870  0.18391  1.0000
  S   S385      1.0  0.75422  0.34059  0.18376  1.0000
  S   S386      1.0  0.69748  0.34380  0.19168  1.0000
  Fe  Fe193     1.0  0.73701  0.39724  0.17588  1.0000
  S   S387      1.0  0.76895  0.38232  0.17494  1.0000
  H   H1543     1.0  0.73416  0.28331  0.15048  1.0000
  Fe  Fe194     1.0  0.76316  0.36329  0.15752  1.0000
  S   S388      1.0  0.78411  0.35291  0.13127  1.0000
  Fe  Fe195     1.0  0.75731  0.36111  0.20121  1.0000
  S   S389      1.0  0.73204  0.37986  0.15608  1.0000
  H   H1544     1.0  0.76364  0.32141  0.14261  1.0000
  H   H1545     1.0  0.77059  0.47220  0.16058  1.0000
  Fe  Fe196     1.0  0.84784  0.45419  0.06339  1.0000
  S   S390      1.0  0.87575  0.43564  0.07280  1.0000
  S   S391      1.0  0.84884  0.46323  0.03075  1.0000
  Fe  Fe197     1.0  0.82626  0.45411  0.10551  1.0000
  S   S392      1.0  0.85211  0.43515  0.11831  1.0000
  H   H1546     1.0  0.93686  0.37247  0.13135  1.0000
  Fe  Fe198     1.0  0.86952  0.45487  0.09494  1.0000
  S   S393      1.0  0.89421  0.46687  0.09910  1.0000
  Fe  Fe199     1.0  0.85576  0.41799  0.09513  1.0000
  S   S394      1.0  0.86302  0.38501  0.09959  1.0000
  C   C959      1.0  0.86497  0.48385  0.18596  1.0000
  S   S395      1.0  0.82823  0.43502  0.08428  1.0000
  C   C960      1.0  0.82005  0.43092  0.00180  1.0000
  C   C961      1.0  0.81224  0.43326  0.02120  1.0000
  C   C962      1.0  0.82094  0.44320  0.03020  1.0000
  C   C963      1.0  0.83745  0.45095  0.01979  1.0000
  C   C964      1.0  0.77060  0.42852  0.13188  1.0000
  H   H1547     1.0  0.79950  0.42720  0.02933  1.0000
  H   H1548     1.0  0.81480  0.44499  0.04515  1.0000
  C   C965      1.0  0.80623  0.36161  0.12370  1.0000
  C   C966      1.0  0.80743  0.37936  0.12774  1.0000
  C   C967      1.0  0.82487  0.38666  0.12040  1.0000
  C   C968      1.0  0.84139  0.37577  0.10968  1.0000
  C   C969      1.0  0.84038  0.35775  0.10614  1.0000
  C   C970      1.0  0.82271  0.35088  0.11279  1.0000
  H   H1549     1.0  0.79483  0.38759  0.13627  1.0000
  H   H1550     1.0  0.82561  0.40056  0.12329  1.0000
  H   H1551     1.0  0.85315  0.34922  0.09798  1.0000
  H   H1552     1.0  0.82188  0.33711  0.10970  1.0000
  Fe  Fe200     1.0  0.97146  0.46509  0.20146  1.0000
  S   S396      1.0  0.79761  0.46293  0.12579  1.0000
  C   C971      1.0  0.90020  0.38556  0.12345  1.0000
  H   H1553     1.0  0.77872  0.26714  0.14676  1.0000
  C   C972      1.0  0.74122  0.43488  0.11849  1.0000
  H   H1554     1.0  0.83330  0.49088  0.15869  1.0000
  N   N97       1.0  0.75826  0.29242  0.15632  1.0000
  H   H1555     1.0  0.75631  0.29725  0.18514  1.0000
  H   H1556     1.0  0.87324  0.45036  0.13718  1.0000
  S   S397      1.0  0.80972  0.41694  0.99168  1.0000
  C   C973      1.0  0.79816  0.44501  0.21953  1.0000
  H   H1557     1.0  0.83058  0.47540  0.13248  1.0000
  C   C974      1.0  0.92152  0.46089  0.14397  1.0000
  C   C975      1.0  0.91628  0.46644  0.12545  1.0000
  C   C976      1.0  0.89909  0.46221  0.12281  1.0000
  C   C977      1.0  0.88677  0.45316  0.13891  1.0000
  C   C978      1.0  0.72316  0.46332  0.21712  1.0000
  H   H1558     1.0  0.73650  0.42163  0.12859  1.0000
  C   C979      1.0  0.81815  0.47785  0.14442  1.0000
  H   H1559     1.0  0.78809  0.41253  0.10020  1.0000
  C   C980      1.0  0.73016  0.46218  0.18259  1.0000
  S   S398      1.0  0.72567  0.37757  0.20373  1.0000
  H   H1560     1.0  0.73489  0.43771  0.10516  1.0000
  H   H1561     1.0  0.70434  0.32265  0.12988  1.0000
  Fe  Fe201     1.0  0.93472  0.45638  0.19354  1.0000
  C   C981      1.0  0.69639  0.32777  0.17726  1.0000
  C   C982      1.0  0.70188  0.33209  0.15684  1.0000
  C   C983      1.0  0.70020  0.31922  0.14569  1.0000
  C   C984      1.0  0.69300  0.30205  0.15493  1.0000
  C   C985      1.0  0.74137  0.28242  0.16285  1.0000
  C   C986      1.0  0.68908  0.31068  0.18645  1.0000
  H   H1562     1.0  0.70721  0.34547  0.14965  1.0000
  S   S399      1.0  0.77496  0.34864  0.22499  1.0000
  H   H1563     1.0  0.89355  0.41063  0.14743  1.0000
  H   H1564     1.0  0.68484  0.30728  0.20226  1.0000
  C   C987      1.0  0.72822  0.47241  0.19750  1.0000
  H   H1565     1.0  0.88291  0.43968  0.16957  1.0000
  H   H1566     1.0  0.73430  0.44756  0.12606  1.0000
  C   C988      1.0  0.84497  0.44905  0.00022  1.0000
  S   S400      1.0  0.91532  0.47120  0.21746  1.0000
  C   C989      1.0  0.90966  0.45091  0.15979  1.0000
  H   H1567     1.0  0.88447  0.39362  0.12634  1.0000
  H   H1568     1.0  0.89601  0.42480  0.11177  1.0000
  H   H1569     1.0  0.68285  0.28418  0.18266  1.0000
  H   H1570     1.0  0.78489  0.44857  0.09665  1.0000
  C   C990      1.0  0.80033  0.47292  0.14471  1.0000
  H   H1571     1.0  0.72079  0.41844  0.21061  1.0000
  S   S401      1.0  0.91685  0.44126  0.18247  1.0000
  H   H1572     1.0  0.76796  0.45132  0.20079  1.0000
  C   C991      1.0  0.76855  0.45009  0.10047  1.0000
  C   C992      1.0  0.77165  0.41496  0.10404  1.0000
  H   H1573     1.0  0.76253  0.46319  0.10757  1.0000
  S   S402      1.0  0.95696  0.43882  0.21199  1.0000
  H   H1574     1.0  0.74051  0.32114  0.15938  1.0000
  H   H1575     1.0  0.90306  0.38171  0.10877  1.0000
  H   H1576     1.0  0.91131  0.38916  0.15554  1.0000
  S   S403      1.0  0.66808  0.21281  0.21586  1.0000
  H   H1577     1.0  0.85775  0.45506  0.99212  1.0000
  H   H1578     1.0  0.93848  0.38257  0.10559  1.0000
  C   C993      1.0  0.78592  0.48480  0.17507  1.0000
  H   H1579     1.0  0.74375  0.31540  0.13569  1.0000
  S   S404      1.0  0.69109  0.28609  0.14074  1.0000
  N   N98       1.0  0.85257  0.38220  0.04283  1.0000
  C   C994      1.0  0.84501  0.36383  0.04783  1.0000
  C   C995      1.0  0.83902  0.39662  0.05425  1.0000
  C   C996      1.0  0.85377  0.39056  0.02167  1.0000
  C   C997      1.0  0.87245  0.37785  0.04758  1.0000
  H   H1580     1.0  0.85491  0.35257  0.03952  1.0000
  H   H1581     1.0  0.83003  0.36666  0.04434  1.0000
  H   H1582     1.0  0.84374  0.35723  0.06373  1.0000
  H   H1583     1.0  0.84445  0.41057  0.05102  1.0000
  H   H1584     1.0  0.82392  0.40041  0.05092  1.0000
  H   H1585     1.0  0.83763  0.39075  0.07026  1.0000
  H   H1586     1.0  0.85860  0.40491  0.01752  1.0000
  H   H1587     1.0  0.83916  0.39328  0.01745  1.0000
  H   H1588     1.0  0.86439  0.38040  0.01253  1.0000
  H   H1589     1.0  0.87831  0.39155  0.04444  1.0000
  H   H1590     1.0  0.88322  0.36731  0.03898  1.0000
  H   H1591     1.0  0.87209  0.37123  0.06339  1.0000
  Fe  Fe202     1.0  0.66999  0.26540  0.15492  1.0000
  H   H1592     1.0  0.80651  0.40722  0.21620  1.0000
  C   C998      1.0  0.75122  0.31350  0.14811  1.0000
  H   H1593     1.0  0.78703  0.42593  0.12894  1.0000
  H   H1594     1.0  0.77330  0.27510  0.17951  1.0000
  S   S405      1.0  0.95071  0.48130  0.18057  1.0000
  H   H1595     1.0  0.72983  0.28927  0.17420  1.0000
  C   C999      1.0  0.76733  0.29077  0.17321  1.0000
  C   C1000     1.0  0.72755  0.44268  0.18725  1.0000
  C   C1001     1.0  0.83642  0.43888  0.99129  1.0000
  C   C1002     1.0  0.93448  0.38646  0.12035  1.0000
  H   H1596     1.0  0.87486  0.47260  0.19505  1.0000
  H   H1597     1.0  0.76474  0.44134  0.13940  1.0000
  S   S406      1.0  0.95439  0.48010  0.22651  1.0000
  H   H1598     1.0  0.76300  0.45344  0.08661  1.0000
  H   H1599     1.0  0.93509  0.46367  0.14581  1.0000
  H   H1600     1.0  0.99577  0.48879  0.21631  1.0000
  H   H1601     1.0  0.76614  0.41547  0.14245  1.0000
  N   N99       1.0  0.76301  0.43211  0.11370  1.0000
  C   C1003     1.0  0.90919  0.40261  0.14387  1.0000
  C   C1004     1.0  0.72295  0.43343  0.20688  1.0000
  H   H1602     1.0  0.76789  0.40111  0.11382  1.0000
  C   C1005     1.0  0.68766  0.29773  0.17534  1.0000
  N   N100      1.0  0.91383  0.39764  0.12424  1.0000
  S   S407      1.0  0.67854  0.23229  0.16017  1.0000
  H   H1603     1.0  0.92583  0.47354  0.11302  1.0000
  C   C1006     1.0  0.81969  0.48663  0.15927  1.0000
  H   H1604     1.0  0.73025  0.48743  0.19372  1.0000
  H   H1605     1.0  0.91470  0.41295  0.09423  1.0000
  H   H1606     1.0  0.90155  0.37154  0.13451  1.0000
  H   H1607     1.0  0.91877  0.41227  0.14483  1.0000
  C   C1007     1.0  0.66855  0.04965  0.22783  1.0000
  H   H1608     1.0  0.90192  0.48923  0.17813  1.0000
  H   H1609     1.0  0.67293  0.17147  0.23189  1.0000
  H   H1610     1.0  0.67945  0.04104  0.21806  1.0000
  H   H1611     1.0  0.68188  0.49188  0.21830  1.0000
  H   H1612     1.0  0.81073  0.44173  0.20726  1.0000
  H   H1613     1.0  0.86553  0.47791  0.17289  1.0000
  H   H1614     1.0  0.79120  0.46096  0.21570  1.0000
  H   H1615     1.0  0.78791  0.43249  0.19203  1.0000
  N   N101      1.0  0.78373  0.43242  0.22277  1.0000
  C   C1008     1.0  0.77589  0.43574  0.20475  1.0000
  H   H1616     1.0  0.84950  0.48523  0.19447  1.0000
  H   H1617     1.0  0.76518  0.42622  0.20662  1.0000
  H   H1618     1.0  0.66684  0.09820  0.15783  1.0000
  H   H1619     1.0  0.88493  0.42396  0.22920  1.0000
  H   H1620     1.0  0.81029  0.47809  0.98789  1.0000
  H   H1621     1.0  0.77352  0.48713  0.18696  1.0000
  C   C1009     1.0  0.80343  0.49048  0.17442  1.0000
  H   H1622     1.0  0.78329  0.40153  0.22960  1.0000
  C   C1010     1.0  0.79359  0.41143  0.22781  1.0000
  H   H1623     1.0  0.80443  0.44277  0.23284  1.0000
  H   H1624     1.0  0.91606  0.42931  0.23391  1.0000
  H   H1625     1.0  0.74310  0.38163  0.23441  1.0000
  Fe  Fe203     1.0  0.93829  0.45522  0.23513  1.0000
  H   H1626     1.0  0.80933  0.31027  0.47856  1.0000
  C   C1011     1.0  0.89450  0.34731  0.30032  1.0000
  H   H1627     1.0  0.75076  0.08112  0.40162  1.0000
  C   C1012     1.0  0.76995  0.36312  0.24276  1.0000
  H   H1628     1.0  0.72816  0.05956  0.40271  1.0000
  C   C1013     1.0  0.90169  0.21243  0.47270  1.0000
  C   C1014     1.0  0.78845  0.10626  0.42767  1.0000
  H   H1629     1.0  0.89880  0.10895  0.44696  1.0000
  C   C1015     1.0  0.88431  0.13972  0.46518  1.0000
  C   C1016     1.0  0.89376  0.23220  0.46506  1.0000
  H   H1630     1.0  0.79140  0.17900  0.44466  1.0000
  H   H1631     1.0  0.77990  0.13788  0.42471  1.0000
  Fe  Fe204     1.0  0.82108  0.38054  0.31758  1.0000
  S   S408      1.0  0.78985  0.39551  0.32849  1.0000
  S   S409      1.0  0.83894  0.35356  0.33396  1.0000
  Fe  Fe205     1.0  0.82685  0.41370  0.28230  1.0000
  S   S410      1.0  0.79639  0.43150  0.29031  1.0000
  S   S411      1.0  0.84714  0.42362  0.25441  1.0000
  Fe  Fe206     1.0  0.80202  0.42292  0.32092  1.0000
  S   S412      1.0  0.79362  0.44453  0.34109  1.0000
  Fe  Fe207     1.0  0.78721  0.40249  0.29691  1.0000
  S   S413      1.0  0.75991  0.40276  0.28664  1.0000
  S   S414      1.0  0.83342  0.40751  0.31230  1.0000
  S   S415      1.0  0.81752  0.38519  0.28651  1.0000
  Fe  Fe208     1.0  0.69804  0.14274  0.42609  1.0000
  S   S416      1.0  0.72556  0.15196  0.40700  1.0000
  H   H1632     1.0  0.90238  0.47997  0.27209  1.0000
  Fe  Fe209     1.0  0.71292  0.13701  0.46412  1.0000
  S   S417      1.0  0.74132  0.14570  0.44832  1.0000
  Fe  Fe210     1.0  0.72292  0.16972  0.42979  1.0000
  S   S418      1.0  0.72765  0.20087  0.42330  1.0000
  Fe  Fe211     1.0  0.74165  0.12735  0.42727  1.0000
  H   H1633     1.0  0.85115  0.48629  0.27348  1.0000
  S   S419      1.0  0.69396  0.16255  0.44743  1.0000
  S   S420      1.0  0.71456  0.11657  0.44451  1.0000
  Fe  Fe212     1.0  0.80009  0.28349  0.42654  1.0000
  S   S421      1.0  0.82293  0.25523  0.42495  1.0000
  S   S422      1.0  0.78637  0.30288  0.40139  1.0000
  C   C1017     1.0  0.76795  0.14933  0.48408  1.0000
  H   H1634     1.0  0.75813  0.08346  0.37551  1.0000
  Fe  Fe213     1.0  0.83516  0.26487  0.44612  1.0000
  C   C1018     1.0  0.71231  0.09802  0.40214  1.0000
  Fe  Fe214     1.0  0.80279  0.24238  0.45175  1.0000
  C   C1019     1.0  0.67434  0.05521  0.24255  1.0000
  S   S423      1.0  0.81409  0.29433  0.44532  1.0000
  S   S424      1.0  0.77897  0.26977  0.45178  1.0000
  C   C1020     1.0  0.90412  0.43466  0.26320  1.0000
  C   C1021     1.0  0.74688  0.08973  0.38738  1.0000
  H   H1635     1.0  0.88806  0.43907  0.29195  1.0000
  C   C1022     1.0  0.86819  0.22194  0.45581  1.0000
  C   C1023     1.0  0.80550  0.12598  0.43812  1.0000
  H   H1636     1.0  0.85529  0.22551  0.44923  1.0000
  H   H1637     1.0  0.68111  0.15498  0.29213  1.0000
  H   H1638     1.0  0.79484  0.42047  0.38611  1.0000
  H   H1639     1.0  0.71517  0.08979  0.41682  1.0000
  C   C1024     1.0  0.88748  0.43542  0.27841  1.0000
  S   S425      1.0  0.84196  0.01220  0.47762  1.0000
  C   C1025     1.0  0.74665  0.20349  0.43339  1.0000
  C   C1026     1.0  0.76319  0.18818  0.43574  1.0000
  C   C1027     1.0  0.77854  0.19083  0.44314  1.0000
  C   C1028     1.0  0.77763  0.20894  0.44785  1.0000
  C   C1029     1.0  0.76119  0.22434  0.44531  1.0000
  C   C1030     1.0  0.74567  0.22155  0.43824  1.0000
  H   H1640     1.0  0.76449  0.17451  0.43124  1.0000
  H   H1641     1.0  0.87445  0.13913  0.45562  1.0000
  H   H1642     1.0  0.76035  0.23837  0.44886  1.0000
  H   H1643     1.0  0.73282  0.23336  0.43653  1.0000
  C   C1031     1.0  0.82439  0.33939  0.35269  1.0000
  C   C1032     1.0  0.83296  0.32568  0.36755  1.0000
  C   C1033     1.0  0.82137  0.31453  0.38277  1.0000
  C   C1034     1.0  0.80123  0.31695  0.38300  1.0000
  C   C1035     1.0  0.79268  0.33070  0.36818  1.0000
  C   C1036     1.0  0.80421  0.34195  0.35310  1.0000
  H   H1644     1.0  0.84856  0.32367  0.36733  1.0000
  H   H1645     1.0  0.82805  0.30391  0.39418  1.0000
  H   H1646     1.0  0.77712  0.33257  0.36827  1.0000
  H   H1647     1.0  0.79754  0.35225  0.34154  1.0000
  H   H1648     1.0  0.70983  0.06787  0.38755  1.0000
  C   C1037     1.0  0.80293  0.48347  0.29112  1.0000
  C   C1038     1.0  0.74989  0.39026  0.25820  1.0000
  C   C1039     1.0  0.76333  0.38677  0.27057  1.0000
  C   C1040     1.0  0.77974  0.37106  0.26941  1.0000
  H   H1649     1.0  0.84091  0.46899  0.29372  1.0000
  H   H1650     1.0  0.87128  0.37493  0.32012  1.0000
  H   H1651     1.0  0.73698  0.40220  0.25926  1.0000
  H   H1652     1.0  0.78973  0.36779  0.27939  1.0000
  S   S426      1.0  0.79706  0.21172  0.45720  1.0000
  H   H1653     1.0  0.74987  0.07993  0.46152  1.0000
  C   C1041     1.0  0.84716  0.45746  0.33403  1.0000
  C   C1042     1.0  0.83221  0.44725  0.33626  1.0000
  C   C1043     1.0  0.81237  0.45711  0.33909  1.0000
  H   H1654     1.0  0.91637  0.45549  0.29917  1.0000
  C   C1044     1.0  0.75334  0.37863  0.24411  1.0000
  H   H1655     1.0  0.86249  0.44971  0.33195  1.0000
  H   H1656     1.0  0.83607  0.43166  0.33629  1.0000
  N   N102      1.0  0.88865  0.36869  0.29246  1.0000
  H   H1657     1.0  0.81206  0.47468  0.25520  1.0000
  H   H1658     1.0  0.90922  0.36761  0.26501  1.0000
  H   H1659     1.0  0.80667  0.14019  0.43988  1.0000
  S   S427      1.0  0.81720  0.24947  0.47271  1.0000
  C   C1045     1.0  0.67208  0.13323  0.35393  1.0000
  H   H1660     1.0  0.80093  0.35829  0.39180  1.0000
  C   C1046     1.0  0.86981  0.43218  0.27578  1.0000
  C   C1047     1.0  0.86886  0.42805  0.25803  1.0000
  H   H1661     1.0  0.75586  0.42858  0.24161  1.0000
  C   C1048     1.0  0.68612  0.14184  0.35746  1.0000
  C   C1049     1.0  0.68622  0.14331  0.37658  1.0000
  C   C1050     1.0  0.83761  0.48411  0.28471  1.0000
  C   C1051     1.0  0.87641  0.20216  0.46297  1.0000
  H   H1662     1.0  0.70684  0.10108  0.36589  1.0000
  H   H1663     1.0  0.69715  0.14715  0.34537  1.0000
  H   H1664     1.0  0.69716  0.14985  0.37917  1.0000
  H   H1665     1.0  0.90069  0.24378  0.46556  1.0000
  C   C1052     1.0  0.90043  0.49156  0.28066  1.0000
  H   H1666     1.0  0.85685  0.43339  0.28730  1.0000
  H   H1667     1.0  0.72353  0.11638  0.36493  1.0000
  H   H1668     1.0  0.80141  0.07512  0.43138  1.0000
  C   C1053     1.0  0.90318  0.43023  0.24563  1.0000
  H   H1669     1.0  0.89816  0.33856  0.28860  1.0000
  C   C1054     1.0  0.79019  0.12464  0.42977  1.0000
  H   H1670     1.0  0.82730  0.45728  0.27090  1.0000
  H   H1671     1.0  0.88242  0.00551  0.47771  1.0000
  N   N103      1.0  0.72660  0.08928  0.38624  1.0000
  H   H1672     1.0  0.78970  0.48505  0.28485  1.0000
  H   H1673     1.0  0.87504  0.14753  0.47703  1.0000
  C   C1055     1.0  0.81898  0.10889  0.44452  1.0000
  H   H1674     1.0  0.69679  0.09804  0.40178  1.0000
  H   H1675     1.0  0.79217  0.48490  0.34217  1.0000
  H   H1676     1.0  0.77369  0.09278  0.47136  1.0000
  H   H1677     1.0  0.67258  0.17344  0.31882  1.0000
  C   C1056     1.0  0.84239  0.47764  0.33440  1.0000
  C   C1057     1.0  0.93554  0.48472  0.27979  1.0000
  H   H1678     1.0  0.86977  0.19058  0.46194  1.0000
  C   C1058     1.0  0.67214  0.13631  0.39230  1.0000
  C   C1059     1.0  0.90763  0.11036  0.45714  1.0000
  H   H1679     1.0  0.91579  0.09527  0.46279  1.0000
  C   C1060     1.0  0.78299  0.35921  0.25559  1.0000
  C   C1061     1.0  0.88555  0.42713  0.24297  1.0000
  C   C1062     1.0  0.74134  0.07807  0.47690  1.0000
  H   H1680     1.0  0.86597  0.38836  0.27791  1.0000
  C   C1063     1.0  0.90511  0.37548  0.27745  1.0000
  S   S428      1.0  0.76825  0.10404  0.41915  1.0000
  H   H1681     1.0  0.89960  0.46880  0.31674  1.0000
  C   C1064     1.0  0.80249  0.08934  0.43324  1.0000
  H   H1682     1.0  0.85861  0.36699  0.29433  1.0000
  C   C1065     1.0  0.88021  0.10765  0.48439  1.0000
  H   H1683     1.0  0.89658  0.37713  0.31569  1.0000
  H   H1684     1.0  0.88228  0.34186  0.31173  1.0000
  S   S429      1.0  0.67240  0.13677  0.41669  1.0000
  C   C1066     1.0  0.87698  0.23696  0.45665  1.0000
  H   H1685     1.0  0.78821  0.36980  0.41228  1.0000
  S   S430      1.0  0.66850  0.07203  0.27412  1.0000
  S   S431      1.0  0.92568  0.44058  0.26543  1.0000
  H   H1686     1.0  0.91856  0.37309  0.28365  1.0000
  C   C1067     1.0  0.88373  0.37962  0.30857  1.0000
  H   H1687     1.0  0.89489  0.14913  0.45632  1.0000
  H   H1688     1.0  0.79571  0.34707  0.25474  1.0000
  H   H1689     1.0  0.87442  0.36475  0.27099  1.0000
  C   C1068     1.0  0.72220  0.10078  0.36710  1.0000
  H   H1690     1.0  0.81457  0.36706  0.40446  1.0000
  C   C1069     1.0  0.67721  0.16920  0.28184  1.0000
  C   C1070     1.0  0.87117  0.37236  0.28353  1.0000
  H   H1691     1.0  0.90103  0.39155  0.27124  1.0000
  H   H1692     1.0  0.67083  0.20839  0.27052  1.0000
  H   H1693     1.0  0.73249  0.09447  0.35473  1.0000
  H   H1694     1.0  0.83807  0.47436  0.25096  1.0000
  H   H1695     1.0  0.77491  0.14447  0.46992  1.0000
  H   H1696     1.0  0.81119  0.40335  0.40101  1.0000
  Fe  Fe215     1.0  0.79509  0.27811  0.47050  1.0000
  H   H1697     1.0  0.80559  0.46836  0.30024  1.0000
  H   H1698     1.0  0.79887  0.40815  0.24186  1.0000
  N   N104      1.0  0.77131  0.25718  0.38728  1.0000
  C   C1071     1.0  0.77648  0.27085  0.36856  1.0000
  C   C1072     1.0  0.76538  0.24034  0.38355  1.0000
  C   C1073     1.0  0.75472  0.26783  0.40023  1.0000
  C   C1074     1.0  0.78870  0.24978  0.39678  1.0000
  H   H1699     1.0  0.78104  0.28371  0.37097  1.0000
  H   H1700     1.0  0.76370  0.27683  0.36099  1.0000
  H   H1701     1.0  0.78901  0.26340  0.35841  1.0000
  H   H1702     1.0  0.77750  0.23200  0.37375  1.0000
  H   H1703     1.0  0.76153  0.22969  0.39739  1.0000
  H   H1704     1.0  0.75216  0.24531  0.37659  1.0000
  H   H1705     1.0  0.75073  0.25820  0.41465  1.0000
  H   H1706     1.0  0.74126  0.27334  0.39365  1.0000
  H   H1707     1.0  0.75856  0.28081  0.40312  1.0000
  H   H1708     1.0  0.78543  0.23950  0.41101  1.0000
  H   H1709     1.0  0.79353  0.26213  0.39977  1.0000
  H   H1710     1.0  0.80152  0.24170  0.38743  1.0000
  N   N105      1.0  0.79750  0.38990  0.38578  1.0000
  C   C1075     1.0  0.81395  0.38991  0.36861  1.0000
  C   C1076     1.0  0.77855  0.39369  0.37924  1.0000
  C   C1077     1.0  0.79708  0.40563  0.39597  1.0000
  C   C1078     1.0  0.80042  0.37045  0.39919  1.0000
  H   H1711     1.0  0.82853  0.38675  0.37299  1.0000
  H   H1712     1.0  0.81236  0.40444  0.35830  1.0000
  H   H1713     1.0  0.81447  0.37849  0.36038  1.0000
  H   H1714     1.0  0.77606  0.40811  0.36877  1.0000
  H   H1715     1.0  0.77821  0.38193  0.37176  1.0000
  H   H1716     1.0  0.76576  0.39416  0.39178  1.0000
  H   H1717     1.0  0.78484  0.40611  0.40903  1.0000
  C   C1079     1.0  0.82465  0.47273  0.26255  1.0000
  S   S432      1.0  0.86689  0.26169  0.44744  1.0000
  N   N106      1.0  0.82037  0.48692  0.27564  1.0000
  C   C1080     1.0  0.72499  0.06864  0.38838  1.0000
  H   H1718     1.0  0.90766  0.34392  0.30720  1.0000
  H   H1719     1.0  0.82846  0.07748  0.44602  1.0000
  C   C1081     1.0  0.81768  0.09065  0.44170  1.0000
  S   S433      1.0  0.83637  0.11004  0.45749  1.0000
  H   H1720     1.0  0.74851  0.10510  0.38614  1.0000
  H   H1721     1.0  0.87924  0.39581  0.30318  1.0000
  H   H1722     1.0  0.71307  0.11363  0.40097  1.0000
  C   C1082     1.0  0.66903  0.18733  0.30793  1.0000
  C   C1083     1.0  0.82254  0.48758  0.33729  1.0000
  C   C1084     1.0  0.89312  0.19738  0.47148  1.0000
  H   H1723     1.0  0.73560  0.06156  0.37663  1.0000
  S   S434      1.0  0.67357  0.13047  0.32985  1.0000
  S   S435      1.0  0.90330  0.17249  0.48002  1.0000
  H   H1724     1.0  0.92571  0.46367  0.31603  1.0000
  H   H1725     1.0  0.67215  0.16576  0.26992  1.0000
  H   H1726     1.0  0.80643  0.15116  0.47239  1.0000
  C   C1085     1.0  0.91433  0.46781  0.30677  1.0000
  N   N107      1.0  0.89481  0.11975  0.47331  1.0000
  C   C1086     1.0  0.76725  0.43747  0.23901  1.0000
  C   C1087     1.0  0.80753  0.47723  0.33990  1.0000
  H   H1727     1.0  0.68271  0.19335  0.30230  1.0000
  H   H1728     1.0  0.77242  0.43470  0.25304  1.0000
  H   H1729     1.0  0.69102  0.17481  0.27518  1.0000
  H   H1730     1.0  0.91880  0.11915  0.44843  1.0000
  H   H1731     1.0  0.93842  0.47269  0.27155  1.0000
  H   H1732     1.0  0.77916  0.05683  0.47516  1.0000
  H   H1733     1.0  0.94747  0.48136  0.28830  1.0000
  H   H1734     1.0  0.75903  0.23381  0.48335  1.0000
  H   H1735     1.0  0.72958  0.09165  0.47813  1.0000
  H   H1736     1.0  0.68967  0.05081  0.24409  1.0000
  N   N108      1.0  0.91576  0.48661  0.29269  1.0000
  H   H1737     1.0  0.91483  0.20878  0.47889  1.0000
  H   H1738     1.0  0.75962  0.45324  0.23589  1.0000
  H   H1739     1.0  0.91841  0.13014  0.47855  1.0000
  H   H1740     1.0  0.87058  0.10640  0.47492  1.0000
  H   H1741     1.0  0.73383  0.06559  0.47951  1.0000
  H   H1742     1.0  0.71648  0.43678  0.23695  1.0000
  H   H1743     1.0  0.76102  0.16534  0.48057  1.0000
  S   S436      1.0  0.86172  0.48988  0.33071  1.0000
  S   S437      1.0  0.86396  0.05510  0.48092  1.0000
  Fe  Fe216     1.0  0.83966  0.08218  0.48022  1.0000
  S   S438      1.0  0.71942  0.47617  0.23602  1.0000
  H   H1744     1.0  0.79271  0.17246  0.48248  1.0000
  H   H1745     1.0  0.70981  0.16775  0.48224  1.0000
  Fe  Fe217     1.0  0.85718  0.42605  0.67306  1.0000
  S   S439      1.0  0.88238  0.39982  0.67343  1.0000
  S   S440      1.0  0.85284  0.44752  0.64499  1.0000
  Fe  Fe218     1.0  0.85962  0.38282  0.69189  1.0000
  S   S441      1.0  0.86164  0.35255  0.68646  1.0000
  H   H1746     1.0  0.91426  0.44991  0.69526  1.0000
  S   S442      1.0  0.83400  0.40871  0.68922  1.0000
  H   H1747     1.0  0.70633  0.15449  0.63308  1.0000
  C   C1088     1.0  0.87262  0.23947  0.51593  1.0000
  H   H1748     1.0  0.95272  0.18090  0.58819  1.0000
  H   H1749     1.0  0.69347  0.17088  0.57098  1.0000
  H   H1750     1.0  0.82041  0.00110  0.51755  1.0000
  H   H1751     1.0  0.77942  0.11575  0.50916  1.0000
  H   H1752     1.0  0.66464  0.20386  0.65355  1.0000
  H   H1753     1.0  0.75577  0.14136  0.49134  1.0000
  H   H1754     1.0  0.77434  0.08929  0.49681  1.0000
  S   S443      1.0  0.77942  0.28784  0.49878  1.0000
  Fe  Fe219     1.0  0.76013  0.20280  0.57504  1.0000
  S   S444      1.0  0.75956  0.18201  0.60400  1.0000
  S   S445      1.0  0.77933  0.22464  0.56071  1.0000
  Fe  Fe220     1.0  0.73232  0.18494  0.56236  1.0000
  S   S446      1.0  0.72908  0.16200  0.59008  1.0000
  S   S447      1.0  0.71879  0.19301  0.53567  1.0000
  Fe  Fe221     1.0  0.72691  0.18680  0.60515  1.0000
  S   S448      1.0  0.70335  0.19629  0.63028  1.0000
  Fe  Fe222     1.0  0.76192  0.15910  0.58674  1.0000
  S   S449      1.0  0.78655  0.13256  0.58875  1.0000
  S   S450      1.0  0.72737  0.20993  0.57766  1.0000
  S   S451      1.0  0.76514  0.17952  0.55769  1.0000
  Fe  Fe223     1.0  0.83447  0.32475  0.59994  1.0000
  S   S452      1.0  0.84412  0.29262  0.61286  1.0000
  S   S453      1.0  0.82364  0.34947  0.61700  1.0000
  Fe  Fe224     1.0  0.83424  0.31632  0.56046  1.0000
  S   S454      1.0  0.84288  0.28370  0.57046  1.0000
  S   S455      1.0  0.83206  0.32804  0.52897  1.0000
  Fe  Fe225     1.0  0.82154  0.28837  0.59836  1.0000
  S   S456      1.0  0.79993  0.26948  0.61575  1.0000
  Fe  Fe226     1.0  0.86455  0.29101  0.58375  1.0000
  S   S457      1.0  0.89501  0.27239  0.57719  1.0000
  S   S458      1.0  0.81064  0.32048  0.58700  1.0000
  S   S459      1.0  0.85727  0.32365  0.57205  1.0000
  Fe  Fe227     1.0  0.91771  0.16749  0.50576  1.0000
  C   C1089     1.0  0.89816  0.00318  0.50804  1.0000
  S   S460      1.0  0.83805  0.08503  0.51088  1.0000
  C   C1090     1.0  0.77276  0.15255  0.51512  1.0000
  S   S461      1.0  0.90029  0.15359  0.53381  1.0000
  C   C1091     1.0  0.95259  0.19043  0.57338  1.0000
  S   S462      1.0  0.93662  0.15337  0.55466  1.0000
  Fe  Fe228     1.0  0.92929  0.13387  0.53838  1.0000
  S   S463      1.0  0.93319  0.10096  0.54855  1.0000
  Fe  Fe229     1.0  0.90893  0.17446  0.54710  1.0000
  S   S464      1.0  0.88510  0.19011  0.56835  1.0000
  S   S465      1.0  0.92402  0.19013  0.51859  1.0000
  C   C1092     1.0  0.89977  0.06348  0.53083  1.0000
  C   C1093     1.0  0.91818  0.05549  0.53621  1.0000
  C   C1094     1.0  0.92809  0.06725  0.54149  1.0000
  C   C1095     1.0  0.91993  0.08730  0.54119  1.0000
  C   C1096     1.0  0.90144  0.09552  0.53578  1.0000
  C   C1097     1.0  0.89124  0.08353  0.53078  1.0000
  C   C1098     1.0  0.67862  0.14837  0.65093  1.0000
  H   H1755     1.0  0.94222  0.06075  0.54585  1.0000
  H   H1756     1.0  0.89479  0.11089  0.53604  1.0000
  H   H1757     1.0  0.83253  0.48678  0.70860  1.0000
  C   C1099     1.0  0.89207  0.24980  0.57431  1.0000
  C   C1100     1.0  0.87659  0.24129  0.58636  1.0000
  C   C1101     1.0  0.87450  0.22301  0.58432  1.0000
  C   C1102     1.0  0.88786  0.21319  0.57022  1.0000
  C   C1103     1.0  0.90307  0.22193  0.55783  1.0000
  C   C1104     1.0  0.90509  0.24030  0.55981  1.0000
  H   H1758     1.0  0.86642  0.24864  0.59754  1.0000
  H   H1759     1.0  0.86268  0.21637  0.59393  1.0000
  H   H1760     1.0  0.91327  0.21457  0.54676  1.0000
  H   H1761     1.0  0.91664  0.24726  0.55011  1.0000
  C   C1105     1.0  0.78603  0.11702  0.57362  1.0000
  C   C1106     1.0  0.80271  0.10235  0.56899  1.0000
  C   C1107     1.0  0.80246  0.08977  0.55695  1.0000
  C   C1108     1.0  0.78538  0.09159  0.54991  1.0000
  C   C1109     1.0  0.76869  0.10632  0.55445  1.0000
  C   C1110     1.0  0.76911  0.11922  0.56609  1.0000
  H   H1762     1.0  0.81580  0.10062  0.57480  1.0000
  H   H1763     1.0  0.75547  0.10776  0.54896  1.0000
  H   H1764     1.0  0.75620  0.13052  0.56963  1.0000
  C   C1111     1.0  0.78377  0.23762  0.57628  1.0000
  C   C1112     1.0  0.77759  0.23278  0.59661  1.0000
  C   C1113     1.0  0.78242  0.24271  0.60875  1.0000
  C   C1114     1.0  0.79324  0.25758  0.60055  1.0000
  C   C1115     1.0  0.79888  0.26271  0.58020  1.0000
  C   C1116     1.0  0.79432  0.25263  0.56810  1.0000
  H   H1765     1.0  0.76923  0.22135  0.60300  1.0000
  H   H1766     1.0  0.77787  0.23882  0.62449  1.0000
  H   H1767     1.0  0.80651  0.27463  0.57373  1.0000
  H   H1768     1.0  0.79878  0.25664  0.55237  1.0000
  C   C1117     1.0  0.74224  0.07347  0.51112  1.0000
  C   C1118     1.0  0.93976  0.45800  0.64836  1.0000
  C   C1119     1.0  0.90708  0.12125  0.48649  1.0000
  H   H1769     1.0  0.86029  0.28660  0.52366  1.0000
  C   C1120     1.0  0.79360  0.29946  0.50727  1.0000
  C   C1121     1.0  0.79106  0.29879  0.52738  1.0000
  C   C1122     1.0  0.80282  0.30757  0.53424  1.0000
  C   C1123     1.0  0.81678  0.31740  0.52093  1.0000
  C   C1124     1.0  0.81894  0.31846  0.50085  1.0000
  C   C1125     1.0  0.80756  0.30930  0.49406  1.0000
  H   H1770     1.0  0.78016  0.29134  0.53767  1.0000
  H   H1771     1.0  0.80094  0.30691  0.54977  1.0000
  H   H1772     1.0  0.88408  0.27335  0.51326  1.0000
  H   H1773     1.0  0.84900  0.26041  0.49046  1.0000
  H   H1774     1.0  0.89809  0.00126  0.52391  1.0000
  C   C1126     1.0  0.69204  0.16059  0.64118  1.0000
  Fe  Fe230     1.0  0.84043  0.41434  0.71613  1.0000
  C   C1127     1.0  0.76913  0.05607  0.48981  1.0000
  H   H1775     1.0  0.98108  0.19279  0.59041  1.0000
  C   C1128     1.0  0.71397  0.14447  0.50741  1.0000
  C   C1129     1.0  0.71773  0.13964  0.52648  1.0000
  C   C1130     1.0  0.71976  0.15435  0.53520  1.0000
  C   C1131     1.0  0.71774  0.17392  0.52492  1.0000
  C   C1132     1.0  0.71430  0.17863  0.50580  1.0000
  C   C1133     1.0  0.71260  0.16392  0.49699  1.0000
  H   H1776     1.0  0.71901  0.12454  0.53450  1.0000
  H   H1777     1.0  0.72262  0.15057  0.54992  1.0000
  H   H1778     1.0  0.71277  0.19374  0.49777  1.0000
  H   H1779     1.0  0.68957  0.20616  0.71461  1.0000
  N   N109      1.0  0.75133  0.24156  0.51168  1.0000
  H   H1780     1.0  0.72477  0.23530  0.53162  1.0000
  H   H1781     1.0  0.81534  0.07832  0.55359  1.0000
  S   S466      1.0  0.78501  0.07589  0.53490  1.0000
  S   S467      1.0  0.83771  0.03715  0.52349  1.0000
  H   H1782     1.0  0.79862  0.11833  0.48761  1.0000
  H   H1783     1.0  0.87040  0.11422  0.49683  1.0000
  H   H1784     1.0  0.80215  0.12080  0.51070  1.0000
  C   C1134     1.0  0.84067  0.25781  0.52941  1.0000
  N   N110      1.0  0.66612  0.18217  0.58926  1.0000
  N   N111      1.0  0.75430  0.07473  0.49106  1.0000
  Fe  Fe231     1.0  0.81573  0.06593  0.51873  1.0000
  C   C1135     1.0  0.84992  0.35076  0.66834  1.0000
  C   C1136     1.0  0.85734  0.33488  0.65850  1.0000
  C   C1137     1.0  0.84909  0.33393  0.64300  1.0000
  C   C1138     1.0  0.83315  0.34871  0.63755  1.0000
  C   C1139     1.0  0.82508  0.36397  0.64807  1.0000
  C   C1140     1.0  0.83359  0.36517  0.66325  1.0000
  H   H1785     1.0  0.86991  0.32361  0.66250  1.0000
  H   H1786     1.0  0.85538  0.32206  0.63499  1.0000
  H   H1787     1.0  0.81250  0.37523  0.64412  1.0000
  H   H1788     1.0  0.82753  0.37722  0.67102  1.0000
  C   C1141     1.0  0.84626  0.47215  0.64801  1.0000
  C   C1142     1.0  0.85416  0.47803  0.66102  1.0000
  H   H1789     1.0  0.91500  0.10644  0.49318  1.0000
  H   H1790     1.0  0.82962  0.32619  0.49053  1.0000
  H   H1791     1.0  0.76089  0.14449  0.52342  1.0000
  C   C1143     1.0  0.83312  0.48607  0.63725  1.0000
  H   H1792     1.0  0.86453  0.46744  0.66909  1.0000
  H   H1793     1.0  0.73514  0.22986  0.49729  1.0000
  C   C1144     1.0  0.66683  0.16375  0.60426  1.0000
  H   H1794     1.0  0.82702  0.48161  0.62710  1.0000
  H   H1795     1.0  0.94727  0.21251  0.60048  1.0000
  N   N112      1.0  0.85991  0.25941  0.51614  1.0000
  H   H1796     1.0  0.93379  0.46319  0.68551  1.0000
  C   C1145     1.0  0.92200  0.46904  0.73047  1.0000
  H   H1797     1.0  0.76579  0.16858  0.51233  1.0000
  H   H1798     1.0  0.91339  0.00422  0.49982  1.0000
  N   N113      1.0  0.96067  0.20809  0.57118  1.0000
  H   H1799     1.0  0.92336  0.42615  0.66334  1.0000
  H   H1800     1.0  0.78271  0.30899  0.62504  1.0000
  H   H1801     1.0  0.84255  0.25076  0.54469  1.0000
  H   H1802     1.0  0.77963  0.22475  0.51785  1.0000
  H   H1803     1.0  0.91532  0.45637  0.73338  1.0000
  C   C1146     1.0  0.66863  0.18832  0.65299  1.0000
  C   C1147     1.0  0.67771  0.17764  0.57019  1.0000
  N   N114      1.0  0.67653  0.18358  0.71127  1.0000
  H   H1804     1.0  0.72633  0.26394  0.50380  1.0000
  H   H1805     1.0  0.78064  0.24549  0.49776  1.0000
  H   H1806     1.0  0.88829  0.01774  0.50381  1.0000
  H   H1807     1.0  0.83272  0.24900  0.52452  1.0000
  H   H1808     1.0  0.94681  0.46971  0.64956  1.0000
  H   H1809     1.0  0.87670  0.08964  0.52735  1.0000
  H   H1810     1.0  0.86067  0.00041  0.51111  1.0000
  H   H1811     1.0  0.88742  0.24020  0.50639  1.0000
  N   N115      1.0  0.82836  0.17976  0.57742  1.0000
  C   C1148     1.0  0.82033  0.17350  0.56344  1.0000
  C   C1149     1.0  0.81297  0.18213  0.59521  1.0000
  C   C1150     1.0  0.83435  0.19880  0.56830  1.0000
  C   C1151     1.0  0.84572  0.16461  0.58277  1.0000
  H   H1812     1.0  0.83160  0.17139  0.54991  1.0000
  H   H1813     1.0  0.80728  0.18470  0.55904  1.0000
  H   H1814     1.0  0.81541  0.15928  0.56998  1.0000
  H   H1815     1.0  0.81850  0.18679  0.60615  1.0000
  H   H1816     1.0  0.79978  0.19359  0.59163  1.0000
  H   H1817     1.0  0.80788  0.16810  0.60234  1.0000
  H   H1818     1.0  0.84024  0.20405  0.57858  1.0000
  H   H1819     1.0  0.82166  0.21052  0.56389  1.0000
  H   H1820     1.0  0.84623  0.19745  0.55504  1.0000
  H   H1821     1.0  0.85223  0.16894  0.59322  1.0000
  H   H1822     1.0  0.85769  0.16252  0.56969  1.0000
  H   H1823     1.0  0.84174  0.15004  0.58969  1.0000
  N   N116      1.0  0.78466  0.31221  0.65339  1.0000
  C   C1152     1.0  0.80557  0.30162  0.65160  1.0000
  C   C1153     1.0  0.77176  0.29821  0.66404  1.0000
  C   C1154     1.0  0.74058  0.23453  0.53149  1.0000
  C   C1155     1.0  0.78133  0.32828  0.66415  1.0000
  H   H1824     1.0  0.80963  0.29511  0.66618  1.0000
  H   H1825     1.0  0.81571  0.31172  0.64348  1.0000
  H   H1826     1.0  0.80858  0.28933  0.64361  1.0000
  H   H1827     1.0  0.75584  0.30565  0.66566  1.0000
  H   H1828     1.0  0.77407  0.28599  0.65608  1.0000
  H   H1829     1.0  0.77488  0.29137  0.67896  1.0000
  C   C1156     1.0  0.99698  0.15738  0.55014  1.0000
  C   C1157     1.0  0.68703  0.18057  0.64223  1.0000
  C   C1158     1.0  0.86966  0.27152  0.52308  1.0000
  H   H1830     1.0  0.76572  0.33666  0.66576  1.0000
  H   H1831     1.0  0.79097  0.33900  0.65631  1.0000
  H   H1832     1.0  0.78476  0.32244  0.67907  1.0000
  N   N117      1.0  0.86503  0.40028  0.61661  1.0000
  C   C1159     1.0  0.87348  0.37993  0.62590  1.0000
  C   C1160     1.0  0.84589  0.40776  0.62886  1.0000
  C   C1161     1.0  0.86189  0.40026  0.59705  1.0000
  C   C1162     1.0  0.87885  0.41319  0.61463  1.0000
  H   H1833     1.0  0.88836  0.37415  0.61758  1.0000
  H   H1834     1.0  0.86396  0.36962  0.62661  1.0000
  H   H1835     1.0  0.87496  0.37906  0.64119  1.0000
  H   H1836     1.0  0.84745  0.40688  0.64410  1.0000
  H   H1837     1.0  0.83972  0.42351  0.62294  1.0000
  H   H1838     1.0  0.83469  0.39921  0.62965  1.0000
  H   H1839     1.0  0.85542  0.41537  0.58964  1.0000
  H   H1840     1.0  0.85154  0.39055  0.59811  1.0000
  H   H1841     1.0  0.87601  0.39469  0.58738  1.0000
  H   H1842     1.0  0.88152  0.41336  0.62919  1.0000
  H   H1843     1.0  0.87276  0.42876  0.60804  1.0000
  H   H1844     1.0  0.89340  0.40819  0.60531  1.0000
  S   S468      1.0  0.89568  0.48724  0.70663  1.0000
  H   H1845     1.0  0.93833  0.43729  0.68523  1.0000
  H   H1846     1.0  0.89374  0.47474  0.67323  1.0000
  H   H1847     1.0  0.66969  0.15931  0.70340  1.0000
  S   S469      1.0  0.91446  0.40736  0.70615  1.0000
  H   H1848     1.0  0.90828  0.44406  0.64745  1.0000
  Fe  Fe232     1.0  0.83977  0.03789  0.49170  1.0000
  C   C1163     1.0  0.68235  0.16647  0.70147  1.0000
  C   C1164     1.0  0.78646  0.47709  0.71919  1.0000
  H   H1849     1.0  0.95309  0.23430  0.58340  1.0000
  H   H1850     1.0  0.87260  0.26468  0.53807  1.0000
  H   H1851     1.0  0.74117  0.24335  0.54203  1.0000
  H   H1852     1.0  0.87503  0.23164  0.53088  1.0000
  S   S470      1.0  0.86143  0.43393  0.69969  1.0000
  H   H1853     1.0  0.75158  0.07099  0.52219  1.0000
  H   H1854     1.0  0.82109  0.47750  0.69420  1.0000
  H   H1855     1.0  0.75730  0.21334  0.50349  1.0000
  C   C1165     1.0  0.69351  0.19314  0.70746  1.0000
  H   H1856     1.0  0.76441  0.32868  0.63440  1.0000
  C   C1166     1.0  0.96148  0.21940  0.55085  1.0000
  Fe  Fe233     1.0  0.86032  0.05635  0.51255  1.0000
  H   H1857     1.0  0.97167  0.21061  0.54014  1.0000
  H   H1858     1.0  0.86597  0.23018  0.51015  1.0000
  Fe  Fe234     1.0  0.95146  0.16744  0.52501  1.0000
  H   H1859     1.0  0.98725  0.21492  0.57428  1.0000
  H   H1860     1.0  0.98488  0.14972  0.55462  1.0000
  H   H1861     1.0  0.68770  0.17096  0.68543  1.0000
  S   S471      1.0  0.88840  0.04746  0.52439  1.0000
  H   H1862     1.0  0.70635  0.18274  0.71314  1.0000
  C   C1167     1.0  0.91292  0.44079  0.66179  1.0000
  S   S472      1.0  0.94643  0.14618  0.50923  1.0000
  C   C1168     1.0  0.75063  0.22913  0.49834  1.0000
  H   H1863     1.0  0.68250  0.13287  0.65017  1.0000
  H   H1864     1.0  0.89957  0.43917  0.67346  1.0000
  C   C1169     1.0  0.92737  0.45153  0.68322  1.0000
  H   H1865     1.0  0.96126  0.18130  0.56242  1.0000
  H   H1866     1.0  0.68231  0.15655  0.60599  1.0000
  H   H1867     1.0  0.83082  0.27263  0.52991  1.0000
  H   H1868     1.0  0.67470  0.21006  0.58395  1.0000
  C   C1170     1.0  0.90741  0.47550  0.66180  1.0000
  N   N118      1.0  0.80127  0.48831  0.71891  1.0000
  C   C1171     1.0  0.76445  0.09137  0.48641  1.0000
  H   H1869     1.0  0.91347  0.48765  0.66363  1.0000
  C   C1172     1.0  0.94782  0.22053  0.58502  1.0000
  N   N119      1.0  0.92187  0.45646  0.66378  1.0000
  H   H1870     1.0  0.75361  0.10563  0.48725  1.0000
  H   H1871     1.0  0.93234  0.22507  0.58262  1.0000
  H   H1872     1.0  0.94329  0.41767  0.72120  1.0000
  H   H1873     1.0  0.73427  0.06116  0.51509  1.0000
  H   H1874     1.0  0.92480  0.04001  0.53648  1.0000
  H   H1875     1.0  0.74725  0.21891  0.53712  1.0000
  Fe  Fe235     1.0  0.88473  0.40611  0.70173  1.0000
  H   H1876     1.0  0.78340  0.15009  0.52494  1.0000
  H   H1877     1.0  0.90290  0.47978  0.64732  1.0000
  H   H1878     1.0  0.69855  0.19841  0.69146  1.0000
  C   C1173     1.0  0.85662  0.26892  0.49612  1.0000
  S   S473      1.0  0.86411  0.38686  0.72046  1.0000
  H   H1879     1.0  0.89795  0.12865  0.49867  1.0000
  C   C1174     1.0  0.77214  0.24018  0.51243  1.0000
  C   C1175     1.0  0.82100  0.47857  0.70940  1.0000
  C   C1176     1.0  0.91582  0.48595  0.71693  1.0000
  H   H1880     1.0  0.88760  0.09237  0.49051  1.0000
  H   H1881     1.0  0.78951  0.33141  0.62522  1.0000
  H   H1882     1.0  0.74249  0.27201  0.51437  1.0000
  H   H1883     1.0  0.94673  0.22344  0.54674  1.0000
  H   H1884     1.0  0.95096  0.44384  0.64950  1.0000
  H   H1885     1.0  0.93617  0.46170  0.63349  1.0000
  H   H1886     1.0  0.73098  0.08735  0.51267  1.0000
  H   H1887     1.0  0.84735  0.28409  0.49563  1.0000
  H   H1888     1.0  0.69011  0.18966  0.59692  1.0000
  C   C1177     1.0  0.78010  0.32070  0.63366  1.0000
  S   S474      1.0  0.98001  0.17853  0.51820  1.0000
  N   N120      1.0  0.78259  0.14560  0.49666  1.0000
  H   H1889     1.0  0.75000  0.26826  0.48976  1.0000
  H   H1890     1.0  0.77325  0.24940  0.52237  1.0000
  C   C1178     1.0  0.74205  0.26233  0.50458  1.0000
  C   C1179     1.0  0.67037  0.17684  0.73261  1.0000
  C   C1180     1.0  0.98086  0.20195  0.57544  1.0000
  H   H1891     1.0  0.93703  0.19455  0.57116  1.0000
  C   C1181     1.0  0.79107  0.12419  0.50117  1.0000
  H   H1892     1.0  0.77139  0.48402  0.72632  1.0000
  H   H1893     1.0  0.78580  0.47630  0.70411  1.0000
  H   H1894     1.0  0.96676  0.23324  0.54876  1.0000
  S   S475      1.0  0.71132  0.12615  0.49654  1.0000
  C   C1182     1.0  0.67458  0.19612  0.59508  1.0000
  H   H1895     1.0  0.76198  0.04332  0.49238  1.0000
  H   H1896     1.0  0.82564  0.46329  0.71760  1.0000
  H   H1897     1.0  0.79008  0.46163  0.72747  1.0000
  H   H1898     1.0  0.69446  0.15502  0.70736  1.0000
  H   H1899     1.0  0.77847  0.05265  0.50104  1.0000
  C   C1183     1.0  0.91577  0.40774  0.73019  1.0000
  H   H1900     1.0  0.67184  0.16711  0.56528  1.0000
  H   H1901     1.0  0.80986  0.15385  0.49538  1.0000
  H   H1902     1.0  0.99106  0.19303  0.56494  1.0000
  H   H1903     1.0  0.80348  0.40164  0.72345  1.0000
  C   C1184     1.0  0.93193  0.41333  0.73345  1.0000
  S   S476      1.0  0.81590  0.06503  0.48794  1.0000
  C   C1185     1.0  0.79858  0.15624  0.48629  1.0000
  H   H1904     1.0  0.67761  0.19120  0.55849  1.0000
  H   H1905     1.0  0.66613  0.20004  0.60934  1.0000
  H   H1906     1.0  0.87082  0.27012  0.48557  1.0000
  H   H1907     1.0  0.66839  0.41370  0.80675  1.0000
  H   H1908     1.0  0.88234  0.48502  0.74991  1.0000
  H   H1909     1.0  0.79691  0.37363  0.80235  1.0000
  H   H1910     1.0  0.72368  0.44476  0.86905  1.0000
  H   H1911     1.0  0.89586  0.42437  0.82473  1.0000
  Fe  Fe236     1.0  0.73585  0.33380  0.83677  1.0000
  S   S477      1.0  0.71722  0.36203  0.82357  1.0000
  S   S478      1.0  0.72821  0.30383  0.84206  1.0000
  Fe  Fe237     1.0  0.76730  0.35458  0.83952  1.0000
  S   S479      1.0  0.75127  0.38425  0.82614  1.0000
  S   S480      1.0  0.79681  0.35493  0.84553  1.0000
  Fe  Fe238     1.0  0.72419  0.37511  0.84565  1.0000
  H   H1912     1.0  0.73839  0.45817  0.87566  1.0000
  Fe  Fe239     1.0  0.74593  0.36861  0.80528  1.0000
  S   S481      1.0  0.74878  0.38008  0.77288  1.0000
  S   S482      1.0  0.74042  0.34631  0.86078  1.0000
  S   S483      1.0  0.76436  0.33951  0.81677  1.0000
  C   C1186     1.0  0.68303  0.41618  0.80710  1.0000
  C   C1187     1.0  0.77832  0.48776  0.87773  1.0000
  S   S484      1.0  0.81819  0.42578  0.74104  1.0000
  H   H1913     1.0  0.88866  0.42742  0.84967  1.0000
  Fe  Fe240     1.0  0.94181  0.42383  0.79569  1.0000
  S   S485      1.0  0.92718  0.45547  0.79622  1.0000
  S   S486      1.0  0.92153  0.40574  0.79271  1.0000
  S   S487      1.0  0.96767  0.46048  0.80626  1.0000
  Fe  Fe241     1.0  0.93975  0.45084  0.82293  1.0000
  S   S488      1.0  0.92118  0.46317  0.84909  1.0000
  Fe  Fe242     1.0  0.95658  0.46156  0.77946  1.0000
  C   C1188     1.0  0.80167  0.48881  0.73923  1.0000
  Fe  Fe243     1.0  0.84756  0.40976  0.92239  1.0000
  S   S489      1.0  0.83719  0.43602  0.93693  1.0000
  S   S490      1.0  0.87951  0.39861  0.90988  1.0000
  Fe  Fe244     1.0  0.80652  0.40252  0.92765  1.0000
  S   S491      1.0  0.79258  0.42808  0.94273  1.0000
  S   S492      1.0  0.78565  0.38564  0.92368  1.0000
  Fe  Fe245     1.0  0.81316  0.44430  0.91953  1.0000
  S   S493      1.0  0.80086  0.47566  0.90613  1.0000
  Fe  Fe246     1.0  0.81758  0.41760  0.95904  1.0000
  S   S494      1.0  0.82516  0.41959  0.90299  1.0000
  S   S495      1.0  0.82992  0.39039  0.94598  1.0000
  H   H1914     1.0  0.70503  0.38758  0.78793  1.0000
  H   H1915     1.0  0.69553  0.43915  0.75976  1.0000
  C   C1189     1.0  0.69008  0.46015  0.82989  1.0000
  C   C1190     1.0  0.90994  0.44549  0.86684  1.0000
  C   C1191     1.0  0.92012  0.42583  0.87074  1.0000
  C   C1192     1.0  0.91084  0.41167  0.88444  1.0000
  C   C1193     1.0  0.89123  0.41700  0.89407  1.0000
  C   C1194     1.0  0.88102  0.43668  0.89031  1.0000
  C   C1195     1.0  0.89048  0.45097  0.87689  1.0000
  H   H1916     1.0  0.93522  0.42148  0.86341  1.0000
  H   H1917     1.0  0.91880  0.39648  0.88741  1.0000
  H   H1918     1.0  0.86583  0.44088  0.89762  1.0000
  H   H1919     1.0  0.88254  0.46616  0.87395  1.0000
  C   C1196     1.0  0.78584  0.47321  0.84894  1.0000
  H   H1920     1.0  0.93999  0.45613  0.75228  1.0000
  H   H1921     1.0  0.68149  0.25756  0.89366  1.0000
  C   C1197     1.0  0.79573  0.47589  0.88343  1.0000
  C   C1198     1.0  0.80855  0.46335  0.87143  1.0000
  C   C1199     1.0  0.80357  0.46192  0.85428  1.0000
  S   S496      1.0  0.70039  0.39592  0.86192  1.0000
  H   H1922     1.0  0.69911  0.33194  0.82113  1.0000
  H   H1923     1.0  0.82241  0.45487  0.87530  1.0000
  H   H1924     1.0  0.81334  0.45187  0.84526  1.0000
  S   S497      1.0  0.77908  0.46951  0.82855  1.0000
  C   C1200     1.0  0.79468  0.36219  0.86777  1.0000
  C   C1201     1.0  0.80885  0.37143  0.87004  1.0000
  C   C1202     1.0  0.80658  0.37830  0.88736  1.0000
  C   C1203     1.0  0.79021  0.37577  0.90249  1.0000
  C   C1204     1.0  0.77641  0.36605  0.90037  1.0000
  C   C1205     1.0  0.77862  0.35931  0.88308  1.0000
  H   H1925     1.0  0.82137  0.37357  0.85829  1.0000
  H   H1926     1.0  0.81735  0.38566  0.88897  1.0000
  H   H1927     1.0  0.76381  0.36391  0.91208  1.0000
  H   H1928     1.0  0.76784  0.35188  0.88164  1.0000
  C   C1206     1.0  0.87133  0.40052  0.82747  1.0000
  Fe  Fe247     1.0  0.97978  0.42848  0.80511  1.0000
  H   H1929     1.0  0.76114  0.39747  0.87231  1.0000
  C   C1207     1.0  0.70990  0.28183  0.82884  1.0000
  C   C1208     1.0  0.70928  0.44854  0.82800  1.0000
  C   C1209     1.0  0.71256  0.42872  0.83767  1.0000
  S   S498      1.0  0.74231  0.48770  0.79429  1.0000
  C   C1210     1.0  0.71125  0.30092  0.82935  1.0000
  H   H1930     1.0  0.72149  0.45464  0.81854  1.0000
  H   H1931     1.0  0.72728  0.41972  0.83569  1.0000
  C   C1211     1.0  0.67435  0.45225  0.84223  1.0000
  C   C1212     1.0  0.68207  0.29534  0.81223  1.0000
  C   C1213     1.0  0.90302  0.40159  0.76529  1.0000
  C   C1214     1.0  0.91923  0.40711  0.76854  1.0000
  C   C1215     1.0  0.93354  0.41324  0.75255  1.0000
  H   H1932     1.0  0.82214  0.48181  0.93385  1.0000
  H   H1933     1.0  0.94753  0.45893  0.87829  1.0000
  H   H1934     1.0  0.89193  0.39680  0.77757  1.0000
  H   H1935     1.0  0.83141  0.47160  0.95613  1.0000
  C   C1216     1.0  0.82172  0.48459  0.94855  1.0000
  C   C1217     1.0  0.79778  0.41460  0.74884  1.0000
  H   H1936     1.0  0.70790  0.40264  0.76398  1.0000
  H   H1937     1.0  0.68028  0.42944  0.81360  1.0000
  C   C1218     1.0  0.76690  0.39421  0.76334  1.0000
  C   C1219     1.0  0.77023  0.40613  0.77439  1.0000
  C   C1220     1.0  0.78546  0.41658  0.76700  1.0000
  H   H1938     1.0  0.68709  0.28705  0.86794  1.0000
  H   H1939     1.0  0.68256  0.16603  0.73903  1.0000
  H   H1940     1.0  0.76103  0.40747  0.78856  1.0000
  H   H1941     1.0  0.78812  0.42566  0.77568  1.0000
  H   H1942     1.0  0.98705  0.43514  0.84203  1.0000
  S   S499      1.0  0.95239  0.41864  0.82383  1.0000
  N   N121      1.0  0.82235  0.35629  0.78658  1.0000
  C   C1221     1.0  0.67073  0.29206  0.86938  1.0000
  C   C1222     1.0  0.82273  0.33827  0.80210  1.0000
  C   C1223     1.0  0.81117  0.35529  0.77222  1.0000
  C   C1224     1.0  0.81268  0.37383  0.79543  1.0000
  N   N122      1.0  0.97803  0.45334  0.86368  1.0000
  H   H1943     1.0  0.83073  0.33866  0.81342  1.0000
  H   H1944     1.0  0.97773  0.42277  0.86616  1.0000
  S   S500      1.0  0.95838  0.48685  0.75397  1.0000
  H   H1945     1.0  0.97699  0.48456  0.85465  1.0000
  H   H1946     1.0  0.96380  0.46761  0.88810  1.0000
  H   H1947     1.0  0.79539  0.35501  0.77904  1.0000
  H   H1948     1.0  0.81760  0.34187  0.76573  1.0000
  H   H1949     1.0  0.81131  0.36830  0.75996  1.0000
  H   H1950     1.0  0.89734  0.47509  0.76818  1.0000
  C   C1225     1.0  0.94386  0.48560  0.73819  1.0000
  H   H1951     1.0  0.67368  0.32709  0.80584  1.0000
  H   H1952     1.0  0.85050  0.34497  0.76946  1.0000
  H   H1953     1.0  0.72001  0.26916  0.83526  1.0000
  H   H1954     1.0  0.82007  0.37449  0.80711  1.0000
  H   H1955     1.0  0.75056  0.40718  0.90494  1.0000
  H   H1956     1.0  0.77769  0.47205  0.97161  1.0000
  H   H1957     1.0  0.67146  0.43568  0.77340  1.0000
  H   H1958     1.0  0.69005  0.40335  0.81734  1.0000
  H   H1959     1.0  0.84302  0.37141  0.76487  1.0000
  S   S501      1.0  0.97061  0.43017  0.77683  1.0000
  H   H1960     1.0  0.66559  0.42661  0.86219  1.0000
  N   N123      1.0  0.69567  0.41879  0.78735  1.0000
  C   C1226     1.0  0.77334  0.48640  0.86046  1.0000
  C   C1227     1.0  0.96270  0.45548  0.88156  1.0000
  H   H1961     1.0  0.96069  0.47578  0.84500  1.0000
  C   C1228     1.0  0.97553  0.47197  0.84903  1.0000
  H   H1962     1.0  0.68421  0.25751  0.85828  1.0000
  C   C1229     1.0  0.79413  0.40311  0.73754  1.0000
  C   C1230     1.0  0.84282  0.35783  0.77655  1.0000
  C   C1231     1.0  0.71527  0.42095  0.78879  1.0000
  H   H1963     1.0  0.68364  0.39931  0.77726  1.0000
  H   H1964     1.0  0.90787  0.38880  0.83605  1.0000
  C   C1232     1.0  0.90116  0.40215  0.74614  1.0000
  C   C1233     1.0  0.77848  0.39315  0.74468  1.0000
  H   H1965     1.0  0.73661  0.40873  0.86831  1.0000
  C   C1234     1.0  0.69831  0.31721  0.82077  1.0000
  H   H1966     1.0  0.85847  0.41207  0.82319  1.0000
  H   H1967     1.0  0.85172  0.35848  0.78698  1.0000
  C   C1235     1.0  0.69809  0.40137  0.77874  1.0000
  H   H1968     1.0  0.69462  0.26430  0.81966  1.0000
  H   H1969     1.0  0.80596  0.47363  0.74787  1.0000
  H   H1970     1.0  0.74155  0.43272  0.90637  1.0000
  H   H1971     1.0  0.84819  0.41621  0.85783  1.0000
  S   S502      1.0  0.68557  0.48423  0.81626  1.0000
  N   N124      1.0  0.80127  0.48792  0.96001  1.0000
  H   H1972     1.0  0.86690  0.38600  0.83154  1.0000
  H   H1973     1.0  0.83000  0.32470  0.79603  1.0000
  H   H1974     1.0  0.72549  0.42213  0.77426  1.0000
  H   H1975     1.0  0.85711  0.39023  0.86626  1.0000
  C   C1236     1.0  0.68633  0.43674  0.77477  1.0000
  C   C1237     1.0  0.69548  0.27905  0.82014  1.0000
  C   C1238     1.0  0.88353  0.42401  0.83775  1.0000
  H   H1976     1.0  0.87123  0.47574  0.77463  1.0000
  H   H1977     1.0  0.80750  0.33669  0.80991  1.0000
  H   H1978     1.0  0.71410  0.43437  0.79449  1.0000
  C   C1239     1.0  0.75161  0.41163  0.86659  1.0000
  C   C1240     1.0  0.93588  0.46893  0.74125  1.0000
  H   H1979     1.0  0.75771  0.41571  0.85066  1.0000
  H   H1980     1.0  0.79190  0.46795  0.94812  1.0000
  N   N125      1.0  0.87787  0.40459  0.84374  1.0000
  C   C1241     1.0  0.79286  0.47043  0.96248  1.0000
  H   H1981     1.0  0.94613  0.41744  0.75491  1.0000
  C   C1242     1.0  0.67779  0.43268  0.85259  1.0000
  H   H1982     1.0  0.72657  0.41962  0.89973  1.0000
  H   H1983     1.0  0.86591  0.40802  0.87351  1.0000
  H   H1984     1.0  0.77890  0.43295  0.85989  1.0000
  C   C1243     1.0  0.74197  0.42147  0.89794  1.0000
  H   H1985     1.0  0.88339  0.40013  0.81424  1.0000
  H   H1986     1.0  0.77584  0.38403  0.73604  1.0000
  H   H1987     1.0  0.84278  0.43681  0.97647  1.0000
  N   N126      1.0  0.75099  0.42718  0.87706  1.0000
  H   H1988     1.0  0.90020  0.39150  0.86118  1.0000
  H   H1989     1.0  0.88868  0.39780  0.74376  1.0000
  H   H1990     1.0  0.98687  0.47089  0.83534  1.0000
  H   H1991     1.0  0.81302  0.38773  0.78430  1.0000
  C   C1244     1.0  0.69681  0.42076  0.84998  1.0000
  C   C1245     1.0  0.68384  0.31442  0.81218  1.0000
  C   C1246     1.0  0.77133  0.42953  0.87547  1.0000
  H   H1992     1.0  0.89154  0.37415  0.85304  1.0000
  C   C1247     1.0  0.89513  0.38907  0.84871  1.0000
  H   H1993     1.0  0.72244  0.40800  0.79876  1.0000
  H   H1994     1.0  0.74563  0.45071  0.85246  1.0000
  H   H1995     1.0  0.68436  0.45015  0.78089  1.0000
  H   H1996     1.0  0.80210  0.45679  0.96965  1.0000
  C   C1248     1.0  0.97588  0.43712  0.85560  1.0000
  H   H1997     1.0  0.87088  0.43614  0.83401  1.0000
  C   C1249     1.0  0.86153  0.40477  0.86104  1.0000
  H   H1998     1.0  0.77139  0.44169  0.88255  1.0000
  H   H1999     1.0  0.78047  0.41587  0.88273  1.0000
  H   H2000     1.0  0.96400  0.44164  0.89288  1.0000
  C   C1250     1.0  0.73910  0.44603  0.86821  1.0000
  H   H2001     1.0  0.96107  0.44014  0.85180  1.0000
  C   C1251     1.0  0.66782  0.26248  0.86099  1.0000
  H   H2002     1.0  0.66556  0.30222  0.87993  1.0000
  C   C1252     1.0  0.88261  0.48407  0.76554  1.0000
  H   H2003     1.0  0.66795  0.30084  0.85480  1.0000
  H   H2004     1.0  0.66578  0.18942  0.74045  1.0000
  C   C1253     1.0  0.80144  0.49118  0.97948  1.0000
  C   C1254     1.0  0.66529  0.26353  0.89476  1.0000
  Fe  Fe248     1.0  0.75285  0.49192  0.81955  1.0000
  S   S503      1.0  0.91250  0.52438  0.20502  1.0000
  Fe  Fe249     1.0  0.77490  0.51285  0.21030  1.0000
  C   C1255     1.0  0.68446  0.60127  0.20861  1.0000
  C   C1256     1.0  0.68538  0.57125  0.23325  1.0000
  H   H2005     1.0  0.69587  0.53990  0.21200  1.0000
  C   C1257     1.0  0.86943  0.51081  0.19785  1.0000
  S   S504      1.0  0.71923  0.57360  0.20491  1.0000
  H   H2006     1.0  0.85397  0.51312  0.20632  1.0000
  Fe  Fe250     1.0  0.73629  0.54353  0.21705  1.0000
  S   S505      1.0  0.74586  0.51850  0.20082  1.0000
  S   S506      1.0  0.76645  0.54001  0.22343  1.0000
  C   C1258     1.0  0.69466  0.58242  0.21629  1.0000
  H   H2007     1.0  0.86199  0.53192  0.16306  1.0000
  H   H2008     1.0  0.69155  0.61007  0.19552  1.0000
  C   C1259     1.0  0.85800  0.51718  0.16751  1.0000
  N   N127      1.0  0.87105  0.50306  0.18016  1.0000
  H   H2009     1.0  0.87989  0.54725  0.22786  1.0000
  H   H2010     1.0  0.89718  0.51443  0.16546  1.0000
  S   S507      1.0  0.80500  0.50262  0.19231  1.0000
  N   N128      1.0  0.67336  0.52278  0.21945  1.0000
  Fe  Fe251     1.0  0.93284  0.49456  0.20641  1.0000
  C   C1260     1.0  0.89177  0.50041  0.16930  1.0000
  H   H2011     1.0  0.84218  0.51924  0.17514  1.0000
  H   H2012     1.0  0.87413  0.52522  0.19400  1.0000
  C   C1261     1.0  0.91095  0.53407  0.22564  1.0000
  H   H2013     1.0  0.87913  0.50056  0.20769  1.0000
  H   H2014     1.0  0.78623  0.49393  0.98846  1.0000
  Fe  Fe252     1.0  0.73667  0.49986  0.23016  1.0000
  C   C1262     1.0  0.67025  0.50519  0.21433  1.0000
  H   H2015     1.0  0.70494  0.51398  0.21221  1.0000
  H   H2016     1.0  0.89340  0.49528  0.15547  1.0000
  H   H2017     1.0  0.94182  0.52328  0.22690  1.0000
  H   H2018     1.0  0.73483  0.59449  0.22690  1.0000
  H   H2019     1.0  0.67083  0.50736  0.19833  1.0000
  H   H2020     1.0  0.69383  0.52968  0.19244  1.0000
  C   C1263     1.0  0.69284  0.52678  0.20856  1.0000
  H   H2021     1.0  0.85904  0.51191  0.15389  1.0000
  C   C1264     1.0  0.89280  0.54470  0.23419  1.0000
  C   C1265     1.0  0.92767  0.53107  0.23373  1.0000
  C   C1266     1.0  0.66510  0.60888  0.21786  1.0000
  C   C1267     1.0  0.90779  0.66890  0.47631  1.0000
  Fe  Fe253     1.0  0.87689  0.55451  0.30098  1.0000
  S   S508      1.0  0.87634  0.53753  0.33181  1.0000
  S   S509      1.0  0.90607  0.55702  0.28083  1.0000
  Fe  Fe254     1.0  0.83251  0.56211  0.30554  1.0000
  S   S510      1.0  0.82811  0.54499  0.33641  1.0000
  S   S511      1.0  0.80780  0.57863  0.28981  1.0000
  Fe  Fe255     1.0  0.84990  0.56109  0.33986  1.0000
  S   S512      1.0  0.84205  0.57467  0.36668  1.0000
  S   S513      1.0  0.85258  0.57958  0.30955  1.0000
  S   S514      1.0  0.68402  0.82455  0.46879  1.0000
  H   H2022     1.0  0.93703  0.67289  0.35277  1.0000
  H   H2023     1.0  0.91023  0.79499  0.45542  1.0000
  H   H2024     1.0  0.81877  0.50316  0.33765  1.0000
  S   S515      1.0  0.82141  0.90601  0.47656  1.0000
  S   S516      1.0  0.87139  0.86499  0.46949  1.0000
  N   N129      1.0  0.88603  0.80630  0.44006  1.0000
  H   H2025     1.0  0.69220  0.60159  0.26810  1.0000
  C   C1268     1.0  0.92624  0.53879  0.25029  1.0000
  S   S517      1.0  0.77146  0.89172  0.47215  1.0000
  H   H2026     1.0  0.89046  0.80347  0.41006  1.0000
  H   H2027     1.0  0.77021  0.62711  0.34138  1.0000
  Fe  Fe256     1.0  0.89624  0.67073  0.41847  1.0000
  S   S518      1.0  0.86813  0.68190  0.43810  1.0000
  S   S519      1.0  0.92627  0.67169  0.42236  1.0000
  Fe  Fe257     1.0  0.87553  0.65542  0.39490  1.0000
  S   S520      1.0  0.84515  0.66515  0.41241  1.0000
  S   S521      1.0  0.88468  0.64163  0.36806  1.0000
  Fe  Fe258     1.0  0.85551  0.69267  0.41084  1.0000
  S   S522      1.0  0.83756  0.72345  0.40512  1.0000
  Fe  Fe259     1.0  0.86000  0.65360  0.43840  1.0000
  S   S523      1.0  0.84809  0.63623  0.46744  1.0000
  S   S524      1.0  0.88451  0.68424  0.39098  1.0000
  S   S525      1.0  0.88938  0.64125  0.42119  1.0000
  Fe  Fe260     1.0  0.72734  0.79490  0.41403  1.0000
  S   S526      1.0  0.71346  0.78004  0.44367  1.0000
  S   S527      1.0  0.72221  0.79285  0.38487  1.0000
  Fe  Fe261     1.0  0.75332  0.81195  0.43108  1.0000
  S   S528      1.0  0.74134  0.79861  0.46204  1.0000
  S   S529      1.0  0.77962  0.82589  0.42444  1.0000
  Fe  Fe262     1.0  0.74405  0.77179  0.45011  1.0000
  S   S530      1.0  0.75752  0.74120  0.46429  1.0000
  Fe  Fe263     1.0  0.71207  0.80840  0.45254  1.0000
  H   H2028     1.0  0.92272  0.67238  0.47042  1.0000
  S   S531      1.0  0.75808  0.78441  0.41971  1.0000
  S   S532      1.0  0.72378  0.82408  0.42235  1.0000
  H   H2029     1.0  0.78072  0.70997  0.39123  1.0000
  S   S533      1.0  0.75951  0.52001  0.28110  1.0000
  H   H2030     1.0  0.75347  0.58706  0.24160  1.0000
  H   H2031     1.0  0.78786  0.59209  0.34182  1.0000
  C   C1269     1.0  0.67435  0.76770  0.39781  1.0000
  C   C1270     1.0  0.92707  0.69440  0.42707  1.0000
  C   C1271     1.0  0.72218  0.57113  0.26085  1.0000
  H   H2032     1.0  0.83332  0.61163  0.33280  1.0000
  C   C1272     1.0  0.94287  0.71344  0.43993  1.0000
  C   C1273     1.0  0.94232  0.69555  0.43555  1.0000
  H   H2033     1.0  0.95464  0.71418  0.44651  1.0000
  H   H2034     1.0  0.95366  0.68254  0.43887  1.0000
  C   C1274     1.0  0.81730  0.72746  0.42427  1.0000
  C   C1275     1.0  0.80830  0.71195  0.43547  1.0000
  C   C1276     1.0  0.79046  0.71590  0.44892  1.0000
  C   C1277     1.0  0.78181  0.73534  0.45124  1.0000
  C   C1278     1.0  0.79166  0.75052  0.44116  1.0000
  C   C1279     1.0  0.80915  0.74668  0.42739  1.0000
  H   H2035     1.0  0.81455  0.69706  0.43305  1.0000
  H   H2036     1.0  0.78296  0.70406  0.45678  1.0000
  H   H2037     1.0  0.78558  0.76539  0.44364  1.0000
  H   H2038     1.0  0.81622  0.75867  0.41896  1.0000
  C   C1280     1.0  0.80085  0.59621  0.34442  1.0000
  C   C1281     1.0  0.90313  0.83480  0.47599  1.0000
  H   H2039     1.0  0.93924  0.53670  0.25635  1.0000
  H   H2040     1.0  0.92386  0.49927  0.31299  1.0000
  H   H2041     1.0  0.67858  0.82241  0.38522  1.0000
  H   H2042     1.0  0.71810  0.59147  0.28878  1.0000
  H   H2043     1.0  0.88669  0.80296  0.47049  1.0000
  C   C1282     1.0  0.91273  0.50246  0.30359  1.0000
  H   H2044     1.0  0.94219  0.61621  0.39101  1.0000
  C   C1283     1.0  0.89405  0.79565  0.45780  1.0000
  H   H2045     1.0  0.81427  0.58596  0.33837  1.0000
  H   H2046     1.0  0.90672  0.70800  0.46906  1.0000
  Fe  Fe264     1.0  0.85485  0.52308  0.32545  1.0000
  C   C1284     1.0  0.91248  0.71128  0.42277  1.0000
  H   H2047     1.0  0.68694  0.84157  0.40457  1.0000
  C   C1285     1.0  0.70416  0.60500  0.25530  1.0000
  H   H2048     1.0  0.88203  0.71483  0.48251  1.0000
  H   H2049     1.0  0.91833  0.63025  0.38696  1.0000
  Fe  Fe265     1.0  0.94581  0.75041  0.46409  1.0000
  H   H2050     1.0  0.91229  0.79462  0.42064  1.0000
  C   C1286     1.0  0.81949  0.62145  0.33893  1.0000
  H   H2051     1.0  0.66604  0.75954  0.41051  1.0000
  C   C1287     1.0  0.88959  0.82660  0.43463  1.0000
  C   C1288     1.0  0.92846  0.73040  0.43535  1.0000
  H   H2052     1.0  0.77491  0.52271  0.31317  1.0000
  H   H2053     1.0  0.82883  0.51020  0.25200  1.0000
  C   C1289     1.0  0.67121  0.84435  0.41239  1.0000
  H   H2054     1.0  0.73034  0.61059  0.27352  1.0000
  S   S534      1.0  0.95462  0.77641  0.46911  1.0000
  Fe  Fe266     1.0  0.98119  0.75437  0.47875  1.0000
  H   H2055     1.0  0.91081  0.84161  0.46200  1.0000
  C   C1290     1.0  0.66603  0.57874  0.24239  1.0000
  H   H2056     1.0  0.86124  0.79212  0.44817  1.0000
  C   C1291     1.0  0.77249  0.53676  0.28337  1.0000
  C   C1292     1.0  0.91333  0.72930  0.42667  1.0000
  H   H2057     1.0  0.95094  0.64239  0.33888  1.0000
  C   C1293     1.0  0.78383  0.63015  0.34385  1.0000
  H   H2058     1.0  0.80359  0.63545  0.30648  1.0000
  C   C1294     1.0  0.77403  0.87399  0.45812  1.0000
  C   C1295     1.0  0.75728  0.87159  0.45287  1.0000
  C   C1296     1.0  0.75883  0.85674  0.44263  1.0000
  C   C1297     1.0  0.77723  0.84454  0.43726  1.0000
  C   C1298     1.0  0.79406  0.84733  0.44201  1.0000
  C   C1299     1.0  0.79244  0.86191  0.45257  1.0000
  H   H2059     1.0  0.74309  0.88119  0.45681  1.0000
  H   H2060     1.0  0.74588  0.85489  0.43863  1.0000
  H   H2061     1.0  0.80836  0.83810  0.43761  1.0000
  H   H2062     1.0  0.80550  0.86403  0.45609  1.0000
  H   H2063     1.0  0.85796  0.81513  0.43091  1.0000
  H   H2064     1.0  0.80011  0.59329  0.36052  1.0000
  H   H2065     1.0  0.91388  0.51681  0.29348  1.0000
  C   C1300     1.0  0.85453  0.59276  0.36709  1.0000
  C   C1301     1.0  0.86896  0.59880  0.35118  1.0000
  C   C1302     1.0  0.87812  0.61383  0.35162  1.0000
  C   C1303     1.0  0.87292  0.62285  0.36796  1.0000
  C   C1304     1.0  0.85851  0.61680  0.38386  1.0000
  C   C1305     1.0  0.84932  0.60181  0.38340  1.0000
  H   H2066     1.0  0.87309  0.59190  0.33856  1.0000
  H   H2067     1.0  0.88927  0.61845  0.33928  1.0000
  H   H2068     1.0  0.85445  0.62362  0.39654  1.0000
  H   H2069     1.0  0.83817  0.59718  0.39575  1.0000
  C   C1306     1.0  0.78989  0.54700  0.30289  1.0000
  C   C1307     1.0  0.79429  0.56247  0.28741  1.0000
  C   C1308     1.0  0.78778  0.56510  0.26993  1.0000
  C   C1309     1.0  0.77722  0.55201  0.26778  1.0000
  H   H2070     1.0  0.79477  0.54499  0.31648  1.0000
  H   H2071     1.0  0.88173  0.83514  0.44632  1.0000
  S   S535      1.0  0.72472  0.52526  0.24571  1.0000
  H   H2072     1.0  0.90214  0.74235  0.42308  1.0000
  H   H2073     1.0  0.81914  0.61916  0.35491  1.0000
  H   H2074     1.0  0.79895  0.49410  0.30111  1.0000
  C   C1310     1.0  0.83817  0.65246  0.48373  1.0000
  C   C1311     1.0  0.69591  0.78857  0.36506  1.0000
  C   C1312     1.0  0.70191  0.78405  0.38312  1.0000
  C   C1313     1.0  0.69129  0.77328  0.39943  1.0000
  H   H2075     1.0  0.88625  0.70359  0.46171  1.0000
  H   H2076     1.0  0.89213  0.78009  0.46201  1.0000
  H   H2077     1.0  0.70410  0.79681  0.35234  1.0000
  H   H2078     1.0  0.69602  0.76931  0.41331  1.0000
  H   H2079     1.0  0.74376  0.58539  0.27756  1.0000
  H   H2080     1.0  0.78406  0.64595  0.33731  1.0000
  H   H2081     1.0  0.66915  0.84859  0.25712  1.0000
  S   S536      1.0  0.97359  0.72910  0.47072  1.0000
  S   S537      1.0  0.92890  0.75301  0.44061  1.0000
  S   S538      1.0  0.85709  0.53860  0.29411  1.0000
  N   N130      1.0  0.94259  0.64325  0.36959  1.0000
  H   H2082     1.0  0.81774  0.70106  0.48387  1.0000
  H   H2083     1.0  0.81645  0.61026  0.30697  1.0000
  H   H2084     1.0  0.90561  0.82657  0.43224  1.0000
  C   C1314     1.0  0.86450  0.80718  0.44401  1.0000
  H   H2085     1.0  0.92923  0.63290  0.35147  1.0000
  H   H2086     1.0  0.82853  0.67720  0.46166  1.0000
  H   H2087     1.0  0.84384  0.97630  0.46579  1.0000
  C   C1315     1.0  0.67220  0.80962  0.42444  1.0000
  C   C1316     1.0  0.89597  0.79581  0.42377  1.0000
  H   H2088     1.0  0.92837  0.67081  0.37876  1.0000
  C   C1317     1.0  0.93329  0.63150  0.38788  1.0000
  H   H2089     1.0  0.90067  0.71053  0.41619  1.0000
  H   H2090     1.0  0.89784  0.50444  0.31323  1.0000
  H   H2091     1.0  0.83489  0.49475  0.29456  1.0000
  H   H2092     1.0  0.78252  0.62817  0.35996  1.0000
  Fe  Fe267     1.0  0.75535  0.52013  0.25114  1.0000
  C   C1318     1.0  0.77865  0.53442  0.30100  1.0000
  N   N131      1.0  0.72355  0.59196  0.25790  1.0000
  H   H2093     1.0  0.80281  0.51016  0.25783  1.0000
  H   H2094     1.0  0.69966  0.60334  0.24215  1.0000
  H   H2095     1.0  0.95321  0.61854  0.35503  1.0000
  H   H2096     1.0  0.86816  0.67792  0.48281  1.0000
  H   H2097     1.0  0.67120  0.84623  0.42734  1.0000
  H   H2098     1.0  0.79134  0.57697  0.25789  1.0000
  H   H2099     1.0  0.92794  0.81079  0.48101  1.0000
  H   H2100     1.0  0.88532  0.49303  0.28997  1.0000
  H   H2101     1.0  0.82082  0.63695  0.33224  1.0000
  H   H2102     1.0  0.90100  0.50583  0.27006  1.0000
  H   H2103     1.0  0.77275  0.55379  0.25410  1.0000
  H   H2104     1.0  0.88421  0.83494  0.42101  1.0000
  H   H2105     1.0  0.79012  0.61622  0.31062  1.0000
  H   H2106     1.0  0.90180  0.66844  0.46355  1.0000
  C   C1319     1.0  0.89126  0.55193  0.25107  1.0000
  N   N132      1.0  0.77087  0.74159  0.38685  1.0000
  C   C1320     1.0  0.75938  0.74278  0.37193  1.0000
  C   C1321     1.0  0.75755  0.74090  0.40627  1.0000
  C   C1322     1.0  0.77976  0.75914  0.38189  1.0000
  C   C1323     1.0  0.78679  0.72358  0.38734  1.0000
  H   H2107     1.0  0.74729  0.75630  0.37125  1.0000
  H   H2108     1.0  0.75233  0.72985  0.37526  1.0000
  H   H2109     1.0  0.76891  0.74338  0.35707  1.0000
  H   H2110     1.0  0.76561  0.74042  0.41785  1.0000
  H   H2111     1.0  0.74514  0.75410  0.40632  1.0000
  H   H2112     1.0  0.75091  0.72763  0.41069  1.0000
  H   H2113     1.0  0.78831  0.75888  0.39302  1.0000
  H   H2114     1.0  0.76819  0.77306  0.38106  1.0000
  H   H2115     1.0  0.79015  0.75994  0.36748  1.0000
  H   H2116     1.0  0.79577  0.72243  0.39838  1.0000
  H   H2117     1.0  0.79720  0.72358  0.37296  1.0000
  C   C1324     1.0  0.82995  0.67225  0.47682  1.0000
  H   H2118     1.0  0.96993  0.65311  0.35782  1.0000
  H   H2119     1.0  0.89353  0.78045  0.42734  1.0000
  H   H2120     1.0  0.67431  0.78681  0.34951  1.0000
  H   H2121     1.0  0.87723  0.56023  0.25755  1.0000
  C   C1325     1.0  0.94414  0.63385  0.35299  1.0000
  C   C1326     1.0  0.90797  0.54895  0.25916  1.0000
  H   H2122     1.0  0.68800  0.80588  0.41719  1.0000
  C   C1327     1.0  0.73867  0.59667  0.24023  1.0000
  C   C1328     1.0  0.96247  0.64429  0.37134  1.0000
  H   H2123     1.0  0.93156  0.63835  0.40069  1.0000
  H   H2124     1.0  0.85656  0.81513  0.45616  1.0000
  C   C1329     1.0  0.93032  0.66344  0.36624  1.0000
  H   H2125     1.0  0.96155  0.65140  0.38380  1.0000
  H   H2126     1.0  0.97214  0.62931  0.37399  1.0000
  C   C1330     1.0  0.67902  0.78293  0.36342  1.0000
  H   H2127     1.0  0.91534  0.66320  0.36444  1.0000
  N   N133      1.0  0.80179  0.61695  0.33526  1.0000
  C   C1331     1.0  0.80300  0.61993  0.31393  1.0000
  H   H2128     1.0  0.68471  0.50622  0.24518  1.0000
  H   H2129     1.0  0.66547  0.79687  0.42559  1.0000
  H   H2130     1.0  0.81359  0.51835  0.27359  1.0000
  H   H2131     1.0  0.71924  0.56807  0.24757  1.0000
  H   H2132     1.0  0.70451  0.62085  0.25332  1.0000
  H   H2133     1.0  0.74295  0.83362  0.47656  1.0000
  H   H2134     1.0  0.69311  0.55693  0.23948  1.0000
  C   C1332     1.0  0.89228  0.70339  0.47466  1.0000
  H   H2135     1.0  0.71012  0.56728  0.27333  1.0000
  H   H2136     1.0  0.93694  0.49858  0.26880  1.0000
  C   C1333     1.0  0.81625  0.50729  0.26422  1.0000
  H   H2137     1.0  0.72453  0.85559  0.48009  1.0000
  C   C1334     1.0  0.66809  0.77258  0.37983  1.0000
  H   H2138     1.0  0.73616  0.56078  0.26396  1.0000
  C   C1335     1.0  0.72918  0.59501  0.27520  1.0000
  H   H2139     1.0  0.67483  0.53197  0.24525  1.0000
  S   S539      1.0  0.76621  0.49264  0.23869  1.0000
  C   C1336     1.0  0.67280  0.51898  0.24074  1.0000
  H   H2140     1.0  0.67180  0.81103  0.43962  1.0000
  H   H2141     1.0  0.90659  0.99003  0.47373  1.0000
  C   C1337     1.0  0.83626  0.97501  0.48094  1.0000
  H   H2142     1.0  0.88488  0.97968  0.47925  1.0000
  H   H2143     1.0  0.83236  0.94547  0.48331  1.0000
  C   C1338     1.0  0.88361  0.84356  0.48341  1.0000
  C   C1339     1.0  0.89140  0.99065  0.48273  1.0000
  H   H2144     1.0  0.74009  0.61229  0.23750  1.0000
  N   N134      1.0  0.84772  0.76899  0.54760  1.0000
  H   H2145     1.0  0.92972  0.66843  0.54148  1.0000
  S   S540      1.0  0.90143  0.57922  0.65478  1.0000
  S   S541      1.0  0.88372  0.54503  0.70471  1.0000
  H   H2146     1.0  0.79377  0.79778  0.51676  1.0000
  H   H2147     1.0  0.89354  0.69493  0.51297  1.0000
  N   N135      1.0  0.76195  0.72604  0.52467  1.0000
  C   C1340     1.0  0.78114  0.81714  0.56514  1.0000
  N   N136      1.0  0.90945  0.64977  0.61515  1.0000
  H   H2148     1.0  0.92100  0.64766  0.58491  1.0000
  C   C1341     1.0  0.68683  0.81733  0.63764  1.0000
  H   H2149     1.0  0.81720  0.51637  0.63166  1.0000
  H   H2150     1.0  0.93547  0.62960  0.62352  1.0000
  Fe  Fe268     1.0  0.85578  0.69025  0.57648  1.0000
  S   S542      1.0  0.82347  0.70046  0.57577  1.0000
  S   S543      1.0  0.87437  0.71060  0.57773  1.0000
  Fe  Fe269     1.0  0.85699  0.64854  0.57387  1.0000
  S   S544      1.0  0.82500  0.65466  0.57226  1.0000
  S   S545      1.0  0.87775  0.61917  0.57301  1.0000
  Fe  Fe270     1.0  0.83066  0.68295  0.55214  1.0000
  S   S546      1.0  0.81986  0.69663  0.52419  1.0000
  Fe  Fe271     1.0  0.82043  0.67142  0.59603  1.0000
  S   S547      1.0  0.79697  0.66434  0.62226  1.0000
  S   S548      1.0  0.86322  0.67509  0.55109  1.0000
  S   S549      1.0  0.85214  0.66311  0.59927  1.0000
  Fe  Fe272     1.0  0.73866  0.77543  0.56791  1.0000
  S   S550      1.0  0.71740  0.75704  0.56816  1.0000
  S   S551      1.0  0.76607  0.77658  0.54448  1.0000
  Fe  Fe273     1.0  0.71326  0.79259  0.60260  1.0000
  S   S552      1.0  0.68990  0.77578  0.60602  1.0000
  S   S553      1.0  0.70952  0.81481  0.62103  1.0000
  Fe  Fe274     1.0  0.71526  0.75043  0.60071  1.0000
  S   S554      1.0  0.71294  0.72098  0.62013  1.0000
  Fe  Fe275     1.0  0.69411  0.78406  0.57341  1.0000
  N   N137      1.0  0.89456  0.68364  0.48756  1.0000
  S   S555      1.0  0.73856  0.76649  0.60015  1.0000
  S   S556      1.0  0.71546  0.80313  0.57023  1.0000
  C   C1342     1.0  0.89803  0.70509  0.56323  1.0000
  C   C1343     1.0  0.90933  0.71958  0.55637  1.0000
  H   H2151     1.0  0.90517  0.96477  0.52549  1.0000
  C   C1344     1.0  0.93481  0.69761  0.53793  1.0000
  C   C1345     1.0  0.92407  0.68267  0.54568  1.0000
  C   C1346     1.0  0.90558  0.68648  0.55821  1.0000
  H   H2152     1.0  0.90388  0.73380  0.56058  1.0000
  C   C1347     1.0  0.67773  0.80123  0.64609  1.0000
  H   H2153     1.0  0.89725  0.67500  0.56401  1.0000
  C   C1348     1.0  0.77368  0.68007  0.62103  1.0000
  C   C1349     1.0  0.77138  0.69699  0.60626  1.0000
  C   C1350     1.0  0.75271  0.70963  0.60588  1.0000
  C   C1351     1.0  0.73628  0.70516  0.62010  1.0000
  C   C1352     1.0  0.73850  0.68802  0.63458  1.0000
  C   C1353     1.0  0.75720  0.67559  0.63515  1.0000
  H   H2154     1.0  0.78396  0.70050  0.59529  1.0000
  H   H2155     1.0  0.75105  0.72281  0.59459  1.0000
  H   H2156     1.0  0.72584  0.68443  0.64551  1.0000
  H   H2157     1.0  0.75891  0.66250  0.64654  1.0000
  Fe  Fe276     1.0  0.93905  0.76775  0.50023  1.0000
  H   H2158     1.0  0.82388  0.75405  0.55206  1.0000
  H   H2159     1.0  0.84125  0.79762  0.55517  1.0000
  S   S557      1.0  0.96628  0.74798  0.51043  1.0000
  H   H2160     1.0  0.92036  0.51503  0.70209  1.0000
  C   C1354     1.0  0.77708  0.79511  0.54635  1.0000
  C   C1355     1.0  0.77242  0.80224  0.56372  1.0000
  H   H2161     1.0  0.70155  0.78590  0.53131  1.0000
  H   H2162     1.0  0.93584  0.72749  0.53779  1.0000
  H   H2163     1.0  0.76221  0.79619  0.57619  1.0000
  H   H2164     1.0  0.83992  0.74414  0.56949  1.0000
  C   C1356     1.0  0.89405  0.58895  0.63228  1.0000
  C   C1357     1.0  0.90685  0.58457  0.61502  1.0000
  C   C1358     1.0  0.90140  0.59331  0.59686  1.0000
  C   C1359     1.0  0.88352  0.60706  0.59591  1.0000
  C   C1360     1.0  0.87078  0.61149  0.61320  1.0000
  C   C1361     1.0  0.87584  0.60213  0.63140  1.0000
  H   H2165     1.0  0.92095  0.57438  0.61570  1.0000
  H   H2166     1.0  0.91130  0.58985  0.58352  1.0000
  H   H2167     1.0  0.85698  0.62206  0.61263  1.0000
  H   H2168     1.0  0.86601  0.60564  0.64475  1.0000
  C   C1362     1.0  0.79864  0.81837  0.53157  1.0000
  S   S558      1.0  0.82860  0.53621  0.65598  1.0000
  H   H2169     1.0  0.70810  0.79638  0.49505  1.0000
  H   H2170     1.0  0.67363  0.73590  0.64140  1.0000
  H   H2171     1.0  0.75361  0.84688  0.51898  1.0000
  Fe  Fe277     1.0  0.88103  0.55991  0.67376  1.0000
  H   H2172     1.0  0.75492  0.81004  0.50514  1.0000
  C   C1363     1.0  0.69041  0.79650  0.52412  1.0000
  H   H2173     1.0  0.92872  0.65203  0.63283  1.0000
  C   C1364     1.0  0.83368  0.65951  0.51602  1.0000
  N   N138      1.0  0.79805  0.89304  0.57710  1.0000
  C   C1365     1.0  0.78317  0.89676  0.56482  1.0000
  C   C1366     1.0  0.79665  0.91123  0.58405  1.0000
  C   C1367     1.0  0.81807  0.88735  0.56544  1.0000
  C   C1368     1.0  0.79432  0.87683  0.59397  1.0000
  H   H2174     1.0  0.78378  0.88331  0.55935  1.0000
  H   H2175     1.0  0.78562  0.90884  0.55184  1.0000
  H   H2176     1.0  0.76787  0.90118  0.57308  1.0000
  H   H2177     1.0  0.80772  0.90904  0.59332  1.0000
  H   H2178     1.0  0.79943  0.92363  0.57145  1.0000
  H   H2179     1.0  0.78170  0.91606  0.59283  1.0000
  H   H2180     1.0  0.82971  0.88445  0.57420  1.0000
  H   H2181     1.0  0.82134  0.89918  0.55249  1.0000
  H   H2182     1.0  0.81965  0.87371  0.55990  1.0000
  H   H2183     1.0  0.80530  0.87352  0.60358  1.0000
  H   H2184     1.0  0.79532  0.86296  0.58897  1.0000
  H   H2185     1.0  0.77928  0.88052  0.60306  1.0000
  Fe  Fe278     1.0  0.81549  0.90839  0.50826  1.0000
  C   C1369     1.0  0.79591  0.50869  0.70784  1.0000
  Fe  Fe279     1.0  0.85066  0.55237  0.71048  1.0000
  H   H2186     1.0  0.80895  0.82434  0.51920  1.0000
  H   H2187     1.0  0.71010  0.86165  0.51378  1.0000
  H   H2188     1.0  0.85540  0.76716  0.51717  1.0000
  H   H2189     1.0  0.73511  0.72423  0.54605  1.0000
  C   C1370     1.0  0.83970  0.64601  0.50342  1.0000
  H   H2190     1.0  0.90497  0.66926  0.51429  1.0000
  N   N139      1.0  0.81979  0.59237  0.61606  1.0000
  C   C1371     1.0  0.80123  0.60755  0.61809  1.0000
  C   C1372     1.0  0.81538  0.57345  0.61554  1.0000
  C   C1373     1.0  0.82924  0.58959  0.63295  1.0000
  C   C1374     1.0  0.83330  0.59886  0.59768  1.0000
  H   H2191     1.0  0.79067  0.60319  0.63182  1.0000
  H   H2192     1.0  0.79371  0.61013  0.60557  1.0000
  H   H2193     1.0  0.80408  0.62202  0.61856  1.0000
  H   H2194     1.0  0.82910  0.56165  0.61431  1.0000
  H   H2195     1.0  0.80520  0.56809  0.62919  1.0000
  H   H2196     1.0  0.80835  0.57485  0.60294  1.0000
  H   H2197     1.0  0.83195  0.60373  0.63440  1.0000
  H   H2198     1.0  0.84370  0.57881  0.63155  1.0000
  H   H2199     1.0  0.81979  0.58377  0.64695  1.0000
  H   H2200     1.0  0.83622  0.61352  0.59714  1.0000
  H   H2201     1.0  0.82699  0.60034  0.58458  1.0000
  H   H2202     1.0  0.84789  0.58831  0.59604  1.0000
  C   C1375     1.0  0.89592  0.64074  0.63211  1.0000
  C   C1376     1.0  0.92927  0.64578  0.61994  1.0000
  H   H2203     1.0  0.90160  0.62454  0.63637  1.0000
  H   H2204     1.0  0.88097  0.64292  0.62882  1.0000
  H   H2205     1.0  0.89403  0.64720  0.64519  1.0000
  H   H2206     1.0  0.88693  0.67489  0.60658  1.0000
  H   H2207     1.0  0.68515  0.78678  0.64309  1.0000
  Fe  Fe280     1.0  0.81217  0.86509  0.52298  1.0000
  C   C1377     1.0  0.90175  0.67134  0.61054  1.0000
  C   C1378     1.0  0.79412  0.82537  0.54903  1.0000
  H   H2208     1.0  0.77761  0.82244  0.57871  1.0000
  Fe  Fe281     1.0  0.84832  0.54069  0.67360  1.0000
  C   C1379     1.0  0.87499  0.67837  0.49500  1.0000
  S   S559      1.0  0.66676  0.79638  0.56075  1.0000
  S   S560      1.0  0.83727  0.88046  0.51695  1.0000
  H   H2209     1.0  0.83706  0.77766  0.57557  1.0000
  H   H2210     1.0  0.91170  0.67870  0.59793  1.0000
  H   H2211     1.0  0.93988  0.65236  0.60743  1.0000
  H   H2212     1.0  0.82010  0.78697  0.55909  1.0000
  C   C1380     1.0  0.82581  0.67938  0.50901  1.0000
  H   H2213     1.0  0.85532  0.50214  0.67324  1.0000
  H   H2214     1.0  0.90017  0.67833  0.62318  1.0000
  S   S561      1.0  0.80510  0.84379  0.55131  1.0000
  H   H2215     1.0  0.83111  0.78152  0.52464  1.0000
  S   S562      1.0  0.78998  0.89310  0.51663  1.0000
  H   H2216     1.0  0.87605  0.66355  0.50483  1.0000
  H   H2217     1.0  0.76656  0.71454  0.49856  1.0000
  H   H2218     1.0  0.91665  0.62491  0.60103  1.0000
  S   S563      1.0  0.84792  0.56981  0.68027  1.0000
  H   H2219     1.0  0.78627  0.73294  0.53235  1.0000
  H   H2220     1.0  0.87620  0.81119  0.52680  1.0000
  C   C1381     1.0  0.91093  0.64118  0.59802  1.0000
  C   C1382     1.0  0.74957  0.84852  0.50457  1.0000
  H   H2221     1.0  0.89625  0.64382  0.59397  1.0000
  H   H2222     1.0  0.78090  0.51633  0.71441  1.0000
  H   H2223     1.0  0.94507  0.51480  0.72112  1.0000
  S   S564      1.0  0.88120  0.53221  0.66440  1.0000
  C   C1383     1.0  0.67204  0.80385  0.53520  1.0000
  H   H2224     1.0  0.87787  0.75326  0.54056  1.0000
  C   C1384     1.0  0.79024  0.80316  0.53027  1.0000
  H   H2225     1.0  0.76335  0.84305  0.49438  1.0000
  S   S565      1.0  0.95652  0.69411  0.52017  1.0000
  H   H2226     1.0  0.68534  0.74228  0.68688  1.0000
  C   C1385     1.0  0.86859  0.76395  0.54985  1.0000
  C   C1386     1.0  0.67202  0.73607  0.68900  1.0000
  C   C1387     1.0  0.90308  0.80864  0.50498  1.0000
  C   C1388     1.0  0.67766  0.83580  0.64236  1.0000
  C   C1389     1.0  0.92752  0.71596  0.54349  1.0000
  C   C1390     1.0  0.91281  0.81730  0.48670  1.0000
  C   C1391     1.0  0.67969  0.81619  0.49429  1.0000
  H   H2227     1.0  0.87001  0.75700  0.56527  1.0000
  H   H2228     1.0  0.71860  0.84435  0.53439  1.0000
  H   H2229     1.0  0.77934  0.71049  0.54656  1.0000
  H   H2230     1.0  0.84615  0.63072  0.50876  1.0000
  H   H2231     1.0  0.75021  0.70086  0.54156  1.0000
  C   C1392     1.0  0.83955  0.75090  0.55381  1.0000
  C   C1393     1.0  0.83606  0.78344  0.55990  1.0000
  C   C1394     1.0  0.78238  0.55082  0.73052  1.0000
  C   C1395     1.0  0.84665  0.77764  0.52686  1.0000
  C   C1396     1.0  0.77480  0.71512  0.50957  1.0000
  C   C1397     1.0  0.69413  0.80246  0.50361  1.0000
  C   C1398     1.0  0.82755  0.50572  0.63984  1.0000
  C   C1399     1.0  0.81667  0.97148  0.51998  1.0000
  H   H2232     1.0  0.99650  0.69358  0.49032  1.0000
  H   H2233     1.0  0.74571  0.74741  0.50430  1.0000
  S   S566      1.0  0.91473  0.78654  0.51849  1.0000
  H   H2234     1.0  0.67107  0.72512  0.70309  1.0000
  H   H2235     1.0  0.83552  0.65454  0.53103  1.0000
  Fe  Fe282     1.0  0.88071  0.51825  0.69595  1.0000
  H   H2236     1.0  0.68741  0.74795  0.65062  1.0000
  H   H2237     1.0  0.78106  0.69961  0.51612  1.0000
  S   S567      1.0  0.81172  0.93389  0.52341  1.0000
  H   H2238     1.0  0.84824  0.73945  0.54517  1.0000
  H   H2239     1.0  0.80904  0.97018  0.53511  1.0000
  H   H2240     1.0  0.87528  0.77722  0.54554  1.0000
  S   S568      1.0  0.84780  0.52425  0.70441  1.0000
  H   H2241     1.0  0.70434  0.71650  0.66724  1.0000
  C   C1400     1.0  0.75455  0.74668  0.51532  1.0000
  N   N140      1.0  0.67273  0.72701  0.67240  1.0000
  C   C1401     1.0  0.88368  0.81760  0.51254  1.0000
  C   C1402     1.0  0.69047  0.71088  0.67053  1.0000
  H   H2242     1.0  0.70382  0.83774  0.52113  1.0000
  C   C1403     1.0  0.82310  0.98901  0.51006  1.0000
  N   N141      1.0  0.73397  0.83768  0.50629  1.0000
  H   H2243     1.0  0.85259  0.79139  0.52177  1.0000
  C   C1404     1.0  0.77339  0.72583  0.53929  1.0000
  H   H2244     1.0  0.80650  0.51774  0.70771  1.0000
  C   C1405     1.0  0.84896  0.49775  0.66330  1.0000
  H   H2245     1.0  0.74481  0.86460  0.49874  1.0000
  C   C1406     1.0  0.81993  0.95569  0.51040  1.0000
  H   H2246     1.0  0.85880  0.84151  0.50749  1.0000
  C   C1407     1.0  0.87387  0.83488  0.50168  1.0000
  H   H2247     1.0  0.69051  0.69938  0.68419  1.0000
  C   C1408     1.0  0.83293  0.99081  0.49048  1.0000
  C   C1409     1.0  0.71581  0.84574  0.51949  1.0000
  C   C1410     1.0  0.83551  0.51160  0.65283  1.0000
  H   H2248     1.0  0.78748  0.72216  0.50152  1.0000
  C   C1411     1.0  0.82977  0.95752  0.49084  1.0000
  H   H2249     1.0  0.79601  0.50891  0.69227  1.0000
  H   H2250     1.0  0.91797  0.68782  0.49910  1.0000
  H   H2251     1.0  0.80541  0.56636  0.71427  1.0000
  H   H2252     1.0  0.77356  0.55613  0.71926  1.0000
  Fe  Fe283     1.0  0.84121  0.87666  0.48613  1.0000
  Fe  Fe284     1.0  0.95709  0.72428  0.50170  1.0000
  H   H2253     1.0  0.68474  0.84823  0.63599  1.0000
  H   H2254     1.0  0.74377  0.81449  0.52934  1.0000
  C   C1412     1.0  0.93876  0.50197  0.72361  1.0000
  N   N142      1.0  0.89144  0.98703  0.50390  1.0000
  H   H2255     1.0  0.73607  0.71651  0.52383  1.0000
  H   H2256     1.0  0.76417  0.73395  0.55092  1.0000
  H   H2257     1.0  0.92036  0.96800  0.50140  1.0000
  H   H2258     1.0  0.69122  0.70354  0.65832  1.0000
  H   H2259     1.0  0.72977  0.80779  0.51548  1.0000
  C   C1413     1.0  0.67363  0.74213  0.65413  1.0000
  C   C1414     1.0  0.74091  0.81657  0.51438  1.0000
  H   H2260     1.0  0.90024  0.95555  0.50650  1.0000
  H   H2261     1.0  0.71775  0.83202  0.48745  1.0000
  C   C1415     1.0  0.90492  0.96798  0.50958  1.0000
  S   S569      1.0  0.81791  0.85883  0.49292  1.0000
  C   C1416     1.0  0.90314  0.68392  0.50420  1.0000
  C   C1417     1.0  0.80033  0.55664  0.72772  1.0000
  H   H2262     1.0  0.74503  0.75545  0.52631  1.0000
  H   H2263     1.0  0.76698  0.75420  0.50758  1.0000
  C   C1418     1.0  0.74506  0.71649  0.53447  1.0000
  Fe  Fe285     1.0  0.79763  0.88823  0.48588  1.0000
  C   C1419     1.0  0.82370  0.68570  0.48946  1.0000
  H   H2264     1.0  0.87055  0.98397  0.53127  1.0000
  H   H2265     1.0  0.86561  0.97432  0.51253  1.0000
  C   C1420     1.0  0.92469  0.50215  0.71296  1.0000
  S   S570      1.0  0.92865  0.74327  0.49444  1.0000
  C   C1421     1.0  0.87122  0.98635  0.51524  1.0000
  C   C1422     1.0  0.72959  0.83981  0.48675  1.0000
  H   H2266     1.0  0.86448  0.68923  0.50344  1.0000
  H   H2267     1.0  0.90968  0.65377  0.48550  1.0000
  H   H2268     1.0  0.81367  0.53243  0.77113  1.0000
  Fe  Fe286     1.0  0.72269  0.53011  0.82337  1.0000
  S   S571      1.0  0.70992  0.52932  0.79819  1.0000
  S   S572      1.0  0.71109  0.55424  0.84067  1.0000
  H   H2269     1.0  0.78280  0.57694  0.76418  1.0000
  C   C1423     1.0  0.80497  0.53760  0.75980  1.0000
  H   H2270     1.0  0.72920  0.59778  0.80235  1.0000
  H   H2271     1.0  0.89508  0.51585  0.74207  1.0000
  H   H2272     1.0  0.74315  0.57324  0.80948  1.0000
  S   S573      1.0  0.75273  0.53216  0.75179  1.0000
  C   C1424     1.0  0.69866  0.57922  0.80829  1.0000
  C   C1425     1.0  0.69810  0.57625  0.82837  1.0000
  H   H2273     1.0  0.78343  0.58353  0.78645  1.0000
  H   H2274     1.0  0.70745  0.56814  0.80013  1.0000
  Fe  Fe287     1.0  0.74151  0.52000  0.78348  1.0000
  H   H2275     1.0  0.68648  0.58868  0.85434  1.0000
  H   H2276     1.0  0.77543  0.56144  0.78736  1.0000
  H   H2277     1.0  0.73880  0.61781  0.77008  1.0000
  H   H2278     1.0  0.66721  0.61954  0.83739  1.0000
  H   H2279     1.0  0.78301  0.52068  0.77517  1.0000
  C   C1426     1.0  0.67590  0.60827  0.82926  1.0000
  H   H2280     1.0  0.68859  0.59914  0.78308  1.0000
  C   C1427     1.0  0.77573  0.53838  0.74796  1.0000
  H   H2281     1.0  0.75266  0.59434  0.80881  1.0000
  C   C1428     1.0  0.74359  0.57907  0.77130  1.0000
  C   C1429     1.0  0.77488  0.57708  0.77960  1.0000
  H   H2282     1.0  0.75086  0.57846  0.75579  1.0000
  N   N143      1.0  0.75426  0.58836  0.78047  1.0000
  H   H2283     1.0  0.74314  0.56360  0.77909  1.0000
  S   S574      1.0  0.75414  0.52371  0.80763  1.0000
  H   H2284     1.0  0.76207  0.61640  0.77631  1.0000
  C   C1430     1.0  0.68688  0.59087  0.83881  1.0000
  H   H2285     1.0  0.82846  0.49759  0.94617  1.0000
  C   C1431     1.0  0.78737  0.53127  0.76228  1.0000
  H   H2286     1.0  0.67411  0.55064  0.83076  1.0000
  C   C1432     1.0  0.68816  0.59685  0.79862  1.0000
  C   C1433     1.0  0.67653  0.61125  0.80916  1.0000
  H   H2287     1.0  0.76159  0.60940  0.75411  1.0000
  C   C1434     1.0  0.75420  0.60891  0.76976  1.0000
  C   C1435     1.0  0.74441  0.58841  0.80115  1.0000
  H   H2288     1.0  0.72805  0.58736  0.77140  1.0000
  C   C1436     1.0  0.89473  0.51416  0.75794  1.0000
  C   C1437     1.0  0.81134  0.55043  0.74259  1.0000
  S   S575      1.0  0.83322  0.55840  0.73951  1.0000
  H   H2289     1.0  0.78883  0.50333  0.93464  1.0000
  H   H2290     1.0  0.89247  0.52923  0.76086  1.0000
  H   H2291     1.0  0.87634  0.51670  0.79490  1.0000
  C   C1438     1.0  0.85961  0.51545  0.76570  1.0000
  S   S576      1.0  0.72257  0.49853  0.83804  1.0000
  C   C1439     1.0  0.78906  0.50540  0.94946  1.0000
  Fe  Fe288     1.0  0.71201  0.49730  0.81163  1.0000
  C   C1440     1.0  0.87905  0.50198  0.79100  1.0000
  H   H2292     1.0  0.85639  0.53060  0.76880  1.0000
  H   H2293     1.0  0.77345  0.50820  0.95752  1.0000
  H   H2294     1.0  0.79488  0.51893  0.94737  1.0000
  H   H2295     1.0  0.85917  0.51726  0.74995  1.0000
  H   H2296     1.0  0.89357  0.49344  0.79467  1.0000
  H   H2297     1.0  0.76841  0.49756  0.88693  1.0000
  N   N144      1.0  0.87899  0.50391  0.77006  1.0000
  H   H2298     1.0  0.90962  0.50586  0.76077  1.0000
  H   H2299     1.0  0.80800  0.50407  0.97820  1.0000
  H   H2300     1.0  0.78686  0.49570  0.74695  1.0000
  H   H2301     1.0  0.86742  0.49424  0.80063  1.0000
  H   H2302     1.0  0.81239  0.49750  0.73960  1.0000
  H   H2303     1.0  0.84733  0.50820  0.77452  1.0000
  H   H2304     1.0  0.75966  0.49523  0.85633  1.0000
