data_image0
_chemical_formula_structural       SFeS2FeS2FeSFeS3H3FeS2FeCSH3FeH3SHC7H4C6H4C2H2SC4HC6H4CH3CHC2SCNCH3SNH2CHSCFeCSHCH4CH3CHNC4H12NHS2HSFeCSHCH3CSH2CNFeC2FeH3SHFeH6NH5C3H7CH2SCSCFeHCH2C2HCHCSHCH2CH4CH2CH3C2FeH2CSC3H6CFeH3CFeH3NCS2HCSCH3SHS2HC7H3C6H4CH4CH2C2HCHSH2CHSCSC2HSCFeHFeHFeSHFeH5CHCH2NCSH2CH2NH2FeH2C3S2CNH3C2FeC2SHFeS2FeHFeSFeHS2H6S2H2C2H3CHC3H2CH3CSFeC7H3FeC2H3C4SHSC4H5CH2SH5SFeHFeC2SCFeCH3SCH2SCH7SH2C2FeHNHNH4SH6NC4H2SFeHNHFeH3CSC2H2CHCHCHCH2CHSCH2CH2SHCHC3NSHCH2CHC2HCH2S2CHCHS2H2SCH3FeS2FeSFeSFeS3FeSFeS2FeSFeS3HCSCH3FeS2H2CNC2HCHFeC7H4C3SH6C6H4C6H5CHCH2CNH2CH8CNHFeC2H2SHC5H3CN2C3S2H5C2HC3NC4H3CH11SHCSCHFeH2CH5C2HC2FeH3CH5NC3H8NC3H8SH2CH3CH4SH6C4HCH3SH2FeS2FeS2FeSFeCS2HSCHSCFeHFeSFeSHC2FeSCFeS2FeSFeHS2H3C2SHNCH2SHCHC3SC2HC2HSCH3SNC5H2C6H4C6H5CFeHNSH3C3H4C5H2FeSH3C2HC2HCNC4H12C2SH2CNH3NC4H13C2H2CH2CH4CH3C2H2NHCNH5FeH2CHCHCH12CH2CH2CSC2FeS2CH2FeSHS2CH2CHFeHSFeHSHCHS2NHNHCH2SFeHC6H8SH3CFeSH4NCFeH3CH4C3H3SCHCHC2HCH2NC2H3CFeH2FeHCH3CH2C3HCFeHSH2FeS2HSHFeSFeSFeHSHNHNHS2HFeSHFeS2FeSFeHS2H2C6H4CSCH6C2HC6H4C4HCHC2SH4CH2C3HCH2C3H4CHC2HCHC2SHNC4H13CHCS2CH2CH3SH3CNH2CNHC2HCSH8C2H2FeH3CH2C2HCH2S2HCFeHS2HCHSFeS2FeSFe2HS2FeS2FeS2Fe2S3FeS2FeS2FeHFeS2H2SH5C3H2CH2SC7H2CHC6SCH2C2SH2C6H4C6H3C2SHC2H2C7H3NC4H12CH6S2CH4FeHCHSC2H2FeCHC2FeNC4H5CH6CH2SH2FeCSH4NHNC4H10CSC2NSHCH3CNHC2HFeCH5CHCSH4SH2Fe2HSCHC3SFeS2FeSFeS3HFeS2FeS2FeSFeS3H4C2SHCHSC6H5NC8H6FeHC2H4FeCHC6H4C4HCH2CH2C7H5FeNC4H17FeCSCHC3SH2FeSHCH4CH2SH2FeC2N2SC2FeNHNSH2S2H3CSH6CH2CH3CHSH2CHCH2NH3CHC2HC2HSCHCH2S2H2CHCH4FeHCSCNC4H7FeCH2CFeHSHFeHCHFeH2CNCHNH4CH3C2SCH2SCSH4CH2C2HSHCH2SFeHSHSH2Fe2SFeSFeS2C2FeS2FeS2FeSFeS3C6H3C6H3C6H4C6H4FeHSHC3H3CH2CHCFeH2CHC2HSH5C3SH2S2HCH4CNH2SH2SHSH5CH5SH3C2HSC2H3CHCHC4HN2H3SC2H2SH2C2H2NC4H7CH2NSH11C2H2SFe2H2CHCH2NHC2HCN2C5H4FeH3CHSCH5CSFeH2CHCH2CSC2NHCHSC2HSH2CH4SH2FeHCHCH2CHSCHCS2CFeS2FeS2FeSFeS3FeS2HSCHFeSCSH7CNFeCHC6H4C6HCH2C4HNH4C6H4FeCSHNH4CH3CHC2H4FeHCH4NH2CHCFeH5CFeH2SCHCHCH2CH4NCHCSCH4NHCHC2SH3NS2C2H6CFeH5SH2CHSCH5CH3CHCFeH7CFeH4CHCH2FeHSFeHNCS2FeSFeS2FeSFeS3HSFeC4H2C3H3NC6H4CHCHC3FeHC4HC2H5C2SCH2CSH3C2HCH3CH3SHSCHNC2HC2HC2H4FeCFeSH3SH2CHNHCH3CH3CHCH4FeH2SCHSH4CHCNH6NHSH3CH2CSHC2H2FeHCH2SC2H3S2CHCHCH2CHSCHSCHC2H3CH4CHS3CHCFeC2H3FeHCFeHCH2CSHCH5CSHC2HCH2CSH6C2HCH2NHC2H2SH3NH3FeSCHCHCSH2CHSH2C2H3SHSHFeCSHCH3CHSC3H4CFeHC2H4CNC7H4CH3SH6FeCHCFeHNHSC2NH2CH2CSCHSH2FeSH6FeH3CHSFeSCH2CHCH2CFeS2FeS2FeSFeS3HSFeSHFe2S2FeS2HSFeSFeSCHC2H4C2HCHC10H6C3H7CH2CH5SC6HC3H4S2C4HCH3C4S2H3NH2FeCHNC4H12CFeH2FeSHSHCH2CH3CSCH3CH2C3H3CHCHCHNCHCHNCH2FeH2NCNH2C3H3CHCH2SHCHCHC2H3CNSFeSHFeS2FeHFeCS2CH2FeS2FeS2FeSFeHS2HFeH3SNSC4H3CH3C4FeH3SC7H6SH2FeHCH2C2H6C6H5C2HCHCNHC2SC2HFeH2C3HC2H2CH3C2H8C2H2SHCHNH2NCHC3HC3H2SNSCHC2HNC4H13NH2SH2CH5CSH7CH3CSCH3SCH3CHCH2NC2HFeH2CHSC2H3SCHC2HFeS2FeS3CFeS3CFeSHSC6H4C3HC2H3C3FeCH5CSCH2SH2C3FeCH2FeH4NHCHSH10C2H2SH5CNC4H5SH2CHSC2SH5CHCFeH2CSHSFeH5C2HNHCHNH2SCHSH2SHCHSFeHSH3CHSFe2HFeS2Fe2S2HSC6H2CHCH2SHC2H2NHSFeHCSCH3FeHCSFeC2HSC7H3C4H4CHSHC2NC4H12CHSCFeNH3SNHNH2CSC2HSH2CHCH2SCHC3SH3C2H2CHFeHC2HCH2FeHCH3SHCH4SH3NH4CSH4CFeC3HSHSHCFeCSCFeHCH2CHFeS2HFeSCSH2NCSH3CH3C3HCH2CH4C2H3CHNH3C2SHCSH2C2HCH2NCSHSH2FeH2FeCS3HC6H3CSFeC2HCHSCHCFeH2SH2NH2FeHSH4CHSH2CH4CH6CNH3CHSHCH2CFeS2CHFeS2FeS2FeSFeHS2FeCSHCHS2FeS2FeSHFeSFeS3H2C6H4CNH3CHCH2CH2C6H4NHSH4C2HC6H5CH3C6H3FeC6H6C2HCHNH4CHNC4H14SC2FeCSH6CNC4H8CH3SNC4H7FeSH4CH2SH2C2HCHCH3CH2CHC2HC2NCHSCH2C3HC2HC2H2SH2CH2CNFeSC2NHSCHCHSH3C2H4CH4FeHSHSHFeCHFe3S2Fe3HS2HCH2CH3CHCH2SH2S2C2H2SH2S4C3H2CH2CHFeC4H3CH2S2HSHCH2CH2FeHC2HSHSCSH2CFeH3CSC6H3SCHCSCH4CSHC2H2CSC2SCNHNCSNC2H3NCH2CHC2H3C2H5SHFeHCH6CHFeSC2H3NCSCHCHCH2CH2C2HCHCH2C2HC2H5FeH4FeSHSH2SFeSCHCHCFeH3CS2H2CSFeH3CNH2C3H5SFeCSH2SH4CH2NSH4NSFeH6C2HC4H5SHCNCSCS2H2C3HNHSCHCHCNCH2CH2CH2CFeHSCSHC3H2FeCH2CSH2Fe2H5CHCH2C2HSHSCSFe2H2CSFeCH2CH2CH3CH5CHC2SCH2CHC3NH5FeSH3C3Fe2S2FeSFeS2CHFeCS2CFeC2HCHFeS2FeS2FeSFeS3CFeCH2SFeSCHC3H3CH4C6H7CHC7H4CSHCHC4H4NC2H4CHCH5NH4SH3C2NCSH2CH2CNH2C2HCH2NH2SHCH4SHSH5C3SH3C2HC2HCHFeC2H3NC4H10SNC4H10CSCHC3HFeH4FeH2C2H3SHC2H3NC5NHSH2CH3CHSH2CFeCHCHNCSH3SH5CHCH6SH6CH3C4S2C
_chemical_formula_sum              "S576 Fe288 H2304 C1440 N144"
_cell_length_a       61.45
_cell_length_b       59.7819
_cell_length_c       82.6668
_cell_angle_alpha    78.1504
_cell_angle_beta     77.9973
_cell_angle_gamma    103.405

_space_group_name_H-M_alt    "P 1"
_space_group_IT_number       1

loop_
  _space_group_symop_operation_xyz
  'x, y, z'

loop_
  _atom_site_type_symbol
  _atom_site_label
  _atom_site_symmetry_multiplicity
  _atom_site_fract_x
  _atom_site_fract_y
  _atom_site_fract_z
  _atom_site_occupancy
  S   S1        1.0  0.05571  0.36629  0.17085  1.0000
  Fe  Fe1       1.0  0.09427  0.25353  0.18553  1.0000
  S   S2        1.0  0.06618  0.24145  0.17321  1.0000
  S   S3        1.0  0.09937  0.28462  0.19699  1.0000
  Fe  Fe2       1.0  0.11290  0.21150  0.18356  1.0000
  S   S4        1.0  0.08598  0.19496  0.17138  1.0000
  S   S5        1.0  0.14007  0.19436  0.19025  1.0000
  Fe  Fe3       1.0  0.09329  0.23226  0.15523  1.0000
  S   S6        1.0  0.09488  0.24273  0.12716  1.0000
  Fe  Fe4       1.0  0.06080  0.20523  0.19024  1.0000
  S   S7        1.0  0.02305  0.18467  0.20108  1.0000
  S   S8        1.0  0.12227  0.24817  0.16585  1.0000
  S   S9        1.0  0.08684  0.21798  0.20414  1.0000
  H   H1        1.0  0.33092  0.09010  0.05513  1.0000
  H   H2        1.0  0.02616  0.28274  0.19055  1.0000
  H   H3        1.0  0.02642  0.44359  0.19358  1.0000
  Fe  Fe5       1.0  0.25520  0.25498  0.20622  1.0000
  S   S10       1.0  0.26572  0.22316  0.20064  1.0000
  S   S11       1.0  0.21854  0.25739  0.21404  1.0000
  Fe  Fe6       1.0  0.29399  0.23402  0.21340  1.0000
  C   C1        1.0  0.32082  0.10816  0.08220  1.0000
  S   S12       1.0  0.28118  0.26350  0.22124  1.0000
  H   H4        1.0  0.08493  0.32530  0.13329  1.0000
  H   H5        1.0  0.09363  0.30332  0.08689  1.0000
  H   H6        1.0  0.30160  0.01645  0.20256  1.0000
  Fe  Fe7       1.0  0.03212  0.35931  0.15391  1.0000
  H   H7        1.0  0.06575  0.49343  0.09378  1.0000
  H   H8        1.0  0.11423  0.29081  0.10783  1.0000
  H   H9        1.0  0.13978  0.26833  0.20516  1.0000
  S   S13       1.0  0.03485  0.16165  0.10270  1.0000
  H   H10       1.0  0.10135  0.24775  0.22678  1.0000
  C   C2        1.0  0.08608  0.33015  0.11934  1.0000
  C   C3        1.0  0.16231  0.21209  0.19637  1.0000
  C   C4        1.0  0.17500  0.20113  0.20610  1.0000
  C   C5        1.0  0.19278  0.21498  0.21120  1.0000
  C   C6        1.0  0.19821  0.23986  0.20628  1.0000
  C   C7        1.0  0.18593  0.25083  0.19619  1.0000
  C   C8        1.0  0.16793  0.23699  0.19131  1.0000
  H   H11       1.0  0.17074  0.18187  0.20999  1.0000
  H   H12       1.0  0.20204  0.20642  0.21916  1.0000
  H   H13       1.0  0.19041  0.27009  0.19212  1.0000
  H   H14       1.0  0.15853  0.24558  0.18355  1.0000
  C   C9        1.0  0.07995  0.22002  0.11952  1.0000
  C   C10       1.0  0.07205  0.22612  0.10494  1.0000
  C   C11       1.0  0.05849  0.20829  0.09950  1.0000
  C   C12       1.0  0.05328  0.18426  0.10834  1.0000
  C   C13       1.0  0.06232  0.17814  0.12229  1.0000
  C   C14       1.0  0.07529  0.19597  0.12804  1.0000
  H   H15       1.0  0.07601  0.24462  0.09800  1.0000
  H   H16       1.0  0.05238  0.21314  0.08832  1.0000
  H   H17       1.0  0.05879  0.15955  0.12894  1.0000
  H   H18       1.0  0.08196  0.19100  0.13889  1.0000
  C   C15       1.0  0.02828  0.20990  0.00122  1.0000
  C   C16       1.0  0.03284  0.24801  0.21408  1.0000
  H   H19       1.0  0.30667  0.11881  0.00020  1.0000
  H   H20       1.0  0.02709  0.29540  0.07986  1.0000
  S   S14       1.0  0.32448  0.03158  0.22685  1.0000
  C   C17       1.0  0.01108  0.18347  0.22259  1.0000
  C   C18       1.0  0.01039  0.26935  0.19967  1.0000
  C   C19       1.0  0.02405  0.20309  0.01910  1.0000
  C   C20       1.0  0.03602  0.46999  0.15414  1.0000
  H   H21       1.0  0.04356  0.18897  0.22931  1.0000
  C   C21       1.0  0.06765  0.34329  0.17773  1.0000
  C   C22       1.0  0.06628  0.32404  0.17042  1.0000
  C   C23       1.0  0.07627  0.30602  0.17606  1.0000
  C   C24       1.0  0.08737  0.30715  0.18917  1.0000
  C   C25       1.0  0.08865  0.32636  0.19649  1.0000
  C   C26       1.0  0.07891  0.34443  0.19073  1.0000
  H   H22       1.0  0.05783  0.32322  0.16027  1.0000
  H   H23       1.0  0.07552  0.29144  0.17019  1.0000
  H   H24       1.0  0.09728  0.32736  0.20658  1.0000
  H   H25       1.0  0.08014  0.35935  0.19635  1.0000
  C   C27       1.0  0.04441  0.45125  0.15041  1.0000
  H   H26       1.0  0.16164  0.27428  0.24298  1.0000
  H   H27       1.0  0.05997  0.44876  0.15374  1.0000
  H   H28       1.0  0.03971  0.42150  0.13927  1.0000
  C   C28       1.0  0.03931  0.43409  0.19654  1.0000
  H   H29       1.0  0.31984  0.23686  0.11976  1.0000
  C   C29       1.0  0.00447  0.19582  0.16369  1.0000
  C   C30       1.0  0.01613  0.47333  0.14949  1.0000
  S   S15       1.0  0.32356  0.19526  0.00233  1.0000
  C   C31       1.0  0.31777  0.23051  0.14673  1.0000
  N   N1        1.0  0.01463  0.26032  0.21643  1.0000
  C   C32       1.0  0.05633  0.18730  0.99817  1.0000
  H   H30       1.0  0.31970  0.23804  0.01275  1.0000
  H   H31       1.0  0.13327  0.22859  0.22375  1.0000
  H   H32       1.0  0.04957  0.26039  0.20551  1.0000
  S   S16       1.0  0.27429  0.02186  0.06926  1.0000
  N   N2        1.0  0.13377  0.26014  0.23259  1.0000
  H   H33       1.0  0.04085  0.48234  0.11190  1.0000
  H   H34       1.0  0.01334  0.38170  0.18941  1.0000
  C   C33       1.0  0.06912  0.28922  0.11993  1.0000
  H   H35       1.0  0.03597  0.40625  0.17463  1.0000
  S   S17       1.0  0.03154  0.32636  0.10224  1.0000
  C   C34       1.0  0.03299  0.43583  0.14215  1.0000
  Fe  Fe8       1.0  0.00798  0.17275  0.09073  1.0000
  C   C35       1.0  0.13921  0.23715  0.23346  1.0000
  S   S18       1.0  0.31746  0.04839  0.02510  1.0000
  H   H36       1.0  0.04048  0.37638  0.20707  1.0000
  C   C36       1.0  0.03621  0.18859  0.02652  1.0000
  H   H37       1.0  0.15323  0.13851  0.00312  1.0000
  H   H38       1.0  0.32874  0.12687  0.20467  1.0000
  H   H39       1.0  0.32884  0.12049  0.01144  1.0000
  H   H40       1.0  0.05380  0.40056  0.21498  1.0000
  C   C37       1.0  0.01496  0.28612  0.09227  1.0000
  H   H41       1.0  0.32889  0.16724  0.23345  1.0000
  H   H42       1.0  0.06131  0.16907  0.02187  1.0000
  H   H43       1.0  0.31960  0.22131  0.17289  1.0000
  C   C38       1.0  0.04733  0.39616  0.20408  1.0000
  H   H44       1.0  0.00902  0.29026  0.22550  1.0000
  N   N3        1.0  0.22469  0.22101  0.15494  1.0000
  C   C39       1.0  0.23491  0.20104  0.15415  1.0000
  C   C40       1.0  0.23498  0.24000  0.13867  1.0000
  C   C41       1.0  0.22966  0.23072  0.16926  1.0000
  C   C42       1.0  0.19927  0.21229  0.15773  1.0000
  H   H45       1.0  0.23157  0.19330  0.14345  1.0000
  H   H46       1.0  0.22761  0.18646  0.16629  1.0000
  H   H47       1.0  0.25409  0.20700  0.15212  1.0000
  H   H48       1.0  0.23159  0.23337  0.12753  1.0000
  H   H49       1.0  0.22778  0.25542  0.13891  1.0000
  H   H50       1.0  0.25419  0.24687  0.13624  1.0000
  H   H51       1.0  0.22166  0.24537  0.17059  1.0000
  H   H52       1.0  0.24861  0.23820  0.16733  1.0000
  H   H53       1.0  0.22301  0.21668  0.18165  1.0000
  H   H54       1.0  0.19086  0.22677  0.15870  1.0000
  H   H55       1.0  0.19098  0.19781  0.16987  1.0000
  H   H56       1.0  0.19477  0.20503  0.14711  1.0000
  N   N4        1.0  0.30843  0.08508  0.08003  1.0000
  H   H57       1.0  0.04526  0.43986  0.20725  1.0000
  S   S19       1.0  0.29482  0.24288  0.15114  1.0000
  S   S20       1.0  0.32799  0.32256  0.19410  1.0000
  H   H58       1.0  0.07043  0.27443  0.11388  1.0000
  S   S21       1.0  0.01049  0.21073  0.07872  1.0000
  Fe  Fe9       1.0  0.02085  0.34303  0.12347  1.0000
  C   C43       1.0  0.05211  0.18046  0.01607  1.0000
  S   S22       1.0  0.04083  0.37826  0.12598  1.0000
  H   H59       1.0  0.02784  0.23305  0.20827  1.0000
  C   C44       1.0  0.31740  0.21992  0.24546  1.0000
  H   H60       1.0  0.30279  0.06971  0.05935  1.0000
  H   H61       1.0  0.31494  0.12993  0.22520  1.0000
  H   H62       1.0  0.14031  0.29346  0.21381  1.0000
  C   C45       1.0  0.02231  0.28050  0.22366  1.0000
  S   S23       1.0  0.27814  0.28075  0.18158  1.0000
  H   H63       1.0  0.00784  0.22539  0.13308  1.0000
  H   H64       1.0  0.30626  0.10119  0.05483  1.0000
  C   C46       1.0  0.11072  0.30480  0.11419  1.0000
  N   N5        1.0  0.02938  0.40792  0.20085  1.0000
  Fe  Fe10      1.0  0.29066  0.24972  0.17711  1.0000
  C   C47       1.0  0.10836  0.25598  0.23623  1.0000
  C   C48       1.0  0.32740  0.23047  0.12986  1.0000
  Fe  Fe11      1.0  0.30839  0.02433  0.05166  1.0000
  H   H65       1.0  0.31755  0.14541  0.00641  1.0000
  H   H66       1.0  0.05453  0.44064  0.18504  1.0000
  H   H67       1.0  0.30860  0.04844  0.08663  1.0000
  S   S24       1.0  0.05070  0.48861  0.16479  1.0000
  H   H68       1.0  0.31450  0.06415  0.10224  1.0000
  Fe  Fe12      1.0  0.30508  0.28650  0.19603  1.0000
  H   H69       1.0  0.15825  0.23960  0.23102  1.0000
  H   H70       1.0  0.06985  0.33464  0.11790  1.0000
  H   H71       1.0  0.13069  0.22428  0.24628  1.0000
  H   H72       1.0  0.32257  0.16519  0.18998  1.0000
  H   H73       1.0  0.05258  0.29316  0.11886  1.0000
  H   H74       1.0  0.03603  0.24039  0.22654  1.0000
  N   N6        1.0  0.08932  0.31052  0.11163  1.0000
  H   H75       1.0  0.02132  0.16757  0.14681  1.0000
  H   H76       1.0  0.10644  0.33387  0.08634  1.0000
  H   H77       1.0  0.10933  0.29785  0.12806  1.0000
  H   H78       1.0  0.12666  0.16349  0.00797  1.0000
  H   H79       1.0  0.03334  0.18357  0.04028  1.0000
  C   C49       1.0  0.14247  0.27104  0.24538  1.0000
  C   C50       1.0  0.28328  0.07941  0.08813  1.0000
  C   C51       1.0  0.02518  0.18679  0.23368  1.0000
  H   H80       1.0  0.07560  0.32233  0.09055  1.0000
  H   H81       1.0  0.10072  0.34671  0.11317  1.0000
  H   H82       1.0  0.00825  0.41033  0.18312  1.0000
  H   H83       1.0  0.27585  0.09331  0.08225  1.0000
  H   H84       1.0  0.27356  0.06204  0.08663  1.0000
  H   H85       1.0  0.13882  0.28851  0.24497  1.0000
  H   H86       1.0  0.16433  0.28099  0.21241  1.0000
  C   C52       1.0  0.14509  0.27643  0.21524  1.0000
  H   H87       1.0  0.03723  0.49158  0.09085  1.0000
  H   H88       1.0  0.02527  0.27426  0.23644  1.0000
  S   S25       1.0  0.30805  0.20839  0.22937  1.0000
  C   C53       1.0  0.00952  0.40000  0.21634  1.0000
  S   S26       1.0  0.01591  0.32350  0.15075  1.0000
  C   C54       1.0  0.31225  0.08661  0.06153  1.0000
  Fe  Fe13      1.0  0.00585  0.38458  0.13286  1.0000
  H   H89       1.0  0.00763  0.20338  0.12126  1.0000
  C   C55       1.0  0.09139  0.31786  0.09303  1.0000
  H   H90       1.0  0.12616  0.32073  0.10880  1.0000
  H   H91       1.0  0.06770  0.28240  0.13379  1.0000
  C   C56       1.0  0.04862  0.49590  0.09930  1.0000
  C   C57       1.0  0.33180  0.13501  0.21526  1.0000
  H   H92       1.0  0.27967  0.07792  0.10213  1.0000
  C   C58       1.0  0.32546  0.17173  0.20126  1.0000
  H   H93       1.0  0.03049  0.21104  0.13133  1.0000
  C   C59       1.0  0.31741  0.06606  0.08822  1.0000
  S   S27       1.0  0.31993  0.25795  0.18922  1.0000
  H   H94       1.0  0.00511  0.25463  0.19368  1.0000
  C   C60       1.0  0.02131  0.40130  0.18639  1.0000
  H   H95       1.0  0.03871  0.29359  0.21507  1.0000
  H   H96       1.0  0.00512  0.15389  0.01460  1.0000
  C   C61       1.0  0.01355  0.29731  0.10562  1.0000
  H   H97       1.0  0.00108  0.21292  0.16502  1.0000
  H   H98       1.0  0.00921  0.48738  0.15270  1.0000
  H   H99       1.0  0.23403  0.01540  0.09562  1.0000
  H   H100      1.0  0.30826  0.16739  0.21072  1.0000
  C   C62       1.0  0.32936  0.22935  0.02025  1.0000
  H   H101      1.0  0.31457  0.12299  0.07615  1.0000
  H   H102      1.0  0.31850  0.10769  0.09599  1.0000
  C   C63       1.0  0.32746  0.22206  0.15978  1.0000
  H   H103      1.0  0.06251  0.40173  0.19257  1.0000
  H   H104      1.0  0.01493  0.40466  0.22756  1.0000
  H   H105      1.0  0.10364  0.27301  0.23538  1.0000
  C   C64       1.0  0.32263  0.13086  0.00147  1.0000
  C   C65       1.0  0.01157  0.20810  0.13291  1.0000
  Fe  Fe14      1.0  0.33208  0.02048  0.01641  1.0000
  H   H106      1.0  0.00070  0.25510  0.08416  1.0000
  H   H107      1.0  0.02328  0.19795  0.16261  1.0000
  C   C66       1.0  0.01329  0.43928  0.13730  1.0000
  S   S28       1.0  0.00257  0.21189  0.03180  1.0000
  C   C67       1.0  0.00281  0.16642  0.14754  1.0000
  C   C68       1.0  0.00487  0.45809  0.14096  1.0000
  C   C69       1.0  0.00014  0.26321  0.09472  1.0000
  H   H108      1.0  0.33209  0.19156  0.19691  1.0000
  H   H109      1.0  0.00123  0.14410  0.03728  1.0000
  H   H110      1.0  0.00160  0.38030  0.21992  1.0000
  H   H111      1.0  0.00013  0.12289  0.02472  1.0000
  H   H112      1.0  0.13427  0.25929  0.25864  1.0000
  H   H113      1.0  0.24115  0.34746  0.46164  1.0000
  C   C70       1.0  0.06021  0.29069  0.48247  1.0000
  Fe  Fe15      1.0  0.01433  0.32229  0.39735  1.0000
  H   H114      1.0  0.00992  0.31681  0.48782  1.0000
  H   H115      1.0  0.09253  0.46004  0.45652  1.0000
  H   H116      1.0  0.09917  0.24388  0.24924  1.0000
  C   C71       1.0  0.09983  0.44099  0.42026  1.0000
  Fe  Fe16      1.0  0.12364  0.36733  0.45155  1.0000
  H   H117      1.0  0.02274  0.30955  0.45284  1.0000
  H   H118      1.0  0.29241  0.16840  0.30133  1.0000
  H   H119      1.0  0.03133  0.45931  0.36625  1.0000
  N   N7        1.0  0.09858  0.43928  0.43856  1.0000
  C   C72       1.0  0.02873  0.35693  0.44861  1.0000
  S   S29       1.0  0.11330  0.37972  0.42743  1.0000
  S   S30       1.0  0.04128  0.46956  0.42189  1.0000
  H   H120      1.0  0.28933  0.13704  0.30856  1.0000
  C   C73       1.0  0.21186  0.37699  0.48507  1.0000
  S   S31       1.0  0.03201  0.30432  0.41499  1.0000
  C   C74       1.0  0.02014  0.26709  0.48800  1.0000
  H   H121      1.0  0.03705  0.42022  0.42356  1.0000
  H   H122      1.0  0.30553  0.25553  0.27140  1.0000
  H   H123      1.0  0.03239  0.37375  0.45262  1.0000
  S   S32       1.0  0.02665  0.41018  0.36782  1.0000
  H   H124      1.0  0.32149  0.14063  0.28303  1.0000
  S   S33       1.0  0.03173  0.34343  0.37007  1.0000
  S   S34       1.0  0.12984  0.33259  0.46288  1.0000
  H   H125      1.0  0.07876  0.41572  0.46322  1.0000
  C   C75       1.0  0.03693  0.45305  0.40692  1.0000
  C   C76       1.0  0.03515  0.46397  0.39079  1.0000
  C   C77       1.0  0.03237  0.45068  0.37882  1.0000
  C   C78       1.0  0.03095  0.42634  0.38300  1.0000
  C   C79       1.0  0.03254  0.41534  0.39920  1.0000
  C   C80       1.0  0.03565  0.42872  0.41111  1.0000
  C   C81       1.0  0.25088  0.38184  0.48902  1.0000
  H   H126      1.0  0.10327  0.42491  0.41666  1.0000
  H   H127      1.0  0.03852  0.32806  0.47355  1.0000
  H   H128      1.0  0.25729  0.31751  0.49614  1.0000
  C   C82       1.0  0.09133  0.35848  0.42364  1.0000
  C   C83       1.0  0.08538  0.33437  0.43243  1.0000
  C   C84       1.0  0.06765  0.31771  0.42927  1.0000
  C   C85       1.0  0.05534  0.32517  0.41776  1.0000
  C   C86       1.0  0.06115  0.34932  0.40907  1.0000
  C   C87       1.0  0.07928  0.36592  0.41188  1.0000
  H   H129      1.0  0.09475  0.32848  0.44139  1.0000
  H   H130      1.0  0.06358  0.29899  0.43565  1.0000
  H   H131      1.0  0.05188  0.35524  0.40004  1.0000
  H   H132      1.0  0.08389  0.38455  0.40498  1.0000
  C   C88       1.0  0.07986  0.41781  0.44934  1.0000
  H   H133      1.0  0.27169  0.36413  0.47495  1.0000
  H   H134      1.0  0.07670  0.46253  0.44052  1.0000
  H   H135      1.0  0.29431  0.15604  0.32252  1.0000
  H   H136      1.0  0.13553  0.45348  0.43405  1.0000
  C   C89       1.0  0.12097  0.43755  0.44186  1.0000
  H   H137      1.0  0.12539  0.42165  0.43867  1.0000
  H   H138      1.0  0.04526  0.27795  0.46346  1.0000
  C   C90       1.0  0.22939  0.38685  0.49233  1.0000
  C   C91       1.0  0.04219  0.27849  0.47668  1.0000
  H   H139      1.0  0.00032  0.31858  0.44476  1.0000
  C   C92       1.0  0.23776  0.35830  0.47033  1.0000
  H   H140      1.0  0.08300  0.40136  0.44625  1.0000
  S   S35       1.0  0.12557  0.41826  0.49154  1.0000
  H   H141      1.0  0.19514  0.38040  0.48808  1.0000
  H   H142      1.0  0.12054  0.43588  0.45562  1.0000
  C   C93       1.0  0.09354  0.46072  0.44282  1.0000
  H   H143      1.0  0.23375  0.31297  0.48627  1.0000
  S   S36       1.0  0.09890  0.36698  0.47562  1.0000
  C   C94       1.0  0.31436  0.24435  0.26548  1.0000
  S   S37       1.0  0.31474  0.35526  0.48453  1.0000
  C   C95       1.0  0.00689  0.31545  0.45635  1.0000
  C   C96       1.0  0.29895  0.15506  0.30897  1.0000
  H   H144      1.0  0.00046  0.22891  0.31957  1.0000
  S   S38       1.0  0.15472  0.39020  0.45656  1.0000
  C   C97       1.0  0.21592  0.36238  0.47424  1.0000
  Fe  Fe17      1.0  0.01347  0.37005  0.37693  1.0000
  H   H145      1.0  0.08329  0.44266  0.41730  1.0000
  Fe  Fe18      1.0  0.13030  0.38698  0.48168  1.0000
  H   H146      1.0  0.03185  0.39669  0.40241  1.0000
  Fe  Fe19      1.0  0.10747  0.33423  0.48755  1.0000
  S   S39       1.0  0.19373  0.34723  0.46650  1.0000
  H   H147      1.0  0.11398  0.45678  0.41171  1.0000
  Fe  Fe20      1.0  0.15911  0.35550  0.47015  1.0000
  H   H148      1.0  0.02228  0.36032  0.43695  1.0000
  H   H149      1.0  0.06270  0.41875  0.44733  1.0000
  H   H150      1.0  0.29067  0.23740  0.25004  1.0000
  H   H151      1.0  0.10723  0.47728  0.43483  1.0000
  H   H152      1.0  0.07719  0.29961  0.47366  1.0000
  C   C98       1.0  0.25507  0.36769  0.47787  1.0000
  H   H153      1.0  0.02517  0.34799  0.48270  1.0000
  C   C99       1.0  0.02178  0.33235  0.47731  1.0000
  H   H154      1.0  0.03628  0.48276  0.38743  1.0000
  H   H155      1.0  0.32797  0.14169  0.32644  1.0000
  N   N8        1.0  0.01185  0.33706  0.46255  1.0000
  C   C100      1.0  0.30606  0.23429  0.25324  1.0000
  S   S40       1.0  0.00074  0.31290  0.34057  1.0000
  H   H156      1.0  0.04552  0.35286  0.44471  1.0000
  H   H157      1.0  0.32977  0.19779  0.29640  1.0000
  C   C101      1.0  0.01538  0.18673  0.25062  1.0000
  H   H158      1.0  0.32426  0.12342  0.31183  1.0000
  H   H159      1.0  0.00723  0.19102  0.33327  1.0000
  N   N9        1.0  0.32429  0.15978  0.30226  1.0000
  H   H160      1.0  0.02629  0.18912  0.25921  1.0000
  H   H161      1.0  0.00719  0.24603  0.42548  1.0000
  Fe  Fe21      1.0  0.03605  0.50635  0.41558  1.0000
  H   H162      1.0  0.32346  0.17176  0.27610  1.0000
  H   H163      1.0  0.24326  0.28819  0.49516  1.0000
  C   C102      1.0  0.33226  0.14172  0.31267  1.0000
  C   C103      1.0  0.24014  0.30518  0.49712  1.0000
  C   C104      1.0  0.32971  0.15868  0.28420  1.0000
  S   S41       1.0  0.13699  0.35412  0.49586  1.0000
  S   S42       1.0  0.32909  0.29271  0.71515  1.0000
  C   C105      1.0  0.05729  0.47590  0.59716  1.0000
  N   N10       1.0  0.22339  0.30128  0.51382  1.0000
  H   H164      1.0  0.14999  0.39200  0.58275  1.0000
  H   H165      1.0  0.13583  0.35356  0.63526  1.0000
  H   H166      1.0  0.03793  0.43599  0.62613  1.0000
  C   C106      1.0  0.05144  0.49578  0.60117  1.0000
  C   C107      1.0  0.32397  0.24595  0.72964  1.0000
  Fe  Fe22      1.0  0.03886  0.37229  0.61969  1.0000
  C   C108      1.0  0.07008  0.42891  0.64225  1.0000
  C   C109      1.0  0.09519  0.49037  0.60194  1.0000
  S   S43       1.0  0.10729  0.38431  0.57159  1.0000
  H   H167      1.0  0.14942  0.39750  0.62676  1.0000
  Fe  Fe23      1.0  0.12479  0.31765  0.69056  1.0000
  S   S44       1.0  0.15308  0.30171  0.69639  1.0000
  S   S45       1.0  0.11404  0.31508  0.66628  1.0000
  Fe  Fe24      1.0  0.11946  0.33617  0.72209  1.0000
  H   H168      1.0  0.21487  0.33415  0.50675  1.0000
  Fe  Fe25      1.0  0.16749  0.33618  0.70236  1.0000
  S   S46       1.0  0.20586  0.35579  0.69352  1.0000
  Fe  Fe26      1.0  0.13096  0.28969  0.72363  1.0000
  H   H169      1.0  0.04479  0.30809  0.54085  1.0000
  S   S47       1.0  0.14068  0.35308  0.69475  1.0000
  S   S48       1.0  0.10123  0.30213  0.71734  1.0000
  H   H170      1.0  0.02149  0.42110  0.67377  1.0000
  H   H171      1.0  0.19382  0.29619  0.50345  1.0000
  H   H172      1.0  0.04886  0.21779  0.74192  1.0000
  H   H173      1.0  0.13131  0.33753  0.61959  1.0000
  H   H174      1.0  0.09964  0.43249  0.51866  1.0000
  H   H175      1.0  0.28356  0.23955  0.50363  1.0000
  S   S49       1.0  0.28677  0.34125  0.52598  1.0000
  S   S50       1.0  0.04860  0.40243  0.57178  1.0000
  H   H176      1.0  0.28456  0.29158  0.73782  1.0000
  H   H177      1.0  0.10955  0.37658  0.62642  1.0000
  C   C110      1.0  0.23235  0.28073  0.72859  1.0000
  C   C111      1.0  0.07921  0.47319  0.59757  1.0000
  H   H178      1.0  0.26226  0.30585  0.74263  1.0000
  H   H179      1.0  0.08310  0.43401  0.64939  1.0000
  H   H180      1.0  0.08562  0.33252  0.53345  1.0000
  C   C112      1.0  0.19495  0.38809  0.72947  1.0000
  H   H181      1.0  0.06776  0.40976  0.64257  1.0000
  C   C113      1.0  0.22291  0.35356  0.70815  1.0000
  C   C114      1.0  0.24649  0.36650  0.70276  1.0000
  C   C115      1.0  0.26017  0.36643  0.71442  1.0000
  H   H182      1.0  0.22777  0.29683  0.73113  1.0000
  H   H183      1.0  0.06669  0.35640  0.56041  1.0000
  C   C116      1.0  0.26303  0.26240  0.72183  1.0000
  H   H184      1.0  0.25411  0.37697  0.68957  1.0000
  H   H185      1.0  0.27824  0.37682  0.71021  1.0000
  H   H186      1.0  0.23896  0.33639  0.51598  1.0000
  C   C117      1.0  0.32736  0.25431  0.53029  1.0000
  S   S51       1.0  0.01197  0.38656  0.60973  1.0000
  Fe  Fe27      1.0  0.32162  0.35514  0.53045  1.0000
  C   C118      1.0  0.30726  0.22710  0.51662  1.0000
  C   C119      1.0  0.05775  0.34846  0.65326  1.0000
  C   C120      1.0  0.06796  0.33621  0.64261  1.0000
  C   C121      1.0  0.08478  0.32554  0.64700  1.0000
  C   C122      1.0  0.09187  0.32750  0.66185  1.0000
  C   C123      1.0  0.08172  0.33981  0.67250  1.0000
  C   C124      1.0  0.06452  0.35008  0.66828  1.0000
  H   H187      1.0  0.06254  0.33450  0.63118  1.0000
  H   H188      1.0  0.09220  0.31560  0.63893  1.0000
  H   H189      1.0  0.08704  0.34131  0.68401  1.0000
  Fe  Fe28      1.0  0.30458  0.35752  0.73653  1.0000
  C   C125      1.0  0.15019  0.37555  0.59189  1.0000
  C   C126      1.0  0.14224  0.35387  0.62156  1.0000
  H   H190      1.0  0.16834  0.37438  0.58918  1.0000
  H   H191      1.0  0.03459  0.49811  0.60098  1.0000
  H   H192      1.0  0.06039  0.38304  0.53592  1.0000
  C   C127      1.0  0.21320  0.34012  0.72524  1.0000
  C   C128      1.0  0.22672  0.34053  0.73700  1.0000
  C   C129      1.0  0.10849  0.42048  0.52420  1.0000
  C   C130      1.0  0.29999  0.26559  0.51520  1.0000
  S   S52       1.0  0.14789  0.32298  0.72992  1.0000
  H   H193      1.0  0.00966  0.48623  0.55006  1.0000
  S   S53       1.0  0.12729  0.25699  0.74431  1.0000
  C   C131      1.0  0.10432  0.41293  0.54206  1.0000
  C   C132      1.0  0.11507  0.39675  0.54932  1.0000
  C   C133      1.0  0.13124  0.38937  0.53864  1.0000
  C   C134      1.0  0.13540  0.39690  0.52076  1.0000
  H   H194      1.0  0.04062  0.32726  0.52282  1.0000
  H   H195      1.0  0.09287  0.41976  0.55016  1.0000
  H   H196      1.0  0.13994  0.37719  0.54416  1.0000
  H   H197      1.0  0.14769  0.39097  0.51255  1.0000
  H   H198      1.0  0.28205  0.26453  0.71906  1.0000
  C   C135      1.0  0.03438  0.27888  0.51112  1.0000
  H   H199      1.0  0.03131  0.27854  0.52455  1.0000
  H   H200      1.0  0.31770  0.28682  0.52923  1.0000
  S   S54       1.0  0.03653  0.45445  0.59225  1.0000
  H   H201      1.0  0.04999  0.37120  0.51977  1.0000
  H   H202      1.0  0.08404  0.45815  0.59419  1.0000
  H   H203      1.0  0.10568  0.36127  0.61020  1.0000
  H   H204      1.0  0.24877  0.29904  0.52798  1.0000
  H   H205      1.0  0.26406  0.30167  0.69831  1.0000
  S   S55       1.0  0.03658  0.36185  0.64796  1.0000
  Fe  Fe29      1.0  0.04200  0.41802  0.59409  1.0000
  H   H206      1.0  0.25731  0.25808  0.71064  1.0000
  Fe  Fe30      1.0  0.07221  0.38646  0.58462  1.0000
  C   C136      1.0  0.25022  0.35367  0.73162  1.0000
  C   C137      1.0  0.12347  0.41187  0.51356  1.0000
  S   S56       1.0  0.04476  0.35234  0.59959  1.0000
  C   C138      1.0  0.11701  0.37675  0.61290  1.0000
  Fe  Fe31      1.0  0.02045  0.36960  0.58815  1.0000
  C   C139      1.0  0.26983  0.30457  0.70980  1.0000
  H   H207      1.0  0.03686  0.33899  0.56571  1.0000
  H   H208      1.0  0.18722  0.28355  0.52618  1.0000
  H   H209      1.0  0.11224  0.48843  0.60203  1.0000
  S   S57       1.0  0.06824  0.40501  0.60548  1.0000
  C   C140      1.0  0.03108  0.42601  0.63987  1.0000
  H   H210      1.0  0.05054  0.42336  0.67560  1.0000
  H   H211      1.0  0.18695  0.37440  0.72345  1.0000
  S   S58       1.0  0.07842  0.30553  0.50752  1.0000
  C   C141      1.0  0.01625  0.26735  0.50522  1.0000
  H   H212      1.0  0.32872  0.16140  0.52013  1.0000
  H   H213      1.0  0.05655  0.35938  0.67664  1.0000
  H   H214      1.0  0.30419  0.21034  0.51321  1.0000
  H   H215      1.0  0.03078  0.36531  0.54078  1.0000
  H   H216      1.0  0.19521  0.32972  0.72947  1.0000
  H   H217      1.0  0.31905  0.20886  0.74137  1.0000
  H   H218      1.0  0.23327  0.27109  0.52583  1.0000
  S   S59       1.0  0.31890  0.35463  0.71009  1.0000
  H   H219      1.0  0.08783  0.24735  0.73005  1.0000
  H   H220      1.0  0.02166  0.32178  0.54386  1.0000
  C   C142      1.0  0.29553  0.24358  0.51127  1.0000
  C   C143      1.0  0.15570  0.39689  0.61325  1.0000
  Fe  Fe32      1.0  0.30480  0.32422  0.50777  1.0000
  H   H221      1.0  0.11569  0.39313  0.60436  1.0000
  N   N11       1.0  0.14129  0.37576  0.60990  1.0000
  H   H222      1.0  0.02732  0.40670  0.64046  1.0000
  N   N12       1.0  0.04781  0.43306  0.64972  1.0000
  H   H223      1.0  0.22610  0.39797  0.50083  1.0000
  H   H224      1.0  0.13928  0.36018  0.58880  1.0000
  H   H225      1.0  0.03538  0.39916  0.66864  1.0000
  H   H226      1.0  0.15531  0.41373  0.60469  1.0000
  S   S60       1.0  0.28792  0.28737  0.50621  1.0000
  H   H227      1.0  0.17415  0.39673  0.61110  1.0000
  H   H228      1.0  0.05965  0.32484  0.56272  1.0000
  H   H229      1.0  0.05859  0.46999  0.63547  1.0000
  H   H230      1.0  0.16026  0.35237  0.61964  1.0000
  H   H231      1.0  0.31997  0.16173  0.54209  1.0000
  H   H232      1.0  0.28898  0.30748  0.70665  1.0000
  N   N13       1.0  0.05583  0.34545  0.53946  1.0000
  C   C144      1.0  0.07982  0.34866  0.52959  1.0000
  C   C145      1.0  0.05470  0.34121  0.55790  1.0000
  C   C146      1.0  0.03997  0.32477  0.53664  1.0000
  C   C147      1.0  0.04893  0.36721  0.53371  1.0000
  H   H233      1.0  0.09219  0.36392  0.53155  1.0000
  H   H234      1.0  0.08146  0.35216  0.51559  1.0000
  S   S61       1.0  0.09917  0.35346  0.73914  1.0000
  Fe  Fe33      1.0  0.29858  0.37327  0.50320  1.0000
  H   H235      1.0  0.01427  0.42950  0.64481  1.0000
  N   N14       1.0  0.25768  0.28422  0.72506  1.0000
  H   H236      1.0  0.02306  0.48564  0.56743  1.0000
  Fe  Fe34      1.0  0.33276  0.32665  0.72313  1.0000
  H   H237      1.0  0.21251  0.38633  0.72983  1.0000
  H   H238      1.0  0.20100  0.26931  0.51151  1.0000
  H   H239      1.0  0.26653  0.32142  0.71194  1.0000
  C   C148      1.0  0.05631  0.29076  0.49975  1.0000
  S   S62       1.0  0.27184  0.39281  0.49939  1.0000
  C   C149      1.0  0.03839  0.41857  0.66775  1.0000
  C   C150      1.0  0.26558  0.28922  0.74000  1.0000
  H   H240      1.0  0.31905  0.24267  0.71833  1.0000
  H   H241      1.0  0.21921  0.28519  0.54050  1.0000
  C   C151      1.0  0.05167  0.45866  0.64895  1.0000
  H   H242      1.0  0.15858  0.40526  0.73720  1.0000
  C   C152      1.0  0.32367  0.23277  0.52571  1.0000
  H   H243      1.0  0.22258  0.26548  0.74000  1.0000
  C   C153      1.0  0.22170  0.32452  0.51663  1.0000
  H   H244      1.0  0.07767  0.43956  0.62864  1.0000
  C   C154      1.0  0.00927  0.49136  0.56229  1.0000
  H   H245      1.0  0.06443  0.46478  0.65605  1.0000
  H   H246      1.0  0.14837  0.37374  0.74010  1.0000
  C   C155      1.0  0.32408  0.22685  0.74264  1.0000
  H   H247      1.0  0.19740  0.40583  0.72071  1.0000
  S   S63       1.0  0.32918  0.34999  0.55629  1.0000
  C   C156      1.0  0.23140  0.28856  0.52768  1.0000
  H   H248      1.0  0.03527  0.46252  0.65451  1.0000
  H   H249      1.0  0.22580  0.27716  0.71751  1.0000
  C   C157      1.0  0.08322  0.23558  0.74283  1.0000
  H   H250      1.0  0.20984  0.32237  0.52935  1.0000
  H   H251      1.0  0.32301  0.11223  0.55818  1.0000
  S   S64       1.0  0.33211  0.38895  0.50940  1.0000
  H   H252      1.0  0.30876  0.13526  0.53577  1.0000
  C   C158      1.0  0.31519  0.27051  0.52530  1.0000
  H   H253      1.0  0.25433  0.24673  0.73315  1.0000
  C   C159      1.0  0.20033  0.28689  0.51378  1.0000
  C   C160      1.0  0.32995  0.26920  0.73136  1.0000
  C   C161      1.0  0.32452  0.15032  0.53358  1.0000
  N   N15       1.0  0.18032  0.38525  0.74681  1.0000
  S   S65       1.0  0.26659  0.35417  0.74669  1.0000
  H   H254      1.0  0.19371  0.42206  0.74623  1.0000
  C   C162      1.0  0.15728  0.38762  0.74559  1.0000
  H   H255      1.0  0.33158  0.01041  0.49882  1.0000
  H   H256      1.0  0.07207  0.29806  0.89587  1.0000
  C   C163      1.0  0.31160  0.04032  0.86382  1.0000
  H   H257      1.0  0.04070  0.47345  0.87406  1.0000
  C   C164      1.0  0.08772  0.47062  0.86478  1.0000
  C   C165      1.0  0.02870  0.46098  0.86926  1.0000
  H   H258      1.0  0.03904  0.30896  0.90931  1.0000
  C   C166      1.0  0.06362  0.28382  0.75856  1.0000
  H   H259      1.0  0.07182  0.28082  0.85089  1.0000
  H   H260      1.0  0.09633  0.49807  0.84118  1.0000
  S   S66       1.0  0.07583  0.17649  0.98528  1.0000
  S   S67       1.0  0.31595  0.32731  0.74957  1.0000
  C   C167      1.0  0.07967  0.26599  0.85393  1.0000
  H   H261      1.0  0.16460  0.29377  0.91065  1.0000
  C   C168      1.0  0.14518  0.16646  0.96563  1.0000
  H   H262      1.0  0.16853  0.44228  0.88592  1.0000
  S   S68       1.0  0.33179  0.19111  0.82114  1.0000
  S   S69       1.0  0.03050  0.19916  0.81833  1.0000
  H   H263      1.0  0.31613  0.14293  0.96997  1.0000
  H   H264      1.0  0.13702  0.12582  0.98979  1.0000
  S   S70       1.0  0.02728  0.18322  0.77454  1.0000
  C   C169      1.0  0.11814  0.32437  0.78049  1.0000
  H   H265      1.0  0.01499  0.44855  0.88061  1.0000
  H   H266      1.0  0.01604  0.50086  0.87044  1.0000
  H   H267      1.0  0.07968  0.27830  0.75890  1.0000
  Fe  Fe35      1.0  0.08145  0.38403  0.84098  1.0000
  S   S71       1.0  0.11900  0.38500  0.83578  1.0000
  S   S72       1.0  0.07345  0.41867  0.83212  1.0000
  Fe  Fe36      1.0  0.06464  0.33111  0.85868  1.0000
  S   S73       1.0  0.10074  0.32791  0.85569  1.0000
  Fe  Fe37      1.0  0.10867  0.36238  0.86285  1.0000
  S   S74       1.0  0.13048  0.37299  0.88018  1.0000
  Fe  Fe38      1.0  0.10755  0.35056  0.82902  1.0000
  S   S75       1.0  0.12697  0.33771  0.80850  1.0000
  S   S76       1.0  0.07176  0.36350  0.86864  1.0000
  S   S77       1.0  0.07087  0.35158  0.83141  1.0000
  Fe  Fe39      1.0  0.09386  0.20152  0.95901  1.0000
  S   S78       1.0  0.12834  0.22654  0.95651  1.0000
  Fe  Fe40      1.0  0.09618  0.21960  0.92113  1.0000
  S   S79       1.0  0.13157  0.24572  0.91544  1.0000
  S   S80       1.0  0.07355  0.22344  0.90272  1.0000
  Fe  Fe41      1.0  0.14032  0.21641  0.93236  1.0000
  S   S81       1.0  0.17563  0.20966  0.92642  1.0000
  Fe  Fe42      1.0  0.11725  0.25382  0.94001  1.0000
  S   S82       1.0  0.12534  0.29069  0.94349  1.0000
  S   S83       1.0  0.10624  0.18907  0.93578  1.0000
  S   S84       1.0  0.08150  0.22999  0.94488  1.0000
  H   H268      1.0  0.16464  0.41892  0.87515  1.0000
  C   C170      1.0  0.06125  0.21872  0.74951  1.0000
  S   S85       1.0  0.30896  0.25413  0.97724  1.0000
  C   C171      1.0  0.09352  0.22093  0.76890  1.0000
  H   H269      1.0  0.06698  0.25211  0.86510  1.0000
  H   H270      1.0  0.21902  0.33045  0.75028  1.0000
  H   H271      1.0  0.32712  0.30793  0.85195  1.0000
  Fe  Fe43      1.0  0.28579  0.24071  0.96117  1.0000
  S   S86       1.0  0.25019  0.24676  0.96518  1.0000
  S   S87       1.0  0.29148  0.20432  0.96595  1.0000
  H   H272      1.0  0.05133  0.23188  0.84504  1.0000
  H   H273      1.0  0.30705  0.23217  0.91085  1.0000
  C   C172      1.0  0.32461  0.07834  0.86984  1.0000
  N   N16       1.0  0.32606  0.06535  0.85642  1.0000
  C   C173      1.0  0.12578  0.16538  0.99447  1.0000
  C   C174      1.0  0.00582  0.25731  0.83714  1.0000
  H   H274      1.0  0.18083  0.40210  0.76738  1.0000
  C   C175      1.0  0.15634  0.43172  0.88018  1.0000
  H   H275      1.0  0.02888  0.31381  0.83933  1.0000
  Fe  Fe44      1.0  0.01403  0.17681  0.80308  1.0000
  C   C176      1.0  0.06381  0.27906  0.90322  1.0000
  C   C177      1.0  0.19640  0.21979  0.93725  1.0000
  C   C178      1.0  0.19186  0.23288  0.94908  1.0000
  C   C179      1.0  0.20849  0.24087  0.95754  1.0000
  C   C180      1.0  0.22999  0.23602  0.95420  1.0000
  C   C181      1.0  0.23471  0.22296  0.94231  1.0000
  C   C182      1.0  0.21792  0.21486  0.93388  1.0000
  H   H276      1.0  0.17557  0.23698  0.95174  1.0000
  H   H277      1.0  0.20473  0.25090  0.96676  1.0000
  H   H278      1.0  0.25127  0.21914  0.93961  1.0000
  H   H279      1.0  0.22170  0.20483  0.92466  1.0000
  C   C183      1.0  0.11553  0.33994  0.79076  1.0000
  C   C184      1.0  0.10495  0.35778  0.78626  1.0000
  C   C185      1.0  0.09850  0.36106  0.77080  1.0000
  S   S88       1.0  0.00331  0.14247  0.82385  1.0000
  H   H280      1.0  0.29902  0.07611  0.84684  1.0000
  H   H281      1.0  0.01675  0.24722  0.87631  1.0000
  H   H282      1.0  0.10280  0.36981  0.79423  1.0000
  H   H283      1.0  0.09150  0.37568  0.76683  1.0000
  H   H284      1.0  0.04810  0.48118  0.83528  1.0000
  H   H285      1.0  0.14230  0.18380  0.96029  1.0000
  C   C186      1.0  0.12849  0.34964  0.89765  1.0000
  C   C187      1.0  0.13484  0.35516  0.91196  1.0000
  C   C188      1.0  0.13338  0.33688  0.92612  1.0000
  C   C189      1.0  0.12599  0.31304  0.92589  1.0000
  C   C190      1.0  0.11999  0.30744  0.91147  1.0000
  C   C191      1.0  0.12101  0.32577  0.89740  1.0000
  H   H286      1.0  0.14064  0.37358  0.91220  1.0000
  H   H287      1.0  0.13810  0.34123  0.93725  1.0000
  H   H288      1.0  0.11459  0.28905  0.91116  1.0000
  H   H289      1.0  0.11653  0.32144  0.88625  1.0000
  C   C192      1.0  0.04873  0.17428  0.87017  1.0000
  C   C193      1.0  0.03763  0.19135  0.87371  1.0000
  C   C194      1.0  0.04486  0.20552  0.88433  1.0000
  C   C195      1.0  0.06331  0.20292  0.89142  1.0000
  C   C196      1.0  0.07410  0.18550  0.88822  1.0000
  C   C197      1.0  0.06678  0.17121  0.87764  1.0000
  H   H290      1.0  0.02346  0.19359  0.86827  1.0000
  H   H291      1.0  0.03619  0.21869  0.88697  1.0000
  H   H292      1.0  0.08835  0.18334  0.89358  1.0000
  H   H293      1.0  0.07536  0.15794  0.87503  1.0000
  H   H294      1.0  0.04694  0.24058  0.92970  1.0000
  C   C198      1.0  0.07138  0.20449  0.77574  1.0000
  H   H295      1.0  0.11269  0.31484  0.75772  1.0000
  C   C199      1.0  0.02434  0.28198  0.85894  1.0000
  H   H296      1.0  0.06693  0.19245  0.78842  1.0000
  H   H297      1.0  0.06971  0.30595  0.92510  1.0000
  C   C200      1.0  0.04443  0.20211  0.99079  1.0000
  N   N17       1.0  0.14741  0.16412  0.98332  1.0000
  H   H298      1.0  0.03877  0.45021  0.86321  1.0000
  H   H299      1.0  0.01358  0.44646  0.84388  1.0000
  C   C201      1.0  0.00716  0.24463  0.85295  1.0000
  H   H300      1.0  0.07787  0.27094  0.90533  1.0000
  H   H301      1.0  0.05513  0.26047  0.83100  1.0000
  H   H302      1.0  0.31151  0.30265  0.82728  1.0000
  H   H303      1.0  0.31256  0.03001  0.85402  1.0000
  H   H304      1.0  0.05511  0.26974  0.89491  1.0000
  H   H305      1.0  0.32295  0.27785  0.82608  1.0000
  H   H306      1.0  0.14059  0.42079  0.89070  1.0000
  H   H307      1.0  0.09535  0.27298  0.85815  1.0000
  C   C202      1.0  0.02555  0.28287  0.77452  1.0000
  N   N18       1.0  0.04648  0.27509  0.77555  1.0000
  H   H308      1.0  0.04721  0.20709  0.97706  1.0000
  Fe  Fe45      1.0  0.32107  0.22104  0.94220  1.0000
  C   C203      1.0  0.10250  0.34637  0.75999  1.0000
  C   C204      1.0  0.16711  0.18372  0.98338  1.0000
  H   H309      1.0  0.00094  0.22534  0.85681  1.0000
  H   H310      1.0  0.16783  0.13958  0.98162  1.0000
  S   S89       1.0  0.04092  0.15702  0.85616  1.0000
  H   H311      1.0  0.04968  0.50357  0.84686  1.0000
  C   C205      1.0  0.08616  0.46309  0.83721  1.0000
  C   C206      1.0  0.07931  0.43846  0.84473  1.0000
  C   C207      1.0  0.07677  0.42994  0.86228  1.0000
  C   C208      1.0  0.08097  0.44598  0.87228  1.0000
  C   C209      1.0  0.04001  0.24877  0.78095  1.0000
  H   H312      1.0  0.08833  0.46977  0.82359  1.0000
  H   H313      1.0  0.07111  0.41100  0.86825  1.0000
  H   H314      1.0  0.07868  0.43925  0.88590  1.0000
  C   C210      1.0  0.31222  0.23372  0.88405  1.0000
  N   N19       1.0  0.01871  0.47407  0.85694  1.0000
  N   N20       1.0  0.04718  0.27677  0.91963  1.0000
  C   C211      1.0  0.03022  0.28992  0.91639  1.0000
  C   C212      1.0  0.02319  0.29456  0.84307  1.0000
  C   C213      1.0  0.03469  0.25128  0.92782  1.0000
  S   S90       1.0  0.32166  0.01706  0.81906  1.0000
  S   S91       1.0  0.03633  0.29714  0.87255  1.0000
  H   H315      1.0  0.22752  0.32452  0.90206  1.0000
  H   H316      1.0  0.01726  0.27568  0.76517  1.0000
  H   H317      1.0  0.01959  0.28212  0.90843  1.0000
  H   H318      1.0  0.04805  0.28540  0.94358  1.0000
  H   H319      1.0  0.19465  0.35903  0.75915  1.0000
  C   C214      1.0  0.11116  0.32729  0.76533  1.0000
  C   C215      1.0  0.09050  0.47915  0.84719  1.0000
  H   H320      1.0  0.02985  0.30268  0.77038  1.0000
  C   C216      1.0  0.05672  0.28482  0.78822  1.0000
  C   C217      1.0  0.33055  0.23098  0.75727  1.0000
  C   C218      1.0  0.01367  0.28227  0.83229  1.0000
  N   N21       1.0  0.19618  0.29861  0.91853  1.0000
  C   C219      1.0  0.18371  0.29038  0.93698  1.0000
  C   C220      1.0  0.21768  0.31783  0.91585  1.0000
  C   C221      1.0  0.18114  0.30776  0.90865  1.0000
  C   C222      1.0  0.20216  0.27847  0.91269  1.0000
  H   H321      1.0  0.19477  0.28409  0.94493  1.0000
  H   H322      1.0  0.02656  0.24144  0.79345  1.0000
  H   H323      1.0  0.17803  0.30484  0.94168  1.0000
  C   C223      1.0  0.31538  0.22620  0.90040  1.0000
  H   H324      1.0  0.21378  0.33324  0.92023  1.0000
  H   H325      1.0  0.30644  0.07834  0.87524  1.0000
  H   H326      1.0  0.18638  0.26333  0.91495  1.0000
  H   H327      1.0  0.17635  0.32303  0.91269  1.0000
  H   H328      1.0  0.05654  0.27662  0.74872  1.0000
  H   H329      1.0  0.21395  0.27147  0.91959  1.0000
  H   H330      1.0  0.21106  0.28382  0.89873  1.0000
  H   H331      1.0  0.31751  0.03108  0.87448  1.0000
  H   H332      1.0  0.16654  0.35873  0.77116  1.0000
  H   H333      1.0  0.01803  0.28941  0.92855  1.0000
  H   H334      1.0  0.18359  0.18423  0.97436  1.0000
  S   S92       1.0  0.09286  0.49017  0.87769  1.0000
  H   H335      1.0  0.18976  0.31391  0.89464  1.0000
  C   C224      1.0  0.32869  0.21047  0.90325  1.0000
  S   S93       1.0  0.31367  0.25644  0.93616  1.0000
  C   C225      1.0  0.31761  0.07687  0.84236  1.0000
  H   H336      1.0  0.16116  0.16563  0.95677  1.0000
  Fe  Fe46      1.0  0.31680  0.21893  0.97995  1.0000
  H   H337      1.0  0.07286  0.27977  0.78904  1.0000
  H   H338      1.0  0.02446  0.24344  0.91964  1.0000
  C   C226      1.0  0.01612  0.25701  0.86395  1.0000
  H   H339      1.0  0.16393  0.20135  0.97940  1.0000
  H   H340      1.0  0.10610  0.22153  0.77633  1.0000
  H   H341      1.0  0.01231  0.27656  0.78721  1.0000
  H   H342      1.0  0.03279  0.24076  0.77148  1.0000
  H   H343      1.0  0.22941  0.31143  0.92314  1.0000
  C   C227      1.0  0.05526  0.20327  0.76601  1.0000
  C   C228      1.0  0.00362  0.45695  0.85047  1.0000
  H   H344      1.0  0.06134  0.30468  0.78472  1.0000
  C   C229      1.0  0.32230  0.22545  0.87052  1.0000
  C   C230      1.0  0.05996  0.28678  0.93105  1.0000
  Fe  Fe47      1.0  0.01671  0.16588  0.84012  1.0000
  H   H345      1.0  0.31935  0.06816  0.83164  1.0000
  H   H346      1.0  0.12591  0.31025  0.78410  1.0000
  H   H347      1.0  0.17998  0.44872  0.84688  1.0000
  C   C231      1.0  0.03766  0.49076  0.84239  1.0000
  H   H348      1.0  0.05526  0.24233  0.78239  1.0000
  H   H349      1.0  0.16775  0.27539  0.93954  1.0000
  H   H350      1.0  0.13024  0.15223  0.96508  1.0000
  H   H351      1.0  0.07286  0.27724  0.93384  1.0000
  H   H352      1.0  0.30173  0.24572  0.88194  1.0000
  N   N22       1.0  0.15022  0.44724  0.86652  1.0000
  C   C232      1.0  0.17140  0.46086  0.85258  1.0000
  C   C233      1.0  0.13945  0.46402  0.87370  1.0000
  C   C234      1.0  0.13369  0.43235  0.85959  1.0000
  H   H353      1.0  0.18423  0.47240  0.85732  1.0000
  H   H354      1.0  0.16725  0.47264  0.84205  1.0000
  H   H355      1.0  0.12311  0.45443  0.88401  1.0000
  H   H356      1.0  0.15123  0.47533  0.87930  1.0000
  H   H357      1.0  0.13496  0.47628  0.86367  1.0000
  H   H358      1.0  0.11783  0.42115  0.86987  1.0000
  H   H359      1.0  0.14147  0.41985  0.85374  1.0000
  H   H360      1.0  0.12806  0.44341  0.84959  1.0000
  N   N23       1.0  0.08542  0.25636  0.83900  1.0000
  C   C235      1.0  0.09641  0.23724  0.84341  1.0000
  C   C236      1.0  0.10158  0.27573  0.82435  1.0000
  C   C237      1.0  0.06396  0.24655  0.83428  1.0000
  H   H361      1.0  0.10085  0.22941  0.83248  1.0000
  H   H362      1.0  0.11261  0.24393  0.84712  1.0000
  H   H363      1.0  0.08462  0.22237  0.85440  1.0000
  H   H364      1.0  0.10669  0.26913  0.81289  1.0000
  H   H365      1.0  0.11777  0.28405  0.82755  1.0000
  H   H366      1.0  0.09360  0.29025  0.82057  1.0000
  H   H367      1.0  0.06764  0.23909  0.82308  1.0000
  H   H368      1.0  0.01890  0.22110  0.99544  1.0000
  S   S94       1.0  0.31869  0.23559  0.85007  1.0000
  H   H369      1.0  0.04433  0.27807  0.80125  1.0000
  H   H370      1.0  0.32607  0.11920  0.79786  1.0000
  C   C238      1.0  0.32721  0.29762  0.82178  1.0000
  H   H371      1.0  0.20893  0.40254  0.75528  1.0000
  H   H372      1.0  0.03084  0.50156  0.83307  1.0000
  H   H373      1.0  0.11039  0.15117  0.99451  1.0000
  C   C239      1.0  0.09946  0.23656  0.75247  1.0000
  H   H374      1.0  0.02259  0.24865  0.94054  1.0000
  H   H375      1.0  0.29302  0.03910  0.86898  1.0000
  H   H376      1.0  0.12224  0.18275  0.99000  1.0000
  H   H377      1.0  0.01236  0.29215  0.82018  1.0000
  S   S95       1.0  0.33082  0.20663  0.77313  1.0000
  H   H378      1.0  0.17002  0.18197  0.99637  1.0000
  H   H379      1.0  0.32698  0.16941  0.97624  1.0000
  H   H380      1.0  0.33049  0.30260  0.80755  1.0000
  H   H381      1.0  0.06882  0.30365  0.75395  1.0000
  H   H382      1.0  0.33096  0.07015  0.88062  1.0000
  H   H383      1.0  0.16916  0.34694  0.75282  1.0000
  C   C240      1.0  0.15156  0.14096  0.98976  1.0000
  C   C241      1.0  0.00497  0.48761  0.86561  1.0000
  C   C242      1.0  0.17757  0.36146  0.75797  1.0000
  C   C243      1.0  0.33186  0.15424  0.97208  1.0000
  H   H384      1.0  0.14578  0.38566  0.75842  1.0000
  C   C244      1.0  0.19145  0.40385  0.75425  1.0000
  H   H385      1.0  0.25660  0.27444  0.75184  1.0000
  H   H386      1.0  0.32765  0.09598  0.83698  1.0000
  H   H387      1.0  0.33110  0.16760  0.75421  1.0000
  S   S96       1.0  0.32816  0.01198  0.99154  1.0000
  H   H388      1.0  0.33162  0.10813  0.97715  1.0000
  H   H389      1.0  0.06747  0.64164  0.18494  1.0000
  Fe  Fe48      1.0  0.12606  0.76805  0.16123  1.0000
  S   S97       1.0  0.08967  0.75386  0.17878  1.0000
  S   S98       1.0  0.14818  0.80672  0.15363  1.0000
  Fe  Fe49      1.0  0.12212  0.72270  0.14937  1.0000
  S   S99       1.0  0.08585  0.70499  0.16569  1.0000
  S   S100      1.0  0.13725  0.70274  0.13216  1.0000
  Fe  Fe50      1.0  0.07998  0.74047  0.15692  1.0000
  S   S101      1.0  0.04733  0.74218  0.14897  1.0000
  Fe  Fe51      1.0  0.09884  0.71944  0.18591  1.0000
  C   C245      1.0  0.06205  0.61531  0.21681  1.0000
  S   S102      1.0  0.11537  0.75710  0.13889  1.0000
  S   S103      1.0  0.13603  0.73468  0.17010  1.0000
  H   H390      1.0  0.04201  0.66514  0.09871  1.0000
  S   S104      1.0  0.04066  0.54264  0.18347  1.0000
  C   C246      1.0  0.24534  0.00688  0.10137  1.0000
  H   H391      1.0  0.00969  0.72953  0.13382  1.0000
  S   S105      1.0  0.07836  0.55633  0.14566  1.0000
  C   C247      1.0  0.03705  0.61374  0.08802  1.0000
  Fe  Fe52      1.0  0.04717  0.52592  0.16156  1.0000
  H   H392      1.0  0.00873  0.72700  0.10433  1.0000
  Fe  Fe53      1.0  0.06955  0.57425  0.16637  1.0000
  S   S106      1.0  0.09446  0.59617  0.17738  1.0000
  Fe  Fe54      1.0  0.01421  0.71321  0.06903  1.0000
  S   S107      1.0  0.04635  0.59170  0.15424  1.0000
  H   H393      1.0  0.32428  0.91272  0.10298  1.0000
  C   C248      1.0  0.30530  0.00109  0.20967  1.0000
  C   C249      1.0  0.25462  0.87091  0.22240  1.0000
  Fe  Fe55      1.0  0.30016  0.92331  0.15176  1.0000
  S   S108      1.0  0.29629  0.95452  0.16196  1.0000
  C   C250      1.0  0.21342  0.86449  0.22640  1.0000
  Fe  Fe56      1.0  0.25272  0.89041  0.17389  1.0000
  S   S109      1.0  0.24514  0.91931  0.18579  1.0000
  S   S110      1.0  0.22901  0.85227  0.18486  1.0000
  Fe  Fe57      1.0  0.26024  0.94338  0.15900  1.0000
  S   S111      1.0  0.24249  0.96962  0.14862  1.0000
  Fe  Fe58      1.0  0.28199  0.92766  0.18762  1.0000
  H   H394      1.0  0.02904  0.54129  0.10964  1.0000
  S   S112      1.0  0.26496  0.91394  0.14684  1.0000
  S   S113      1.0  0.28878  0.89708  0.17748  1.0000
  H   H395      1.0  0.05082  0.74645  0.99844  1.0000
  H   H396      1.0  0.00923  0.62358  0.21638  1.0000
  H   H397      1.0  0.08380  0.68073  0.00556  1.0000
  C   C251      1.0  0.27408  0.98431  0.11648  1.0000
  C   C252      1.0  0.25249  0.98394  0.12653  1.0000
  S   S114      1.0  0.02179  0.53929  0.14914  1.0000
  H   H398      1.0  0.06599  0.69127  0.09464  1.0000
  N   N24       1.0  0.04351  0.61962  0.20878  1.0000
  C   C253      1.0  0.06527  0.52465  0.11327  1.0000
  H   H399      1.0  0.02857  0.58241  0.21130  1.0000
  H   H400      1.0  0.10713  0.75718  0.00982  1.0000
  S   S115      1.0  0.09194  0.69315  0.21145  1.0000
  H   H401      1.0  0.28029  0.93067  0.08244  1.0000
  C   C254      1.0  0.03546  0.59980  0.20133  1.0000
  H   H402      1.0  0.01935  0.63378  0.07337  1.0000
  C   C255      1.0  0.03758  0.64971  0.13254  1.0000
  C   C256      1.0  0.01830  0.62247  0.08567  1.0000
  C   C257      1.0  0.06469  0.68673  0.22605  1.0000
  S   S116      1.0  0.00894  0.69871  0.01171  1.0000
  C   C258      1.0  0.07237  0.68803  0.99909  1.0000
  C   C259      1.0  0.02381  0.62104  0.22189  1.0000
  H   H403      1.0  0.25848  0.88396  0.20981  1.0000
  C   C260      1.0  0.03557  0.59872  0.10385  1.0000
  C   C261      1.0  0.29898  0.96640  0.00730  1.0000
  H   H404      1.0  0.27985  0.94498  0.09958  1.0000
  S   S117      1.0  0.05936  0.58874  0.10707  1.0000
  C   C262      1.0  0.32144  0.98348  0.23167  1.0000
  H   H405      1.0  0.02841  0.63549  0.12744  1.0000
  H   H406      1.0  0.30151  0.96949  0.01928  1.0000
  H   H407      1.0  0.27771  0.93001  0.01885  1.0000
  S   S118      1.0  0.02039  0.68239  0.05903  1.0000
  N   N25       1.0  0.05829  0.66627  0.11934  1.0000
  C   C263      1.0  0.23835  0.99549  0.11893  1.0000
  C   C264      1.0  0.04705  0.74005  0.12802  1.0000
  C   C265      1.0  0.06775  0.74515  0.11523  1.0000
  C   C266      1.0  0.06719  0.74412  0.09850  1.0000
  C   C267      1.0  0.04594  0.73752  0.09449  1.0000
  H   H408      1.0  0.08422  0.75034  0.11809  1.0000
  H   H409      1.0  0.08329  0.74845  0.08862  1.0000
  C   C268      1.0  0.12697  0.67282  0.14426  1.0000
  C   C269      1.0  0.12414  0.66735  0.16199  1.0000
  C   C270      1.0  0.11490  0.64366  0.17195  1.0000
  C   C271      1.0  0.10745  0.62544  0.16437  1.0000
  C   C272      1.0  0.11000  0.63087  0.14665  1.0000
  C   C273      1.0  0.12022  0.65453  0.13653  1.0000
  H   H410      1.0  0.12928  0.68137  0.16806  1.0000
  H   H411      1.0  0.11315  0.63955  0.18561  1.0000
  H   H412      1.0  0.10448  0.61678  0.14072  1.0000
  H   H413      1.0  0.12251  0.65872  0.12281  1.0000
  C   C274      1.0  0.17079  0.81877  0.16240  1.0000
  C   C275      1.0  0.17572  0.80526  0.17639  1.0000
  C   C276      1.0  0.19371  0.81572  0.18304  1.0000
  C   C277      1.0  0.20692  0.83971  0.17579  1.0000
  C   C278      1.0  0.20211  0.85312  0.16171  1.0000
  C   C279      1.0  0.18412  0.84268  0.15507  1.0000
  H   H414      1.0  0.16549  0.78689  0.18224  1.0000
  H   H415      1.0  0.19728  0.80523  0.19397  1.0000
  H   H416      1.0  0.21210  0.87161  0.15604  1.0000
  H   H417      1.0  0.18045  0.85330  0.14426  1.0000
  H   H418      1.0  0.06605  0.63981  0.10679  1.0000
  C   C280      1.0  0.01532  0.59229  0.11726  1.0000
  Fe  Fe59      1.0  0.00058  0.69351  0.04034  1.0000
  H   H419      1.0  0.08018  0.53662  0.07897  1.0000
  N   N26       1.0  0.23295  0.87124  0.23399  1.0000
  S   S119      1.0  0.04603  0.73640  0.07334  1.0000
  H   H420      1.0  0.29785  0.91660  0.11424  1.0000
  H   H421      1.0  0.01660  0.52000  0.09920  1.0000
  H   H422      1.0  0.21140  0.84645  0.22416  1.0000
  C   C281      1.0  0.06363  0.73091  0.02696  1.0000
  C   C282      1.0  0.04984  0.70085  0.22349  1.0000
  C   C283      1.0  0.06909  0.75480  0.99833  1.0000
  H   H423      1.0  0.06109  0.78788  0.01505  1.0000
  H   H424      1.0  0.04447  0.67900  0.02221  1.0000
  H   H425      1.0  0.02493  0.65921  0.13709  1.0000
  H   H426      1.0  0.33077  0.95665  0.06232  1.0000
  C   C284      1.0  0.26670  0.00716  0.09124  1.0000
  C   C285      1.0  0.05018  0.68707  0.00852  1.0000
  C   C286      1.0  0.02839  0.69568  0.23561  1.0000
  C   C287      1.0  0.05094  0.67824  0.10477  1.0000
  C   C288      1.0  0.03560  0.69688  0.00020  1.0000
  H   H427      1.0  0.05557  0.59864  0.22749  1.0000
  H   H428      1.0  0.31647  0.95969  0.10769  1.0000
  Fe  Fe60      1.0  0.05239  0.57100  0.13499  1.0000
  S   S120      1.0  0.31977  0.99495  0.04266  1.0000
  H   H429      1.0  0.05226  0.53504  0.07491  1.0000
  H   H430      1.0  0.28521  0.97574  0.12241  1.0000
  H   H431      1.0  0.28935  0.97737  0.19619  1.0000
  C   C289      1.0  0.30235  0.95883  0.21550  1.0000
  C   C290      1.0  0.07038  0.68428  0.12683  1.0000
  H   H432      1.0  0.02904  0.63625  0.22741  1.0000
  C   C291      1.0  0.29835  0.97896  0.20603  1.0000
  C   C292      1.0  0.31400  0.96118  0.22829  1.0000
  H   H433      1.0  0.05683  0.51233  0.12632  1.0000
  C   C293      1.0  0.02781  0.52304  0.10798  1.0000
  N   N27       1.0  0.08579  0.82304  0.15159  1.0000
  C   C294      1.0  0.06337  0.82769  0.15087  1.0000
  C   C295      1.0  0.08548  0.81377  0.16968  1.0000
  C   C296      1.0  0.10495  0.84537  0.14372  1.0000
  C   C297      1.0  0.08940  0.80520  0.14210  1.0000
  H   H434      1.0  0.06305  0.83484  0.13739  1.0000
  H   H435      1.0  0.05986  0.84086  0.15807  1.0000
  H   H436      1.0  0.04867  0.81100  0.15651  1.0000
  H   H437      1.0  0.10209  0.80981  0.17067  1.0000
  H   H438      1.0  0.08304  0.82686  0.17721  1.0000
  H   H439      1.0  0.07117  0.79696  0.17606  1.0000
  H   H440      1.0  0.12207  0.84234  0.14424  1.0000
  H   H441      1.0  0.10278  0.85932  0.15050  1.0000
  H   H442      1.0  0.10594  0.85272  0.12999  1.0000
  H   H443      1.0  0.10647  0.80182  0.14196  1.0000
  H   H444      1.0  0.08903  0.81118  0.12852  1.0000
  H   H445      1.0  0.07571  0.78785  0.14802  1.0000
  C   C298      1.0  0.02578  0.73343  0.12401  1.0000
  C   C299      1.0  0.23538  0.89551  0.23631  1.0000
  S   S121      1.0  0.29229  0.93041  0.21212  1.0000
  H   H446      1.0  0.03917  0.64632  0.18889  1.0000
  H   H447      1.0  0.04980  0.59815  0.19141  1.0000
  C   C300      1.0  0.02520  0.73193  0.10733  1.0000
  N   N28       1.0  0.07095  0.75549  0.01579  1.0000
  H   H448      1.0  0.22173  0.99533  0.12664  1.0000
  H   H449      1.0  0.09051  0.66483  0.10391  1.0000
  H   H450      1.0  0.07686  0.67586  0.13747  1.0000
  N   N29       1.0  0.19939  0.76856  0.13268  1.0000
  C   C301      1.0  0.20186  0.77288  0.14929  1.0000
  C   C302      1.0  0.19216  0.74258  0.13444  1.0000
  C   C303      1.0  0.22186  0.77966  0.11953  1.0000
  C   C304      1.0  0.18168  0.77920  0.12741  1.0000
  H   H451      1.0  0.20720  0.79233  0.14841  1.0000
  H   H452      1.0  0.21503  0.76506  0.15375  1.0000
  H   H453      1.0  0.18517  0.76491  0.15949  1.0000
  H   H454      1.0  0.18966  0.73863  0.12223  1.0000
  H   H455      1.0  0.20516  0.73389  0.13826  1.0000
  H   H456      1.0  0.17533  0.73350  0.14431  1.0000
  H   H457      1.0  0.23567  0.77208  0.12310  1.0000
  H   H458      1.0  0.22778  0.79928  0.11786  1.0000
  H   H459      1.0  0.22059  0.77676  0.10683  1.0000
  H   H460      1.0  0.17906  0.77610  0.11504  1.0000
  H   H461      1.0  0.18648  0.79880  0.12599  1.0000
  H   H462      1.0  0.16464  0.77139  0.13715  1.0000
  H   H463      1.0  0.03859  0.68821  0.10900  1.0000
  C   C305      1.0  0.05572  0.76901  0.02284  1.0000
  C   C306      1.0  0.06246  0.53784  0.08435  1.0000
  H   H464      1.0  0.06432  0.55647  0.08538  1.0000
  H   H465      1.0  0.08573  0.69755  0.11711  1.0000
  C   C307      1.0  0.32669  0.93944  0.07210  1.0000
  H   H466      1.0  0.05269  0.61872  0.07761  1.0000
  H   H467      1.0  0.29777  0.90190  0.09736  1.0000
  C   C308      1.0  0.05273  0.64229  0.19509  1.0000
  H   H468      1.0  0.04543  0.72163  0.02758  1.0000
  H   H469      1.0  0.29372  0.96212  0.07781  1.0000
  H   H470      1.0  0.06803  0.54316  0.11459  1.0000
  H   H471      1.0  0.23893  0.90896  0.22385  1.0000
  C   C309      1.0  0.28132  0.99618  0.09880  1.0000
  H   H472      1.0  0.03736  0.76103  0.02303  1.0000
  H   H473      1.0  0.08269  0.52211  0.10888  1.0000
  H   H474      1.0  0.07486  0.72020  0.02218  1.0000
  C   C310      1.0  0.29070  0.94461  0.08707  1.0000
  C   C311      1.0  0.32607  0.95914  0.09484  1.0000
  H   H475      1.0  0.31717  0.94567  0.23567  1.0000
  H   H476      1.0  0.06910  0.63034  0.22204  1.0000
  N   N30       1.0  0.05103  0.52034  0.10123  1.0000
  H   H477      1.0  0.29809  0.99690  0.09107  1.0000
  C   C312      1.0  0.07417  0.65277  0.11325  1.0000
  N   N31       1.0  0.31283  0.94000  0.08884  1.0000
  H   H478      1.0  0.05507  0.71602  0.21239  1.0000
  H   H479      1.0  0.31740  0.92516  0.06717  1.0000
  H   H480      1.0  0.02152  0.60243  0.19510  1.0000
  H   H481      1.0  0.04235  0.64078  0.14391  1.0000
  H   H482      1.0  0.05870  0.69432  0.13207  1.0000
  Fe  Fe61      1.0  0.01791  0.55876  0.16962  1.0000
  H   H483      1.0  0.01864  0.51013  0.12069  1.0000
  H   H484      1.0  0.07895  0.64235  0.12406  1.0000
  C   C313      1.0  0.28551  0.94405  0.00703  1.0000
  H   H485      1.0  0.32984  0.97699  0.08580  1.0000
  C   C314      1.0  0.30792  0.91673  0.10136  1.0000
  H   H486      1.0  0.05933  0.65758  0.20025  1.0000
  C   C315      1.0  0.09527  0.76705  0.01510  1.0000
  H   H487      1.0  0.07683  0.61336  0.20735  1.0000
  H   H488      1.0  0.25340  0.85312  0.21990  1.0000
  H   H489      1.0  0.05594  0.76898  0.03630  1.0000
  H   H490      1.0  0.09718  0.76764  0.02813  1.0000
  H   H491      1.0  0.06448  0.73064  0.04030  1.0000
  H   H492      1.0  0.21628  0.87705  0.21367  1.0000
  H   H493      1.0  0.19670  0.86446  0.23476  1.0000
  H   H494      1.0  0.01688  0.60447  0.23269  1.0000
  H   H495      1.0  0.26986  0.87596  0.22758  1.0000
  H   H496      1.0  0.01410  0.58093  0.12957  1.0000
  H   H497      1.0  0.10142  0.78569  0.00680  1.0000
  H   H498      1.0  0.33020  0.98507  0.24163  1.0000
  C   C316      1.0  0.31675  0.00344  0.22254  1.0000
  H   H499      1.0  0.01714  0.70696  0.23383  1.0000
  H   H500      1.0  0.25025  0.90131  0.24172  1.0000
  C   C317      1.0  0.05780  0.66713  0.24051  1.0000
  H   H501      1.0  0.06936  0.65631  0.24260  1.0000
  H   H502      1.0  0.21942  0.89657  0.24499  1.0000
  C   C318      1.0  0.01831  0.57619  0.33766  1.0000
  S   S122      1.0  0.00821  0.51691  0.40459  1.0000
  C   C319      1.0  0.11794  0.58540  0.38100  1.0000
  C   C320      1.0  0.14989  0.78153  0.47197  1.0000
  Fe  Fe62      1.0  0.16662  0.72696  0.46339  1.0000
  S   S123      1.0  0.16151  0.68963  0.46022  1.0000
  S   S124      1.0  0.20097  0.75636  0.45271  1.0000
  C   C321      1.0  0.03598  0.66144  0.25229  1.0000
  H   H503      1.0  0.18837  0.75249  0.48927  1.0000
  H   H504      1.0  0.22673  0.83562  0.24941  1.0000
  Fe  Fe63      1.0  0.12668  0.69151  0.45637  1.0000
  S   S125      1.0  0.10994  0.68040  0.43615  1.0000
  H   H505      1.0  0.08060  0.59454  0.39801  1.0000
  S   S126      1.0  0.13350  0.73008  0.45684  1.0000
  S   S127      1.0  0.29864  0.87689  0.46979  1.0000
  C   C322      1.0  0.04170  0.60772  0.47333  1.0000
  H   H506      1.0  0.02408  0.55132  0.46922  1.0000
  H   H507      1.0  0.24865  0.71463  0.48801  1.0000
  C   C323      1.0  0.22852  0.85406  0.25078  1.0000
  H   H508      1.0  0.13694  0.58789  0.37662  1.0000
  Fe  Fe64      1.0  0.03586  0.55126  0.39019  1.0000
  H   H509      1.0  0.04240  0.64899  0.32062  1.0000
  S   S128      1.0  0.04207  0.56973  0.36218  1.0000
  Fe  Fe65      1.0  0.05532  0.55572  0.42083  1.0000
  H   H510      1.0  0.11970  0.64060  0.38644  1.0000
  S   S129      1.0  0.08391  0.57320  0.43159  1.0000
  H   H511      1.0  0.13931  0.62393  0.35432  1.0000
  C   C324      1.0  0.01692  0.57104  0.35526  1.0000
  H   H512      1.0  0.14362  0.62799  0.38276  1.0000
  S   S130      1.0  0.06435  0.53904  0.39929  1.0000
  S   S131      1.0  0.02920  0.57067  0.41044  1.0000
  N   N32       1.0  0.03539  0.58138  0.47912  1.0000
  H   H513      1.0  0.02432  0.62555  0.31477  1.0000
  N   N33       1.0  0.00903  0.65341  0.31908  1.0000
  H   H514      1.0  0.12864  0.81723  0.49416  1.0000
  C   C325      1.0  0.20556  0.70045  0.48437  1.0000
  H   H515      1.0  0.10919  0.57353  0.37405  1.0000
  H   H516      1.0  0.23292  0.73514  0.49320  1.0000
  S   S132      1.0  0.02895  0.52214  0.43780  1.0000
  Fe  Fe66      1.0  0.14259  0.67810  0.48828  1.0000
  H   H517      1.0  0.18689  0.80925  0.47772  1.0000
  C   C326      1.0  0.08969  0.60269  0.43358  1.0000
  C   C327      1.0  0.07891  0.61882  0.42629  1.0000
  C   C328      1.0  0.08521  0.64261  0.42722  1.0000
  C   C329      1.0  0.10173  0.65021  0.43590  1.0000
  C   C330      1.0  0.11195  0.63387  0.44364  1.0000
  C   C331      1.0  0.10619  0.61030  0.44225  1.0000
  H   H518      1.0  0.06588  0.61313  0.41982  1.0000
  H   H519      1.0  0.07713  0.65518  0.42133  1.0000
  H   H520      1.0  0.12478  0.63960  0.45028  1.0000
  H   H521      1.0  0.11467  0.59794  0.44788  1.0000
  H   H522      1.0  0.07754  0.59309  0.37714  1.0000
  H   H523      1.0  0.11205  0.57568  0.39491  1.0000
  H   H524      1.0  0.08224  0.62113  0.38255  1.0000
  H   H525      1.0  0.13026  0.81703  0.47220  1.0000
  S   S133      1.0  0.10744  0.67694  0.48432  1.0000
  H   H526      1.0  0.04271  0.57778  0.45335  1.0000
  H   H527      1.0  0.01622  0.65383  0.29242  1.0000
  H   H528      1.0  0.31782  0.98979  0.47808  1.0000
  C   C332      1.0  0.08711  0.60417  0.38418  1.0000
  Fe  Fe67      1.0  0.30012  0.90097  0.48743  1.0000
  S   S134      1.0  0.15019  0.71507  0.49158  1.0000
  H   H529      1.0  0.05122  0.55425  0.48764  1.0000
  H   H530      1.0  0.03074  0.64622  0.26336  1.0000
  H   H531      1.0  0.11966  0.61430  0.40144  1.0000
  H   H532      1.0  0.03522  0.67794  0.29703  1.0000
  N   N34       1.0  0.14960  0.79625  0.48430  1.0000
  C   C333      1.0  0.05554  0.57399  0.48291  1.0000
  Fe  Fe68      1.0  0.27719  0.84764  0.49364  1.0000
  H   H533      1.0  0.21903  0.69819  0.47404  1.0000
  H   H534      1.0  0.11652  0.63818  0.35688  1.0000
  H   H535      1.0  0.15191  0.79221  0.45874  1.0000
  C   C334      1.0  0.02856  0.57114  0.46548  1.0000
  H   H536      1.0  0.03458  0.57847  0.32850  1.0000
  H   H537      1.0  0.00063  0.57894  0.49254  1.0000
  H   H538      1.0  0.25885  0.82125  0.46216  1.0000
  H   H539      1.0  0.00415  0.66133  0.34355  1.0000
  C   C335      1.0  0.24358  0.80613  0.46812  1.0000
  C   C336      1.0  0.23377  0.79226  0.45811  1.0000
  C   C337      1.0  0.21364  0.77289  0.46564  1.0000
  H   H540      1.0  0.24303  0.85870  0.25676  1.0000
  H   H541      1.0  0.06156  0.58189  0.49285  1.0000
  H   H542      1.0  0.24165  0.79676  0.44443  1.0000
  S   S135      1.0  0.30178  0.93981  0.47955  1.0000
  C   C338      1.0  0.20374  0.76725  0.48331  1.0000
  H   H543      1.0  0.02799  0.68250  0.32683  1.0000
  C   C339      1.0  0.31093  0.95443  0.49444  1.0000
  H   H544      1.0  0.11131  0.60975  0.35207  1.0000
  C   C340      1.0  0.31835  0.97942  0.49027  1.0000
  C   C341      1.0  0.23327  0.80068  0.48576  1.0000
  H   H545      1.0  0.01320  0.57600  0.46253  1.0000
  C   C342      1.0  0.12029  0.62065  0.35950  1.0000
  H   H546      1.0  0.18909  0.68662  0.48596  1.0000
  H   H547      1.0  0.16443  0.77334  0.47134  1.0000
  N   N35       1.0  0.11247  0.60847  0.37804  1.0000
  C   C343      1.0  0.12440  0.62355  0.38752  1.0000
  C   C344      1.0  0.01573  0.57266  0.49477  1.0000
  H   H548      1.0  0.02717  0.61392  0.46975  1.0000
  H   H549      1.0  0.04614  0.61606  0.48352  1.0000
  H   H550      1.0  0.00591  0.67795  0.29722  1.0000
  C   C345      1.0  0.17137  0.81604  0.47870  1.0000
  Fe  Fe69      1.0  0.11667  0.71516  0.48505  1.0000
  H   H551      1.0  0.17203  0.82731  0.48787  1.0000
  H   H552      1.0  0.06520  0.69168  0.49333  1.0000
  Fe  Fe70      1.0  0.00349  0.53541  0.42555  1.0000
  H   H553      1.0  0.17338  0.82780  0.46583  1.0000
  C   C346      1.0  0.02138  0.67591  0.24996  1.0000
  H   H554      1.0  0.13349  0.76677  0.47563  1.0000
  H   H555      1.0  0.05696  0.61502  0.46189  1.0000
  H   H556      1.0  0.21228  0.85384  0.25987  1.0000
  C   C347      1.0  0.21343  0.78106  0.49329  1.0000
  H   H557      1.0  0.07045  0.57975  0.47123  1.0000
  H   H558      1.0  0.20296  0.71817  0.47964  1.0000
  C   C348      1.0  0.02413  0.63820  0.32295  1.0000
  C   C349      1.0  0.01002  0.67066  0.32959  1.0000
  C   C350      1.0  0.12946  0.80594  0.48501  1.0000
  H   H559      1.0  0.11280  0.79127  0.48929  1.0000
  C   C351      1.0  0.01700  0.66639  0.30068  1.0000
  Fe  Fe71      1.0  0.32941  0.86912  0.47801  1.0000
  H   H560      1.0  0.01799  0.62727  0.33657  1.0000
  S   S136      1.0  0.33220  0.89512  0.49386  1.0000
  H   H561      1.0  0.99983  0.58154  0.31832  1.0000
  H   H562      1.0  0.22844  0.67091  0.49682  1.0000
  Fe  Fe72      1.0  0.18026  0.70822  0.72549  1.0000
  S   S137      1.0  0.17024  0.72638  0.70287  1.0000
  S   S138      1.0  0.21857  0.72003  0.72356  1.0000
  H   H563      1.0  0.31141  0.94891  0.56288  1.0000
  S   S139      1.0  0.11807  0.68988  0.71951  1.0000
  H   H564      1.0  0.31756  0.97323  0.57226  1.0000
  Fe  Fe73      1.0  0.15156  0.68946  0.70266  1.0000
  S   S140      1.0  0.15846  0.67826  0.67801  1.0000
  Fe  Fe74      1.0  0.13796  0.72468  0.72219  1.0000
  S   S141      1.0  0.16342  0.67120  0.72426  1.0000
  Fe  Fe75      1.0  0.30829  0.86513  0.51568  1.0000
  H   H565      1.0  0.27601  0.78956  0.72767  1.0000
  S   S142      1.0  0.30808  0.85967  0.72367  1.0000
  H   H566      1.0  0.07294  0.68475  0.62531  1.0000
  N   N36       1.0  0.21231  0.69843  0.50064  1.0000
  H   H567      1.0  0.06233  0.52776  0.60904  1.0000
  N   N37       1.0  0.10437  0.67607  0.62786  1.0000
  H   H568      1.0  0.11838  0.65506  0.61254  1.0000
  S   S143      1.0  0.10915  0.53169  0.61155  1.0000
  S   S144      1.0  0.14840  0.64872  0.50716  1.0000
  H   H569      1.0  0.17701  0.68876  0.51592  1.0000
  Fe  Fe76      1.0  0.04939  0.57355  0.61862  1.0000
  S   S145      1.0  0.07928  0.57940  0.59600  1.0000
  H   H570      1.0  0.02088  0.60499  0.55072  1.0000
  Fe  Fe77      1.0  0.08118  0.59055  0.64069  1.0000
  S   S146      1.0  0.11362  0.59695  0.61978  1.0000
  S   S147      1.0  0.07887  0.59956  0.66626  1.0000
  Fe  Fe78      1.0  0.09453  0.61319  0.60231  1.0000
  S   S148      1.0  0.10640  0.64940  0.58348  1.0000
  Fe  Fe79      1.0  0.09479  0.56212  0.61571  1.0000
  H   H571      1.0  0.21740  0.82956  0.71061  1.0000
  S   S149      1.0  0.06327  0.60887  0.62340  1.0000
  S   S150      1.0  0.06386  0.55435  0.63813  1.0000
  H   H572      1.0  0.01020  0.61354  0.56977  1.0000
  H   H573      1.0  0.30008  0.94410  0.58554  1.0000
  C   C352      1.0  0.11824  0.64883  0.56245  1.0000
  C   C353      1.0  0.12650  0.62987  0.55908  1.0000
  C   C354      1.0  0.13576  0.62982  0.54206  1.0000
  C   C355      1.0  0.13613  0.64835  0.52843  1.0000
  C   C356      1.0  0.12724  0.66689  0.53189  1.0000
  C   C357      1.0  0.11875  0.66739  0.54885  1.0000
  H   H574      1.0  0.12606  0.61542  0.56958  1.0000
  H   H575      1.0  0.14249  0.61534  0.53946  1.0000
  H   H576      1.0  0.12668  0.68081  0.52157  1.0000
  H   H577      1.0  0.11207  0.68191  0.55140  1.0000
  C   C358      1.0  0.05444  0.61400  0.56711  1.0000
  S   S151      1.0  0.01227  0.56186  0.61764  1.0000
  C   C359      1.0  0.11510  0.65676  0.62587  1.0000
  H   H578      1.0  0.08253  0.66726  0.61150  1.0000
  H   H579      1.0  0.17451  0.77324  0.71218  1.0000
  H   H580      1.0  0.26307  0.75463  0.71642  1.0000
  H   H581      1.0  0.01497  0.63314  0.54899  1.0000
  H   H582      1.0  0.20061  0.77509  0.71897  1.0000
  H   H583      1.0  0.05479  0.59839  0.56182  1.0000
  C   C360      1.0  0.19046  0.78589  0.71295  1.0000
  C   C361      1.0  0.06109  0.63923  0.53866  1.0000
  H   H584      1.0  0.10344  0.79012  0.73347  1.0000
  C   C362      1.0  0.13683  0.65469  0.67589  1.0000
  C   C363      1.0  0.11442  0.64700  0.68696  1.0000
  C   C364      1.0  0.09702  0.62943  0.68420  1.0000
  C   C365      1.0  0.10189  0.61940  0.67041  1.0000
  C   C366      1.0  0.12457  0.62632  0.65982  1.0000
  C   C367      1.0  0.14192  0.64414  0.66242  1.0000
  H   H585      1.0  0.11036  0.65487  0.69745  1.0000
  H   H586      1.0  0.07958  0.62391  0.69258  1.0000
  H   H587      1.0  0.12864  0.61820  0.64946  1.0000
  H   H588      1.0  0.15929  0.64981  0.65393  1.0000
  C   C368      1.0  0.08926  0.51026  0.60595  1.0000
  C   C369      1.0  0.02305  0.55295  0.56959  1.0000
  C   C370      1.0  0.19407  0.70198  0.51382  1.0000
  C   C371      1.0  0.20625  0.81905  0.72362  1.0000
  H   H589      1.0  0.04313  0.60719  0.58053  1.0000
  C   C372      1.0  0.25102  0.75823  0.72642  1.0000
  H   H590      1.0  0.09386  0.69296  0.64757  1.0000
  C   C373      1.0  0.11937  0.69866  0.61548  1.0000
  C   C374      1.0  0.17041  0.78924  0.74035  1.0000
  S   S152      1.0  0.12375  0.75598  0.72199  1.0000
  H   H591      1.0  0.07235  0.62202  0.56774  1.0000
  H   H592      1.0  0.13134  0.76617  0.50608  1.0000
  H   H593      1.0  0.33101  0.83703  0.69455  1.0000
  H   H594      1.0  0.32656  0.94494  0.60434  1.0000
  C   C375      1.0  0.10176  0.67845  0.64556  1.0000
  H   H595      1.0  0.05194  0.64664  0.73162  1.0000
  H   H596      1.0  0.05542  0.65260  0.53034  1.0000
  C   C376      1.0  0.05299  0.71900  0.52492  1.0000
  C   C377      1.0  0.00852  0.55844  0.59772  1.0000
  C   C378      1.0  0.02023  0.68533  0.52761  1.0000
  H   H597      1.0  0.13699  0.70342  0.61760  1.0000
  C   C379      1.0  0.04691  0.65233  0.56353  1.0000
  H   H598      1.0  0.06934  0.65363  0.63399  1.0000
  H   H599      1.0  0.30519  0.92194  0.51385  1.0000
  C   C380      1.0  0.17126  0.81667  0.71422  1.0000
  C   C381      1.0  0.31546  0.95373  0.57445  1.0000
  C   C382      1.0  0.09627  0.77346  0.74341  1.0000
  H   H600      1.0  0.20259  0.83184  0.73114  1.0000
  H   H601      1.0  0.09042  0.66161  0.65512  1.0000
  H   H602      1.0  0.04711  0.68759  0.72952  1.0000
  H   H603      1.0  0.10363  0.63922  0.63433  1.0000
  C   C383      1.0  0.00317  0.55658  0.56504  1.0000
  H   H604      1.0  0.07945  0.64757  0.53813  1.0000
  C   C384      1.0  0.31826  0.95288  0.52234  1.0000
  C   C385      1.0  0.02198  0.62027  0.55652  1.0000
  H   H605      1.0  0.16645  0.82949  0.72133  1.0000
  C   C386      1.0  0.05249  0.68705  0.74161  1.0000
  H   H606      1.0  0.12158  0.69724  0.60202  1.0000
  C   C387      1.0  0.32577  0.97785  0.51816  1.0000
  C   C388      1.0  0.08128  0.67023  0.62450  1.0000
  S   S153      1.0  0.31399  0.85697  0.54214  1.0000
  H   H607      1.0  0.11881  0.68240  0.64868  1.0000
  N   N38       1.0  0.22497  0.67910  0.68712  1.0000
  C   C389      1.0  0.24658  0.68246  0.67388  1.0000
  C   C390      1.0  0.22927  0.67437  0.70428  1.0000
  C   C391      1.0  0.20662  0.65872  0.68632  1.0000
  C   C392      1.0  0.21741  0.70096  0.68399  1.0000
  H   H608      1.0  0.24390  0.68611  0.66078  1.0000
  H   H609      1.0  0.25283  0.66631  0.67585  1.0000
  H   H610      1.0  0.26072  0.69778  0.67414  1.0000
  H   H611      1.0  0.21335  0.67190  0.71459  1.0000
  H   H612      1.0  0.23503  0.65803  0.70716  1.0000
  H   H613      1.0  0.24281  0.68957  0.70541  1.0000
  H   H614      1.0  0.21168  0.64188  0.68854  1.0000
  H   H615      1.0  0.20262  0.66188  0.67364  1.0000
  H   H616      1.0  0.19004  0.65570  0.69614  1.0000
  H   H617      1.0  0.23063  0.71672  0.68473  1.0000
  H   H618      1.0  0.20117  0.69893  0.69373  1.0000
  H   H619      1.0  0.21376  0.70506  0.67123  1.0000
  H   H620      1.0  0.13212  0.66003  0.62898  1.0000
  C   C393      1.0  0.21503  0.67440  0.50651  1.0000
  H   H621      1.0  0.01417  0.51116  0.55907  1.0000
  C   C394      1.0  0.03034  0.70457  0.53341  1.0000
  S   S154      1.0  0.00089  0.61701  0.51608  1.0000
  S   S155      1.0  0.27600  0.87282  0.51059  1.0000
  C   C395      1.0  0.22796  0.74363  0.73256  1.0000
  H   H622      1.0  0.06073  0.62395  0.53287  1.0000
  H   H623      1.0  0.06491  0.66115  0.56371  1.0000
  C   C396      1.0  0.06580  0.71417  0.51063  1.0000
  H   H624      1.0  0.04091  0.55072  0.58942  1.0000
  H   H625      1.0  0.02495  0.66641  0.50822  1.0000
  H   H626      1.0  0.31859  0.91117  0.59089  1.0000
  S   S156      1.0  0.09437  0.73235  0.50054  1.0000
  H   H627      1.0  0.20539  0.77673  0.50692  1.0000
  H   H628      1.0  0.11189  0.71371  0.61660  1.0000
  H   H629      1.0  0.04072  0.66586  0.55577  1.0000
  C   C397      1.0  0.02565  0.55375  0.58595  1.0000
  N   N39       1.0  0.04611  0.63146  0.55646  1.0000
  H   H630      1.0  0.03674  0.55012  0.56036  1.0000
  H   H631      1.0  0.19830  0.69993  0.52639  1.0000
  C   C398      1.0  0.21256  0.74829  0.74558  1.0000
  N   N40       1.0  0.18461  0.80272  0.72279  1.0000
  H   H632      1.0  0.02060  0.70831  0.54454  1.0000
  C   C399      1.0  0.32615  0.99112  0.50200  1.0000
  C   C400      1.0  0.03283  0.68075  0.51310  1.0000
  H   H633      1.0  0.19843  0.66022  0.50881  1.0000
  C   C401      1.0  0.25841  0.77795  0.73282  1.0000
  S   S157      1.0  0.14943  0.70964  0.74497  1.0000
  H   H634      1.0  0.06064  0.73383  0.52950  1.0000
  H   H635      1.0  0.02060  0.57910  0.50560  1.0000
  H   H636      1.0  0.33267  0.96905  0.74054  1.0000
  H   H637      1.0  0.24003  0.71604  0.50987  1.0000
  H   H638      1.0  0.03567  0.64703  0.57692  1.0000
  H   H639      1.0  0.21681  0.80909  0.72990  1.0000
  H   H640      1.0  0.22017  0.67215  0.51875  1.0000
  H   H641      1.0  0.18138  0.82701  0.70090  1.0000
  C   C402      1.0  0.05701  0.64750  0.74369  1.0000
  C   C403      1.0  0.05568  0.69507  0.50467  1.0000
  H   H642      1.0  0.15381  0.77702  0.74021  1.0000
  H   H643      1.0  0.19176  0.72004  0.51002  1.0000
  Fe  Fe80      1.0  0.31615  0.88165  0.74192  1.0000
  H   H644      1.0  0.20106  0.79539  0.69959  1.0000
  H   H645      1.0  0.15483  0.80479  0.71340  1.0000
  H   H646      1.0  0.14711  0.79191  0.51117  1.0000
  C   C404      1.0  0.24280  0.78289  0.74555  1.0000
  H   H647      1.0  0.00972  0.55284  0.49910  1.0000
  H   H648      1.0  0.07165  0.69508  0.73795  1.0000
  C   C405      1.0  0.14751  0.78138  0.50153  1.0000
  C   C406      1.0  0.06727  0.51276  0.60568  1.0000
  H   H649      1.0  0.01407  0.65222  0.74519  1.0000
  C   C407      1.0  0.31113  0.94120  0.51044  1.0000
  H   H650      1.0  0.31793  0.94246  0.53477  1.0000
  H   H651      1.0  0.16233  0.77372  0.50153  1.0000
  S   S158      1.0  0.32152  0.92142  0.73622  1.0000
  S   S159      1.0  0.00091  0.55753  0.54410  1.0000
  H   H652      1.0  0.07620  0.65454  0.74029  1.0000
  C   C408      1.0  0.10317  0.75337  0.74112  1.0000
  Fe  Fe81      1.0  0.13152  0.67459  0.74121  1.0000
  H   H653      1.0  0.17966  0.77807  0.74705  1.0000
  S   S160      1.0  0.24336  0.81820  0.49899  1.0000
  S   S161      1.0  0.30813  0.83806  0.50046  1.0000
  H   H654      1.0  0.32990  0.83929  0.66436  1.0000
  C   C409      1.0  0.23447  0.71683  0.49783  1.0000
  H   H655      1.0  0.32967  0.91643  0.56813  1.0000
  S   S162      1.0  0.33309  0.99210  0.53371  1.0000
  Fe  Fe82      1.0  0.25908  0.85905  0.95052  1.0000
  S   S163      1.0  0.28561  0.86888  0.96493  1.0000
  S   S164      1.0  0.23420  0.82203  0.95759  1.0000
  Fe  Fe83      1.0  0.27006  0.90960  0.92923  1.0000
  S   S165      1.0  0.26037  0.93071  0.90753  1.0000
  Fe  Fe84      1.0  0.30862  0.89158  0.93925  1.0000
  Fe  Fe85      1.0  0.27234  0.90060  0.96630  1.0000
  H   H656      1.0  0.20811  0.77126  0.76225  1.0000
  S   S166      1.0  0.28346  0.87901  0.92460  1.0000
  S   S167      1.0  0.24376  0.88886  0.95412  1.0000
  Fe  Fe86      1.0  0.15089  0.75888  0.91301  1.0000
  S   S168      1.0  0.15285  0.72287  0.92582  1.0000
  S   S169      1.0  0.18327  0.79026  0.90335  1.0000
  Fe  Fe87      1.0  0.10118  0.73894  0.91127  1.0000
  S   S170      1.0  0.09920  0.70130  0.92406  1.0000
  S   S171      1.0  0.07178  0.74626  0.90078  1.0000
  Fe  Fe88      1.0  0.11684  0.71802  0.94167  1.0000
  Fe  Fe89      1.0  0.13520  0.70980  0.90700  1.0000
  S   S172      1.0  0.14899  0.68835  0.89008  1.0000
  S   S173      1.0  0.11605  0.75531  0.93030  1.0000
  S   S174      1.0  0.13580  0.74621  0.89291  1.0000
  Fe  Fe90      1.0  0.08290  0.57106  0.87960  1.0000
  S   S175      1.0  0.05854  0.53641  0.87994  1.0000
  S   S176      1.0  0.07765  0.58758  0.90177  1.0000
  Fe  Fe91      1.0  0.11211  0.57726  0.84403  1.0000
  S   S177      1.0  0.09066  0.54339  0.84107  1.0000
  S   S178      1.0  0.14255  0.60129  0.82264  1.0000
  Fe  Fe92      1.0  0.06030  0.55475  0.85301  1.0000
  H   H657      1.0  0.07174  0.67150  0.76591  1.0000
  Fe  Fe93      1.0  0.09065  0.52758  0.86805  1.0000
  S   S179      1.0  0.08170  0.59024  0.85363  1.0000
  S   S180      1.0  0.11508  0.56067  0.87011  1.0000
  H   H658      1.0  0.08388  0.62989  0.82404  1.0000
  H   H659      1.0  0.07111  0.63949  0.84206  1.0000
  S   S181      1.0  0.04114  0.68379  0.81362  1.0000
  H   H660      1.0  0.17218  0.77272  0.94046  1.0000
  H   H661      1.0  0.04345  0.67256  0.77640  1.0000
  H   H662      1.0  0.08173  0.68298  0.87357  1.0000
  H   H663      1.0  0.06465  0.64889  0.93346  1.0000
  H   H664      1.0  0.02761  0.67459  0.90926  1.0000
  C   C410      1.0  0.07028  0.75064  0.77135  1.0000
  C   C411      1.0  0.07706  0.73038  0.76910  1.0000
  C   C412      1.0  0.30754  0.94981  0.78370  1.0000
  H   H665      1.0  0.20288  0.70430  0.88506  1.0000
  H   H666      1.0  0.15166  0.65246  0.76579  1.0000
  C   C413      1.0  0.02017  0.65227  0.75695  1.0000
  H   H667      1.0  0.06976  0.71377  0.77901  1.0000
  H   H668      1.0  0.31093  0.97665  0.85077  1.0000
  S   S182      1.0  0.29360  0.85350  0.76562  1.0000
  C   C414      1.0  0.04943  0.64111  0.90646  1.0000
  C   C415      1.0  0.13276  0.61169  0.80489  1.0000
  C   C416      1.0  0.10917  0.60405  0.80569  1.0000
  C   C417      1.0  0.10084  0.61402  0.79225  1.0000
  C   C418      1.0  0.11610  0.63159  0.77793  1.0000
  C   C419      1.0  0.13983  0.63884  0.77684  1.0000
  C   C420      1.0  0.14816  0.62886  0.79036  1.0000
  H   H669      1.0  0.09720  0.59068  0.81677  1.0000
  H   H670      1.0  0.08248  0.60834  0.79310  1.0000
  C   C421      1.0  0.29235  0.95793  0.97631  1.0000
  H   H671      1.0  0.16642  0.63480  0.78974  1.0000
  C   C422      1.0  0.31957  0.96556  0.76758  1.0000
  C   C423      1.0  0.30426  0.91659  0.77071  1.0000
  C   C424      1.0  0.04288  0.70677  0.98238  1.0000
  C   C425      1.0  0.04641  0.63748  0.93654  1.0000
  C   C426      1.0  0.30585  0.98026  0.97656  1.0000
  C   C427      1.0  0.02943  0.59345  0.83338  1.0000
  S   S183      1.0  0.29731  0.92405  0.94164  1.0000
  C   C428      1.0  0.01063  0.60840  0.81207  1.0000
  H   H672      1.0  0.19002  0.70858  0.90517  1.0000
  H   H673      1.0  0.03871  0.59632  0.84288  1.0000
  C   C429      1.0  0.06502  0.70770  0.97296  1.0000
  C   C430      1.0  0.05281  0.66275  0.76869  1.0000
  S   S184      1.0  0.05028  0.75023  0.79015  1.0000
  H   H674      1.0  0.07070  0.71580  0.95926  1.0000
  H   H675      1.0  0.03157  0.71427  0.97590  1.0000
  C   C431      1.0  0.12989  0.65982  0.89363  1.0000
  C   C432      1.0  0.13140  0.64796  0.88063  1.0000
  C   C433      1.0  0.11574  0.62549  0.88314  1.0000
  C   C434      1.0  0.09870  0.61473  0.89873  1.0000
  C   C435      1.0  0.09785  0.62616  0.91194  1.0000
  C   C436      1.0  0.11318  0.64879  0.90934  1.0000
  H   H676      1.0  0.14458  0.65623  0.86857  1.0000
  H   H677      1.0  0.11687  0.61643  0.87306  1.0000
  H   H678      1.0  0.08529  0.61745  0.92420  1.0000
  H   H679      1.0  0.11242  0.65746  0.91961  1.0000
  C   C437      1.0  0.06400  0.72624  0.88875  1.0000
  C   C438      1.0  0.07784  0.71151  0.88488  1.0000
  C   C439      1.0  0.07119  0.69474  0.87597  1.0000
  C   C440      1.0  0.05098  0.69299  0.87044  1.0000
  C   C441      1.0  0.03730  0.70806  0.87394  1.0000
  C   C442      1.0  0.04375  0.72460  0.88321  1.0000
  H   H680      1.0  0.09355  0.71273  0.88898  1.0000
  H   H681      1.0  0.02145  0.70651  0.86996  1.0000
  H   H682      1.0  0.03291  0.73587  0.88631  1.0000
  C   C443      1.0  0.28509  0.95235  0.89350  1.0000
  C   C444      1.0  0.30202  0.96477  0.89997  1.0000
  S   S185      1.0  0.01077  0.71273  0.83478  1.0000
  H   H683      1.0  0.04174  0.64555  0.89558  1.0000
  C   C445      1.0  0.30845  0.97352  0.86448  1.0000
  C   C446      1.0  0.28817  0.95695  0.87575  1.0000
  H   H684      1.0  0.29941  0.96181  0.91364  1.0000
  H   H685      1.0  0.05277  0.68131  0.91715  1.0000
  C   C447      1.0  0.01036  0.56691  0.81877  1.0000
  C   C448      1.0  0.19810  0.79757  0.91846  1.0000
  C   C449      1.0  0.21950  0.81531  0.91282  1.0000
  C   C450      1.0  0.23092  0.82279  0.92470  1.0000
  C   C451      1.0  0.22112  0.81223  0.94228  1.0000
  C   C452      1.0  0.20017  0.79381  0.94786  1.0000
  C   C453      1.0  0.18860  0.78656  0.93599  1.0000
  H   H686      1.0  0.22711  0.82354  0.89923  1.0000
  H   H687      1.0  0.24728  0.83667  0.92028  1.0000
  H   H688      1.0  0.19264  0.78542  0.96144  1.0000
  N   N41       1.0  0.19964  0.87721  0.91848  1.0000
  C   C454      1.0  0.20146  0.89941  0.92403  1.0000
  C   C455      1.0  0.18222  0.87457  0.90854  1.0000
  C   C456      1.0  0.19246  0.85654  0.93373  1.0000
  C   C457      1.0  0.22243  0.87836  0.90757  1.0000
  H   H689      1.0  0.21444  0.90185  0.93159  1.0000
  H   H690      1.0  0.18459  0.89938  0.93217  1.0000
  H   H691      1.0  0.20733  0.91544  0.91284  1.0000
  H   H692      1.0  0.18722  0.88982  0.89689  1.0000
  H   H693      1.0  0.18043  0.85791  0.90421  1.0000
  H   H694      1.0  0.16479  0.87369  0.91634  1.0000
  H   H695      1.0  0.18986  0.83942  0.93004  1.0000
  H   H696      1.0  0.17586  0.85571  0.94265  1.0000
  H   H697      1.0  0.20579  0.85724  0.94108  1.0000
  H   H698      1.0  0.22147  0.86260  0.90234  1.0000
  H   H699      1.0  0.23577  0.87913  0.91490  1.0000
  H   H700      1.0  0.22902  0.89453  0.89646  1.0000
  C   C458      1.0  0.19857  0.74859  0.88015  1.0000
  H   H701      1.0  0.20472  0.76828  0.87451  1.0000
  H   H702      1.0  0.19447  0.73992  0.87001  1.0000
  H   H703      1.0  0.18201  0.74475  0.89007  1.0000
  H   H704      1.0  0.25111  0.73907  0.87942  1.0000
  H   H705      1.0  0.24495  0.76510  0.86839  1.0000
  H   H706      1.0  0.22655  0.77110  0.89634  1.0000
  S   S186      1.0  0.02903  0.54634  0.84286  1.0000
  S   S187      1.0  0.10480  0.64553  0.76226  1.0000
  C   C459      1.0  0.01175  0.62798  0.92684  1.0000
  H   H707      1.0  0.32587  0.85742  0.92143  1.0000
  H   H708      1.0  0.21911  0.70613  0.90081  1.0000
  H   H709      1.0  0.05044  0.62247  0.90785  1.0000
  H   H710      1.0  0.29812  0.89775  0.77208  1.0000
  Fe  Fe94      1.0  0.32945  0.99199  0.80327  1.0000
  H   H711      1.0  0.16602  0.80138  0.74825  1.0000
  C   C460      1.0  0.08010  0.77216  0.75852  1.0000
  H   H712      1.0  0.01166  0.60897  0.92859  1.0000
  S   S188      1.0  0.00197  0.63142  0.80072  1.0000
  C   C461      1.0  0.02290  0.57070  0.83077  1.0000
  C   C462      1.0  0.32361  0.95679  0.75301  1.0000
  H   H713      1.0  0.19492  0.73684  0.75065  1.0000
  H   H714      1.0  0.31368  0.99427  0.96473  1.0000
  Fe  Fe95      1.0  0.00693  0.66209  0.81237  1.0000
  C   C463      1.0  0.20666  0.71357  0.89500  1.0000
  H   H715      1.0  0.12111  0.63582  0.83183  1.0000
  C   C464      1.0  0.07989  0.69858  0.98135  1.0000
  C   C465      1.0  0.02305  0.61226  0.82415  1.0000
  Fe  Fe96      1.0  0.02254  0.68001  0.84083  1.0000
  N   N42       1.0  0.07240  0.77055  0.83144  1.0000
  C   C466      1.0  0.07597  0.74750  0.82953  1.0000
  C   C467      1.0  0.08391  0.78908  0.81504  1.0000
  C   C468      1.0  0.08243  0.77738  0.84512  1.0000
  C   C469      1.0  0.04725  0.76823  0.83601  1.0000
  H   H716      1.0  0.06752  0.73312  0.84165  1.0000
  H   H717      1.0  0.09473  0.74860  0.82600  1.0000
  H   H718      1.0  0.06842  0.74174  0.81941  1.0000
  H   H719      1.0  0.08140  0.80668  0.81595  1.0000
  H   H720      1.0  0.10291  0.79135  0.81115  1.0000
  C   C470      1.0  0.03505  0.66890  0.92007  1.0000
  H   H721      1.0  0.10136  0.77911  0.84220  1.0000
  H   H722      1.0  0.07406  0.76385  0.85769  1.0000
  H   H723      1.0  0.08006  0.79469  0.84693  1.0000
  H   H724      1.0  0.04384  0.78513  0.83788  1.0000
  H   H725      1.0  0.03787  0.75398  0.84811  1.0000
  H   H726      1.0  0.03929  0.76366  0.82571  1.0000
  C   C471      1.0  0.22001  0.75131  0.90138  1.0000
  H   H727      1.0  0.23292  0.74515  0.90740  1.0000
  H   H728      1.0  0.29045  0.91309  0.79759  1.0000
  S   S189      1.0  0.30259  0.95988  0.80234  1.0000
  H   H729      1.0  0.07672  0.78440  0.80445  1.0000
  H   H730      1.0  0.28957  0.95492  0.96436  1.0000
  Fe  Fe97      1.0  0.02716  0.71482  0.80734  1.0000
  C   C472      1.0  0.00449  0.58578  0.80928  1.0000
  S   S190      1.0  0.26714  0.91083  0.99140  1.0000
  H   H731      1.0  0.01456  0.63349  0.76502  1.0000
  H   H732      1.0  0.23505  0.73707  0.86365  1.0000
  H   H733      1.0  0.02757  0.62962  0.82654  1.0000
  H   H734      1.0  0.04922  0.64434  0.77697  1.0000
  N   N43       1.0  0.04563  0.66241  0.75272  1.0000
  H   H735      1.0  0.06755  0.65297  0.90267  1.0000
  N   N44       1.0  0.10421  0.66308  0.82627  1.0000
  C   C473      1.0  0.11712  0.67149  0.80794  1.0000
  C   C474      1.0  0.10034  0.68360  0.83256  1.0000
  C   C475      1.0  0.11778  0.65137  0.83625  1.0000
  C   C476      1.0  0.08159  0.64582  0.82840  1.0000
  H   H736      1.0  0.12038  0.65639  0.80295  1.0000
  H   H737      1.0  0.13436  0.68442  0.80582  1.0000
  H   H738      1.0  0.10728  0.68013  0.79996  1.0000
  H   H739      1.0  0.08925  0.69224  0.82588  1.0000
  H   H740      1.0  0.09133  0.67776  0.84647  1.0000
  H   H741      1.0  0.11701  0.69723  0.83080  1.0000
  H   H742      1.0  0.10839  0.64465  0.85013  1.0000
  H   H743      1.0  0.13498  0.66376  0.83504  1.0000
  H   H744      1.0  0.07107  0.65379  0.82078  1.0000
  H   H745      1.0  0.33264  0.90194  0.98692  1.0000
  C   C477      1.0  0.23770  0.74549  0.87419  1.0000
  S   S191      1.0  0.10822  0.70110  0.97000  1.0000
  C   C478      1.0  0.29980  0.92535  0.78518  1.0000
  C   C479      1.0  0.32210  0.98158  0.88873  1.0000
  N   N45       1.0  0.21575  0.73973  0.88769  1.0000
  S   S192      1.0  0.04309  0.67145  0.85956  1.0000
  H   H746      1.0  0.20377  0.74744  0.91176  1.0000
  C   C480      1.0  0.28242  0.93965  0.99151  1.0000
  H   H747      1.0  0.27509  0.94740  0.87070  1.0000
  H   H748      1.0  0.04684  0.61859  0.93889  1.0000
  H   H749      1.0  0.31542  0.91839  0.97752  1.0000
  C   C481      1.0  0.22004  0.76775  0.75212  1.0000
  N   N46       1.0  0.03566  0.64388  0.92248  1.0000
  H   H750      1.0  0.03676  0.63981  0.94877  1.0000
  C   C482      1.0  0.32541  0.98576  0.87099  1.0000
  C   C483      1.0  0.09373  0.73182  0.75405  1.0000
  H   H751      1.0  0.07483  0.77298  0.98940  1.0000
  Fe  Fe98      1.0  0.32529  0.84122  0.76627  1.0000
  C   C484      1.0  0.31605  0.93224  0.75455  1.0000
  H   H752      1.0  0.05253  0.62891  0.75190  1.0000
  H   H753      1.0  0.07493  0.78784  0.76016  1.0000
  H   H754      1.0  0.01094  0.66256  0.76429  1.0000
  H   H755      1.0  0.00528  0.54934  0.81674  1.0000
  H   H756      1.0  0.09922  0.71631  0.75243  1.0000
  C   C485      1.0  0.33213  0.91391  0.97487  1.0000
  H   H757      1.0  0.02445  0.67158  0.93179  1.0000
  C   C486      1.0  0.30940  0.98450  0.99202  1.0000
  S   S193      1.0  0.25007  0.80898  0.75245  1.0000
  H   H758      1.0  0.33161  0.90345  0.96521  1.0000
  H   H759      1.0  0.32548  0.98450  0.76631  1.0000
  H   H760      1.0  0.00318  0.63247  0.91648  1.0000
  H   H761      1.0  0.07984  0.74410  0.99282  1.0000
  S   S194      1.0  0.31714  0.81531  0.75068  1.0000
  H   H762      1.0  0.00086  0.62943  0.93894  1.0000
  H   H763      1.0  0.04454  0.69883  0.74824  1.0000
  Fe  Fe99      1.0  0.28750  0.83044  0.74769  1.0000
  Fe  Fe100     1.0  0.63334  0.04395  0.14955  1.0000
  H   H764      1.0  0.39716  0.27903  0.21312  1.0000
  S   S195      1.0  0.61419  0.06453  0.13452  1.0000
  C   C487      1.0  0.43277  0.03664  0.07457  1.0000
  H   H765      1.0  0.35877  0.32470  0.23058  1.0000
  C   C488      1.0  0.55512  0.02129  0.17011  1.0000
  C   C489      1.0  0.37354  0.32319  0.22089  1.0000
  C   C490      1.0  0.45115  0.08588  0.17850  1.0000
  S   S196      1.0  0.36918  0.19042  0.09201  1.0000
  Fe  Fe101     1.0  0.43276  0.23128  0.07437  1.0000
  S   S197      1.0  0.42272  0.19765  0.09546  1.0000
  S   S198      1.0  0.47015  0.25329  0.06587  1.0000
  Fe  Fe102     1.0  0.40098  0.18122  0.07991  1.0000
  S   S199      1.0  0.39932  0.14303  0.08029  1.0000
  Fe  Fe103     1.0  0.39214  0.20955  0.10574  1.0000
  S   S200      1.0  0.38320  0.20741  0.13383  1.0000
  S   S201      1.0  0.41416  0.21377  0.05742  1.0000
  S   S202      1.0  0.40363  0.24453  0.08578  1.0000
  H   H766      1.0  0.44204  0.24842  0.24336  1.0000
  Fe  Fe104     1.0  0.48925  0.36399  0.15419  1.0000
  S   S203      1.0  0.49643  0.32873  0.15416  1.0000
  S   S204      1.0  0.50498  0.39082  0.16770  1.0000
  Fe  Fe105     1.0  0.44784  0.35127  0.13935  1.0000
  S   S205      1.0  0.45134  0.31526  0.13814  1.0000
  S   S206      1.0  0.41820  0.36252  0.13194  1.0000
  Fe  Fe106     1.0  0.45792  0.31266  0.16389  1.0000
  S   S207      1.0  0.44192  0.27753  0.18366  1.0000
  Fe  Fe107     1.0  0.48927  0.33411  0.12819  1.0000
  S   S208      1.0  0.51116  0.32330  0.10746  1.0000
  S   S209      1.0  0.45079  0.34704  0.16620  1.0000
  S   S210      1.0  0.48555  0.37099  0.12717  1.0000
  H   H767      1.0  0.38136  0.27325  0.24438  1.0000
  H   H768      1.0  0.55798  0.50683  0.11403  1.0000
  H   H769      1.0  0.38642  0.04845  0.19216  1.0000
  H   H770      1.0  0.37605  0.26992  0.10833  1.0000
  C   C491      1.0  0.35020  0.22822  0.04236  1.0000
  C   C492      1.0  0.42348  0.04733  0.06197  1.0000
  S   S211      1.0  0.49541  0.05694  0.10969  1.0000
  H   H771      1.0  0.51355  0.04157  0.19153  1.0000
  C   C493      1.0  0.34748  0.21465  0.15583  1.0000
  H   H772      1.0  0.54009  0.05593  0.15375  1.0000
  S   S212      1.0  0.61020  0.44830  0.15747  1.0000
  C   C494      1.0  0.39320  0.35113  0.14924  1.0000
  C   C495      1.0  0.38831  0.32831  0.16023  1.0000
  C   C496      1.0  0.36755  0.31886  0.17344  1.0000
  C   C497      1.0  0.35243  0.33279  0.17633  1.0000
  C   C498      1.0  0.35760  0.35572  0.16554  1.0000
  C   C499      1.0  0.37764  0.36462  0.15174  1.0000
  H   H773      1.0  0.40033  0.31782  0.15837  1.0000
  H   H774      1.0  0.36355  0.30106  0.18161  1.0000
  H   H775      1.0  0.46681  0.03093  0.20170  1.0000
  H   H776      1.0  0.38139  0.38226  0.14327  1.0000
  H   H777      1.0  0.34279  0.28203  0.13611  1.0000
  N   N47       1.0  0.52944  0.34860  0.20537  1.0000
  C   C500      1.0  0.46255  0.04635  0.19525  1.0000
  C   C501      1.0  0.59105  0.04836  0.12828  1.0000
  C   C502      1.0  0.45440  0.28676  0.23454  1.0000
  C   C503      1.0  0.44547  0.26391  0.23278  1.0000
  C   C504      1.0  0.44158  0.26101  0.21711  1.0000
  C   C505      1.0  0.44725  0.28094  0.20310  1.0000
  C   C506      1.0  0.45667  0.30372  0.20478  1.0000
  C   C507      1.0  0.45980  0.30664  0.22058  1.0000
  H   H778      1.0  0.40568  0.28702  0.12195  1.0000
  H   H779      1.0  0.43451  0.24333  0.21580  1.0000
  H   H780      1.0  0.46120  0.31917  0.19402  1.0000
  H   H781      1.0  0.46617  0.32431  0.22206  1.0000
  H   H782      1.0  0.44669  0.10115  0.17203  1.0000
  H   H783      1.0  0.39242  0.30232  0.19792  1.0000
  Fe  Fe108     1.0  0.47315  0.05433  0.13551  1.0000
  H   H784      1.0  0.34843  0.18002  0.02619  1.0000
  C   C508      1.0  0.35402  0.20678  0.04005  1.0000
  C   C509      1.0  0.39607  0.00914  0.06529  1.0000
  H   H785      1.0  0.38294  0.33495  0.10189  1.0000
  H   H786      1.0  0.37674  0.15929  0.20144  1.0000
  H   H787      1.0  0.36368  0.19811  0.04756  1.0000
  H   H788      1.0  0.39651  0.30374  0.24191  1.0000
  Fe  Fe109     1.0  0.65267  0.04399  0.18027  1.0000
  C   C510      1.0  0.51962  0.03193  0.07463  1.0000
  H   H789      1.0  0.47487  0.00971  0.07796  1.0000
  C   C511      1.0  0.48046  0.27361  0.07722  1.0000
  C   C512      1.0  0.50422  0.28015  0.07604  1.0000
  C   C513      1.0  0.51325  0.29565  0.08518  1.0000
  C   C514      1.0  0.49870  0.30501  0.09554  1.0000
  C   C515      1.0  0.47489  0.29897  0.09649  1.0000
  C   C516      1.0  0.46576  0.28322  0.08734  1.0000
  H   H790      1.0  0.51573  0.27305  0.06811  1.0000
  H   H791      1.0  0.53165  0.30036  0.08426  1.0000
  H   H792      1.0  0.46361  0.30656  0.10411  1.0000
  H   H793      1.0  0.44748  0.27869  0.08798  1.0000
  C   C517      1.0  0.39073  0.13260  0.06359  1.0000
  C   C518      1.0  0.38945  0.10895  0.06339  1.0000
  C   C519      1.0  0.38221  0.09993  0.05042  1.0000
  C   C520      1.0  0.37621  0.11451  0.03758  1.0000
  H   H794      1.0  0.49902  0.35619  0.19945  1.0000
  C   C521      1.0  0.38481  0.14726  0.05073  1.0000
  H   H795      1.0  0.39412  0.09756  0.07325  1.0000
  H   H796      1.0  0.38166  0.08180  0.05021  1.0000
  C   C522      1.0  0.46549  0.07534  0.16904  1.0000
  H   H797      1.0  0.38575  0.16552  0.05085  1.0000
  H   H798      1.0  0.38965  0.33621  0.22105  1.0000
  C   C523      1.0  0.65207  0.49203  0.23406  1.0000
  C   C524      1.0  0.58081  0.43294  0.16014  1.0000
  C   C525      1.0  0.57550  0.41745  0.14989  1.0000
  C   C526      1.0  0.55231  0.40491  0.15164  1.0000
  C   C527      1.0  0.53424  0.40765  0.16377  1.0000
  C   C528      1.0  0.53956  0.42330  0.17391  1.0000
  C   C529      1.0  0.56271  0.43587  0.17213  1.0000
  H   H799      1.0  0.58941  0.41510  0.14056  1.0000
  H   H800      1.0  0.54847  0.39289  0.14377  1.0000
  H   H801      1.0  0.52568  0.42548  0.18336  1.0000
  H   H802      1.0  0.56657  0.44759  0.18018  1.0000
  H   H803      1.0  0.43058  0.06620  0.05564  1.0000
  Fe  Fe110     1.0  0.38382  0.22433  0.07066  1.0000
  N   N48       1.0  0.44956  0.11502  0.09469  1.0000
  C   C530      1.0  0.44822  0.13636  0.10081  1.0000
  C   C531      1.0  0.42734  0.09600  0.10250  1.0000
  C   C532      1.0  0.46858  0.10654  0.09969  1.0000
  C   C533      1.0  0.45412  0.12113  0.07580  1.0000
  H   H804      1.0  0.44502  0.13234  0.11501  1.0000
  H   H805      1.0  0.43389  0.14315  0.09748  1.0000
  H   H806      1.0  0.46457  0.15119  0.09495  1.0000
  H   H807      1.0  0.42346  0.09065  0.11674  1.0000
  H   H808      1.0  0.41259  0.10196  0.09910  1.0000
  H   H809      1.0  0.42771  0.07973  0.09796  1.0000
  H   H810      1.0  0.46551  0.10138  0.11388  1.0000
  H   H811      1.0  0.48559  0.12050  0.09420  1.0000
  H   H812      1.0  0.47028  0.09065  0.09512  1.0000
  H   H813      1.0  0.45510  0.10531  0.07082  1.0000
  H   H814      1.0  0.47074  0.13540  0.06942  1.0000
  H   H815      1.0  0.44007  0.12761  0.07159  1.0000
  H   H816      1.0  0.51850  0.38051  0.20334  1.0000
  H   H817      1.0  0.43091  0.08438  0.20356  1.0000
  H   H818      1.0  0.37035  0.32887  0.20809  1.0000
  H   H819      1.0  0.53430  0.34831  0.23042  1.0000
  H   H820      1.0  0.35361  0.28363  0.10539  1.0000
  Fe  Fe111     1.0  0.62270  0.47861  0.16915  1.0000
  C   C534      1.0  0.40124  0.30414  0.11885  1.0000
  S   S213      1.0  0.38343  0.13034  0.23633  1.0000
  C   C535      1.0  0.58745  0.02408  0.12929  1.0000
  H   H821      1.0  0.48742  0.02951  0.05701  1.0000
  C   C536      1.0  0.54442  0.35446  0.21668  1.0000
  C   C537      1.0  0.57522  0.05984  0.12306  1.0000
  C   C538      1.0  0.54359  0.35672  0.18732  1.0000
  S   S214      1.0  0.61694  0.02875  0.17783  1.0000
  H   H822      1.0  0.54314  0.05591  0.11572  1.0000
  H   H823      1.0  0.55871  0.34588  0.21527  1.0000
  Fe  Fe112     1.0  0.35200  0.06280  0.02960  1.0000
  S   S215      1.0  0.47691  0.01890  0.14797  1.0000
  H   H824      1.0  0.35758  0.02945  0.19579  1.0000
  C   C539      1.0  0.37163  0.32335  0.11458  1.0000
  H   H825      1.0  0.35481  0.22311  0.11284  1.0000
  H   H826      1.0  0.41316  0.31521  0.10619  1.0000
  H   H827      1.0  0.39939  0.17885  0.23790  1.0000
  H   H828      1.0  0.50763  0.31748  0.20152  1.0000
  C   C540      1.0  0.37521  0.02968  0.19727  1.0000
  H   H829      1.0  0.35321  0.32104  0.11432  1.0000
  H   H830      1.0  0.52787  0.03304  0.04129  1.0000
  S   S216      1.0  0.60047  0.49147  0.18828  1.0000
  H   H831      1.0  0.35761  0.16365  0.22963  1.0000
  H   H832      1.0  0.35469  0.26337  0.22628  1.0000
  Fe  Fe113     1.0  0.35170  0.04303  0.24064  1.0000
  C   C541      1.0  0.35368  0.28204  0.22414  1.0000
  C   C542      1.0  0.52104  0.02856  0.18611  1.0000
  N   N49       1.0  0.34171  0.16122  0.20895  1.0000
  N   N50       1.0  0.37663  0.30012  0.11872  1.0000
  S   S217      1.0  0.47484  0.08565  0.14662  1.0000
  C   C543      1.0  0.51868  0.32251  0.21006  1.0000
  C   C544      1.0  0.34542  0.19661  0.02792  1.0000
  Fe  Fe114     1.0  0.35442  0.01351  0.04563  1.0000
  N   N51       1.0  0.57515  0.50486  0.13422  1.0000
  H   H833      1.0  0.39786  0.04200  0.04772  1.0000
  N   N52       1.0  0.51072  0.01231  0.06725  1.0000
  S   S218      1.0  0.36193  0.24222  0.05666  1.0000
  H   H834      1.0  0.50047  0.35567  0.22101  1.0000
  H   H835      1.0  0.53258  0.35399  0.17833  1.0000
  S   S219      1.0  0.45658  0.05393  0.07945  1.0000
  S   S220      1.0  0.62733  0.49482  0.22731  1.0000
  H   H836      1.0  0.36419  0.29477  0.14595  1.0000
  H   H837      1.0  0.38305  0.29789  0.09256  1.0000
  H   H838      1.0  0.50839  0.02939  0.08761  1.0000
  C   C545      1.0  0.51106  0.36076  0.20743  1.0000
  S   S221      1.0  0.36781  0.03700  0.01865  1.0000
  H   H839      1.0  0.52020  0.04958  0.06661  1.0000
  H   H840      1.0  0.36498  0.26805  0.13943  1.0000
  H   H841      1.0  0.57561  0.46905  0.13396  1.0000
  H   H842      1.0  0.50741  0.31583  0.22352  1.0000
  H   H843      1.0  0.53201  0.31269  0.20900  1.0000
  H   H844      1.0  0.41175  0.30970  0.21072  1.0000
  C   C546      1.0  0.47146  0.05581  0.17747  1.0000
  H   H845      1.0  0.54278  0.07421  0.16835  1.0000
  H   H846      1.0  0.40523  0.31382  0.12851  1.0000
  C   C547      1.0  0.44202  0.07626  0.19630  1.0000
  H   H847      1.0  0.34556  0.20400  0.24451  1.0000
  H   H848      1.0  0.55297  0.37610  0.18368  1.0000
  H   H849      1.0  0.35929  0.27673  0.00195  1.0000
  C   C548      1.0  0.40494  0.03366  0.05748  1.0000
  H   H850      1.0  0.44999  0.20187  0.14715  1.0000
  S   S222      1.0  0.34183  0.04072  0.05688  1.0000
  H   H851      1.0  0.47855  0.21741  0.13323  1.0000
  H   H852      1.0  0.35539  0.20875  0.16580  1.0000
  C   C549      1.0  0.39503  0.29732  0.21094  1.0000
  H   H853      1.0  0.36747  0.01926  0.16851  1.0000
  C   C550      1.0  0.54940  0.06042  0.16338  1.0000
  H   H854      1.0  0.37292  0.14955  0.02784  1.0000
  H   H855      1.0  0.37477  0.33336  0.12425  1.0000
  N   N53       1.0  0.37557  0.29859  0.22432  1.0000
  H   H856      1.0  0.55651  0.48129  0.15918  1.0000
  H   H857      1.0  0.36199  0.15991  0.18476  1.0000
  H   H858      1.0  0.43330  0.25713  0.15068  1.0000
  C   C551      1.0  0.37999  0.29182  0.24132  1.0000
  H   H859      1.0  0.42294  0.22514  0.15653  1.0000
  C   C552      1.0  0.44746  0.05627  0.20463  1.0000
  C   C553      1.0  0.36151  0.28561  0.13579  1.0000
  H   H860      1.0  0.56815  0.06874  0.15647  1.0000
  C   C554      1.0  0.37214  0.28738  0.10566  1.0000
  C   C555      1.0  0.36415  0.16705  0.19594  1.0000
  H   H861      1.0  0.39599  0.28844  0.00965  1.0000
  S   S223      1.0  0.43964  0.03922  0.12976  1.0000
  C   C556      1.0  0.58702  0.48775  0.12869  1.0000
  H   H862      1.0  0.60297  0.48849  0.13322  1.0000
  C   C557      1.0  0.55184  0.02271  0.12044  1.0000
  H   H863      1.0  0.55688  0.34706  0.18501  1.0000
  H   H864      1.0  0.55225  0.05897  0.19567  1.0000
  S   S224      1.0  0.38320  0.07132  0.22297  1.0000
  S   S225      1.0  0.43493  0.04265  0.22656  1.0000
  H   H865      1.0  0.57804  0.07866  0.12214  1.0000
  H   H866      1.0  0.33874  0.28229  0.23430  1.0000
  C   C558      1.0  0.55543  0.04696  0.11947  1.0000
  H   H867      1.0  0.57772  0.05423  0.18337  1.0000
  C   C559      1.0  0.34549  0.17115  0.22343  1.0000
  H   H868      1.0  0.54170  0.48444  0.13360  1.0000
  H   H869      1.0  0.48302  0.04808  0.17029  1.0000
  H   H870      1.0  0.44466  0.24008  0.16548  1.0000
  H   H871      1.0  0.34601  0.36658  0.16778  1.0000
  Fe  Fe115     1.0  0.46210  0.03853  0.10492  1.0000
  H   H872      1.0  0.55254  0.37408  0.21360  1.0000
  C   C560      1.0  0.56883  0.49943  0.15314  1.0000
  S   S226      1.0  0.65248  0.48220  0.18155  1.0000
  C   C561      1.0  0.37761  0.13822  0.03770  1.0000
  N   N54       1.0  0.45718  0.23998  0.13916  1.0000
  C   C562      1.0  0.44811  0.23958  0.12398  1.0000
  C   C563      1.0  0.47720  0.26140  0.13513  1.0000
  C   C564      1.0  0.46471  0.21837  0.14394  1.0000
  C   C565      1.0  0.43869  0.24053  0.15361  1.0000
  H   H873      1.0  0.43362  0.22316  0.12632  1.0000
  H   H874      1.0  0.46184  0.24020  0.11257  1.0000
  H   H875      1.0  0.44125  0.25504  0.12050  1.0000
  H   H876      1.0  0.48434  0.26248  0.14636  1.0000
  H   H877      1.0  0.49153  0.26172  0.12424  1.0000
  H   H878      1.0  0.47225  0.27804  0.13134  1.0000
  H   H879      1.0  0.47179  0.21814  0.15531  1.0000
  Fe  Fe116     1.0  0.49606  0.01991  0.12149  1.0000
  C   C566      1.0  0.55882  0.04586  0.18974  1.0000
  H   H880      1.0  0.39631  0.03919  0.16367  1.0000
  H   H881      1.0  0.38148  0.24689  0.00977  1.0000
  C   C567      1.0  0.35747  0.21524  0.13888  1.0000
  Fe  Fe117     1.0  0.40323  0.05258  0.23794  1.0000
  H   H882      1.0  0.57410  0.02845  0.16381  1.0000
  S   S227      1.0  0.36571  0.10295  0.02188  1.0000
  H   H883      1.0  0.34939  0.28698  0.21172  1.0000
  Fe  Fe118     1.0  0.63122  0.49783  0.19924  1.0000
  H   H884      1.0  0.53736  0.03266  0.07614  1.0000
  C   C568      1.0  0.34723  0.22277  0.12594  1.0000
  H   H885      1.0  0.37219  0.18668  0.19098  1.0000
  Fe  Fe119     1.0  0.37971  0.09091  0.24327  1.0000
  H   H886      1.0  0.42042  0.03396  0.18344  1.0000
  H   H887      1.0  0.55719  0.03008  0.20026  1.0000
  C   C569      1.0  0.38525  0.02058  0.17007  1.0000
  N   N55       1.0  0.38485  0.01365  0.18838  1.0000
  C   C570      1.0  0.52653  0.01578  0.05024  1.0000
  H   H888      1.0  0.51105  0.02299  0.17708  1.0000
  N   N56       1.0  0.54608  0.03902  0.17735  1.0000
  H   H889      1.0  0.59232  0.49140  0.11448  1.0000
  H   H890      1.0  0.37359  0.02428  0.21129  1.0000
  H   H891      1.0  0.34369  0.12657  0.22116  1.0000
  H   H892      1.0  0.58444  0.50015  0.15801  1.0000
  C   C571      1.0  0.40873  0.01564  0.18990  1.0000
  H   H893      1.0  0.35298  0.19090  0.21906  1.0000
  H   H894      1.0  0.40920  0.01153  0.20357  1.0000
  H   H895      1.0  0.59957  0.01509  0.13329  1.0000
  C   C572      1.0  0.55387  0.50282  0.12827  1.0000
  C   C573      1.0  0.48728  0.01227  0.06539  1.0000
  S   S228      1.0  0.65793  0.05961  0.20209  1.0000
  C   C574      1.0  0.33760  0.23931  0.03260  1.0000
  H   H896      1.0  0.39227  0.00874  0.16299  1.0000
  H   H897      1.0  0.33441  0.25578  0.03447  1.0000
  S   S229      1.0  0.64216  0.01071  0.14563  1.0000
  C   C575      1.0  0.56804  0.01136  0.12512  1.0000
  S   S230      1.0  0.66295  0.01090  0.17932  1.0000
  H   H898      1.0  0.66472  0.47572  0.21454  1.0000
  H   H899      1.0  0.33985  0.11289  0.07613  1.0000
  H   H900      1.0  0.54437  0.01592  0.05121  1.0000
  H   H901      1.0  0.54648  0.01626  0.16027  1.0000
  C   C576      1.0  0.42350  0.01224  0.08271  1.0000
  H   H902      1.0  0.33641  0.06984  0.08254  1.0000
  H   H903      1.0  0.51788  0.01251  0.19685  1.0000
  C   C577      1.0  0.33332  0.20802  0.01785  1.0000
  C   C578      1.0  0.38749  0.14246  0.25347  1.0000
  H   H904      1.0  0.46827  0.25156  0.37349  1.0000
  S   S231      1.0  0.43682  0.05171  0.40973  1.0000
  H   H905      1.0  0.41088  0.09216  0.29613  1.0000
  C   C579      1.0  0.43071  0.04126  0.30316  1.0000
  H   H906      1.0  0.48241  0.48264  0.41515  1.0000
  H   H907      1.0  0.47257  0.42530  0.44737  1.0000
  S   S232      1.0  0.47651  0.04020  0.36992  1.0000
  Fe  Fe120     1.0  0.62401  0.05310  0.39913  1.0000
  H   H908      1.0  0.49049  0.42250  0.42821  1.0000
  S   S233      1.0  0.59341  0.06521  0.39329  1.0000
  H   H909      1.0  0.38559  0.00983  0.45406  1.0000
  S   S234      1.0  0.63576  0.05405  0.42311  1.0000
  H   H910      1.0  0.47087  0.27544  0.40296  1.0000
  H   H911      1.0  0.35184  0.27196  0.46537  1.0000
  Fe  Fe121     1.0  0.40518  0.21301  0.29474  1.0000
  Fe  Fe122     1.0  0.43051  0.26465  0.27585  1.0000
  S   S235      1.0  0.40604  0.27888  0.29218  1.0000
  Fe  Fe123     1.0  0.40936  0.25168  0.31394  1.0000
  S   S236      1.0  0.41147  0.25849  0.33949  1.0000
  Fe  Fe124     1.0  0.37819  0.24911  0.28963  1.0000
  S   S237      1.0  0.43586  0.23927  0.29778  1.0000
  S   S238      1.0  0.40233  0.23740  0.27130  1.0000
  C   C580      1.0  0.50860  0.03707  0.41930  1.0000
  C   C581      1.0  0.38284  0.12751  0.26994  1.0000
  Fe  Fe125     1.0  0.47832  0.36865  0.36240  1.0000
  S   S239      1.0  0.47472  0.40424  0.36521  1.0000
  S   S240      1.0  0.47696  0.35831  0.33781  1.0000
  Fe  Fe126     1.0  0.48367  0.35366  0.39806  1.0000
  S   S241      1.0  0.48007  0.38770  0.40434  1.0000
  S   S242      1.0  0.48640  0.32055  0.41512  1.0000
  Fe  Fe127     1.0  0.45146  0.38383  0.39125  1.0000
  S   S243      1.0  0.41701  0.39079  0.39946  1.0000
  Fe  Fe128     1.0  0.50369  0.40555  0.37800  1.0000
  S   S244      1.0  0.53114  0.44068  0.37243  1.0000
  S   S245      1.0  0.45272  0.34822  0.38753  1.0000
  S   S246      1.0  0.50973  0.37181  0.37257  1.0000
  C   C582      1.0  0.55519  0.46380  0.41680  1.0000
  C   C583      1.0  0.56056  0.48014  0.40079  1.0000
  C   C584      1.0  0.55275  0.47292  0.38735  1.0000
  C   C585      1.0  0.53981  0.44929  0.38977  1.0000
  C   C586      1.0  0.53446  0.43294  0.40578  1.0000
  C   C587      1.0  0.54186  0.44027  0.41934  1.0000
  H   H912      1.0  0.55676  0.48571  0.37502  1.0000
  H   H913      1.0  0.52497  0.41455  0.40767  1.0000
  H   H914      1.0  0.53774  0.42753  0.43170  1.0000
  C   C588      1.0  0.39272  0.37969  0.45729  1.0000
  C   C589      1.0  0.41319  0.37480  0.45005  1.0000
  C   C590      1.0  0.41998  0.37696  0.43242  1.0000
  C   C591      1.0  0.40694  0.38516  0.42181  1.0000
  C   C592      1.0  0.38626  0.38980  0.42906  1.0000
  C   C593      1.0  0.37896  0.38674  0.44686  1.0000
  H   H915      1.0  0.42365  0.36901  0.45817  1.0000
  H   H916      1.0  0.43541  0.37243  0.42708  1.0000
  H   H917      1.0  0.37600  0.39601  0.42091  1.0000
  C   C594      1.0  0.44706  0.31251  0.47014  1.0000
  C   C595      1.0  0.45652  0.33503  0.45853  1.0000
  C   C596      1.0  0.46903  0.33744  0.44180  1.0000
  C   C597      1.0  0.47202  0.31737  0.43651  1.0000
  C   C598      1.0  0.46299  0.29478  0.44824  1.0000
  C   C599      1.0  0.45044  0.29232  0.46511  1.0000
  H   H918      1.0  0.45430  0.35068  0.46252  1.0000
  H   H919      1.0  0.47680  0.35492  0.43315  1.0000
  H   H920      1.0  0.46543  0.27919  0.44426  1.0000
  H   H921      1.0  0.44326  0.27486  0.47412  1.0000
  C   C600      1.0  0.42961  0.28631  0.33875  1.0000
  C   C601      1.0  0.42987  0.29272  0.35409  1.0000
  C   C602      1.0  0.44461  0.31454  0.35398  1.0000
  C   C603      1.0  0.45900  0.33027  0.33848  1.0000
  C   C604      1.0  0.45861  0.32394  0.32311  1.0000
  C   C605      1.0  0.44398  0.30198  0.32323  1.0000
  H   H922      1.0  0.41865  0.28066  0.36610  1.0000
  H   H923      1.0  0.44469  0.31908  0.36590  1.0000
  H   H924      1.0  0.46967  0.33601  0.31105  1.0000
  H   H925      1.0  0.44392  0.29712  0.31132  1.0000
  Fe  Fe129     1.0  0.59989  0.49918  0.42651  1.0000
  H   H926      1.0  0.62387  0.01030  0.32727  1.0000
  S   S247      1.0  0.56435  0.47259  0.43391  1.0000
  H   H927      1.0  0.40103  0.29494  0.46574  1.0000
  C   C606      1.0  0.37218  0.30158  0.49258  1.0000
  C   C607      1.0  0.43856  0.02948  0.46555  1.0000
  C   C608      1.0  0.46988  0.27094  0.37131  1.0000
  H   H928      1.0  0.45328  0.27263  0.37872  1.0000
  H   H929      1.0  0.41202  0.37348  0.32006  1.0000
  H   H930      1.0  0.47545  0.31182  0.38093  1.0000
  C   C609      1.0  0.61394  0.48503  0.37423  1.0000
  H   H931      1.0  0.52698  0.29019  0.36994  1.0000
  H   H932      1.0  0.37641  0.10837  0.27222  1.0000
  C   C610      1.0  0.42910  0.03968  0.32055  1.0000
  H   H933      1.0  0.38503  0.38494  0.36101  1.0000
  C   C611      1.0  0.62542  0.04504  0.35502  1.0000
  Fe  Fe130     1.0  0.37035  0.04650  0.27202  1.0000
  H   H934      1.0  0.36308  0.39051  0.45243  1.0000
  H   H935      1.0  0.42697  0.06029  0.46800  1.0000
  C   C612      1.0  0.39000  0.30675  0.46269  1.0000
  H   H936      1.0  0.37101  0.03243  0.33436  1.0000
  C   C613      1.0  0.55542  0.05292  0.38105  1.0000
  C   C614      1.0  0.57060  0.04455  0.38962  1.0000
  H   H937      1.0  0.40174  0.34427  0.33491  1.0000
  S   S248      1.0  0.45456  0.04309  0.32756  1.0000
  H   H938      1.0  0.65015  0.46740  0.36785  1.0000
  H   H939      1.0  0.55818  0.07193  0.37642  1.0000
  H   H940      1.0  0.43206  0.36004  0.32830  1.0000
  H   H941      1.0  0.49330  0.31755  0.35949  1.0000
  H   H942      1.0  0.36554  0.26205  0.48165  1.0000
  C   C615      1.0  0.43143  0.04945  0.45956  1.0000
  C   C616      1.0  0.43064  0.05590  0.44245  1.0000
  C   C617      1.0  0.43684  0.04235  0.43129  1.0000
  S   S249      1.0  0.34672  0.06421  0.26006  1.0000
  H   H943      1.0  0.35982  0.22136  0.26616  1.0000
  H   H944      1.0  0.63044  0.49697  0.37476  1.0000
  S   S250      1.0  0.37908  0.22309  0.31300  1.0000
  S   S251      1.0  0.40026  0.17348  0.29794  1.0000
  H   H945      1.0  0.42763  0.40913  0.33041  1.0000
  C   C618      1.0  0.58497  0.48439  0.49272  1.0000
  H   H946      1.0  0.42542  0.07160  0.43783  1.0000
  H   H947      1.0  0.59406  0.50065  0.48188  1.0000
  H   H948      1.0  0.38266  0.12562  0.29623  1.0000
  H   H949      1.0  0.50165  0.28273  0.39932  1.0000
  C   C619      1.0  0.59592  0.45472  0.36196  1.0000
  N   N57       1.0  0.51554  0.05455  0.42895  1.0000
  H   H950      1.0  0.54229  0.47682  0.48751  1.0000
  H   H951      1.0  0.50615  0.08492  0.43512  1.0000
  S   S252      1.0  0.43031  0.31021  0.49059  1.0000
  H   H952      1.0  0.34876  0.16281  0.27859  1.0000
  H   H953      1.0  0.52523  0.04347  0.37163  1.0000
  S   S253      1.0  0.62895  0.48346  0.42973  1.0000
  H   H954      1.0  0.58440  0.01229  0.34054  1.0000
  S   S254      1.0  0.62672  0.01632  0.39936  1.0000
  H   H955      1.0  0.33374  0.18489  0.31669  1.0000
  H   H956      1.0  0.59569  0.04425  0.33532  1.0000
  H   H957      1.0  0.46019  0.40682  0.43515  1.0000
  H   H958      1.0  0.57828  0.01328  0.40235  1.0000
  H   H959      1.0  0.44015  0.46082  0.42488  1.0000
  C   C620      1.0  0.51211  0.04183  0.44704  1.0000
  H   H960      1.0  0.38235  0.32008  0.49162  1.0000
  H   H961      1.0  0.49051  0.02554  0.42534  1.0000
  H   H962      1.0  0.51108  0.26172  0.36843  1.0000
  H   H963      1.0  0.42057  0.08637  0.31519  1.0000
  H   H964      1.0  0.54621  0.08159  0.42802  1.0000
  S   S255      1.0  0.38519  0.37710  0.47935  1.0000
  H   H965      1.0  0.47147  0.27827  0.35744  1.0000
  H   H966      1.0  0.49352  0.03181  0.45333  1.0000
  H   H967      1.0  0.43136  0.35504  0.35927  1.0000
  C   C621      1.0  0.54031  0.06799  0.42127  1.0000
  C   C622      1.0  0.56704  0.01997  0.39540  1.0000
  H   H968      1.0  0.50345  0.46639  0.41648  1.0000
  S   S256      1.0  0.44008  0.02171  0.48681  1.0000
  C   C623      1.0  0.63130  0.02494  0.33270  1.0000
  C   C624      1.0  0.50120  0.07127  0.42817  1.0000
  H   H969      1.0  0.51428  0.28846  0.35236  1.0000
  H   H970      1.0  0.44855  0.01168  0.42889  1.0000
  H   H971      1.0  0.63706  0.44490  0.35858  1.0000
  C   C625      1.0  0.41433  0.36229  0.33176  1.0000
  H   H972      1.0  0.45954  0.08696  0.29805  1.0000
  C   C626      1.0  0.53672  0.03684  0.37836  1.0000
  H   H973      1.0  0.50942  0.04611  0.40591  1.0000
  C   C627      1.0  0.51153  0.28084  0.36636  1.0000
  C   C628      1.0  0.65620  0.50012  0.24819  1.0000
  C   C629      1.0  0.38787  0.37679  0.35005  1.0000
  C   C630      1.0  0.63001  0.48648  0.34467  1.0000
  H   H974      1.0  0.41232  0.04060  0.28361  1.0000
  N   N58       1.0  0.36767  0.29940  0.47603  1.0000
  N   N59       1.0  0.57275  0.46465  0.48672  1.0000
  H   H975      1.0  0.35143  0.14538  0.30833  1.0000
  H   H976      1.0  0.58633  0.44273  0.37497  1.0000
  H   H977      1.0  0.48246  0.06177  0.43411  1.0000
  S   S257      1.0  0.45902  0.29086  0.25403  1.0000
  C   C631      1.0  0.40748  0.03625  0.33182  1.0000
  C   C632      1.0  0.41368  0.35735  0.36159  1.0000
  H   H978      1.0  0.64788  0.02244  0.33508  1.0000
  H   H979      1.0  0.64197  0.04359  0.35789  1.0000
  S   S258      1.0  0.36425  0.03469  0.30081  1.0000
  H   H980      1.0  0.48607  0.44088  0.39968  1.0000
  H   H981      1.0  0.40661  0.19599  0.26178  1.0000
  C   C633      1.0  0.40478  0.15838  0.49541  1.0000
  C   C634      1.0  0.55551  0.47215  0.47844  1.0000
  H   H982      1.0  0.37400  0.35954  0.35352  1.0000
  H   H983      1.0  0.57049  0.49843  0.39883  1.0000
  N   N60       1.0  0.44402  0.11573  0.29470  1.0000
  C   C635      1.0  0.44282  0.13460  0.28051  1.0000
  C   C636      1.0  0.42026  0.10083  0.30443  1.0000
  C   C637      1.0  0.45559  0.12678  0.30629  1.0000
  C   C638      1.0  0.45739  0.10068  0.28762  1.0000
  H   H984      1.0  0.46043  0.14568  0.27249  1.0000
  H   H985      1.0  0.43377  0.14691  0.28547  1.0000
  H   H986      1.0  0.43325  0.12692  0.27192  1.0000
  H   H987      1.0  0.40978  0.11161  0.31007  1.0000
  H   H988      1.0  0.44593  0.13829  0.31185  1.0000
  H   H989      1.0  0.47358  0.13812  0.29941  1.0000
  H   H990      1.0  0.45669  0.11296  0.31718  1.0000
  C   C639      1.0  0.39499  0.16204  0.28069  1.0000
  H   H991      1.0  0.47511  0.11145  0.27964  1.0000
  H   H992      1.0  0.44855  0.09117  0.27944  1.0000
  N   N61       1.0  0.41122  0.37323  0.34627  1.0000
  S   S259      1.0  0.38344  0.04324  0.49647  1.0000
  H   H993      1.0  0.51748  0.05447  0.45463  1.0000
  H   H994      1.0  0.43093  0.42897  0.43311  1.0000
  H   H995      1.0  0.40020  0.32521  0.46169  1.0000
  H   H996      1.0  0.40609  0.03531  0.34521  1.0000
  H   H997      1.0  0.39557  0.16195  0.48579  1.0000
  H   H998      1.0  0.58127  0.44414  0.46898  1.0000
  H   H999      1.0  0.52243  0.02880  0.44803  1.0000
  H   H1000     1.0  0.44733  0.04360  0.29440  1.0000
  H   H1001     1.0  0.54370  0.07744  0.40751  1.0000
  H   H1002     1.0  0.58039  0.02754  0.35697  1.0000
  H   H1003     1.0  0.50628  0.31922  0.37701  1.0000
  C   C640      1.0  0.48693  0.27342  0.39496  1.0000
  C   C641      1.0  0.58979  0.45858  0.47417  1.0000
  H   H1004     1.0  0.50295  0.08081  0.41468  1.0000
  H   H1005     1.0  0.48572  0.46924  0.43572  1.0000
  S   S260      1.0  0.37207  0.02261  0.25426  1.0000
  Fe  Fe131     1.0  0.66327  0.03482  0.38332  1.0000
  Fe  Fe132     1.0  0.44492  0.02861  0.39238  1.0000
  H   H1006     1.0  0.55145  0.42830  0.49735  1.0000
  H   H1007     1.0  0.60297  0.49653  0.37048  1.0000
  C   C642      1.0  0.49132  0.30916  0.37327  1.0000
  H   H1008     1.0  0.42765  0.40494  0.35263  1.0000
  C   C643      1.0  0.38766  0.03476  0.32564  1.0000
  H   H1009     1.0  0.48577  0.25410  0.39796  1.0000
  H   H1010     1.0  0.38537  0.38878  0.33879  1.0000
  N   N62       1.0  0.61826  0.47054  0.36208  1.0000
  H   H1011     1.0  0.62923  0.06250  0.34548  1.0000
  C   C644      1.0  0.38933  0.03656  0.30821  1.0000
  C   C645      1.0  0.35534  0.27434  0.47767  1.0000
  H   H1012     1.0  0.60507  0.47360  0.38752  1.0000
  C   C646      1.0  0.38645  0.13730  0.28352  1.0000
  N   N63       1.0  0.48991  0.28356  0.37647  1.0000
  N   N64       1.0  0.46799  0.44448  0.42386  1.0000
  C   C647      1.0  0.46871  0.44184  0.40637  1.0000
  C   C648      1.0  0.47304  0.42389  0.43410  1.0000
  C   C649      1.0  0.44460  0.44548  0.43220  1.0000
  C   C650      1.0  0.48563  0.46668  0.42277  1.0000
  C   C651      1.0  0.42911  0.39647  0.34177  1.0000
  H   H1013     1.0  0.46509  0.45714  0.39829  1.0000
  H   H1014     1.0  0.52007  0.02514  0.41861  1.0000
  H   H1015     1.0  0.56397  0.48803  0.46722  1.0000
  H   H1016     1.0  0.45547  0.42539  0.40667  1.0000
  Fe  Fe133     1.0  0.64140  0.01861  0.42178  1.0000
  H   H1017     1.0  0.64378  0.50726  0.25521  1.0000
  H   H1018     1.0  0.61369  0.04556  0.36705  1.0000
  H   H1019     1.0  0.63372  0.47622  0.33513  1.0000
  C   C652      1.0  0.41091  0.03970  0.29700  1.0000
  H   H1020     1.0  0.36170  0.33383  0.47039  1.0000
  S   S261      1.0  0.42020  0.01812  0.37698  1.0000
  C   C653      1.0  0.63322  0.45597  0.36750  1.0000
  H   H1021     1.0  0.38740  0.30625  0.44984  1.0000
  H   H1022     1.0  0.41553  0.19510  0.49611  1.0000
  H   H1023     1.0  0.64686  0.49871  0.34433  1.0000
  H   H1024     1.0  0.44326  0.44724  0.44549  1.0000
  H   H1025     1.0  0.60316  0.45286  0.47988  1.0000
  C   C654      1.0  0.44363  0.02214  0.43737  1.0000
  S   S262      1.0  0.34444  0.25360  0.28497  1.0000
  Fe  Fe134     1.0  0.45181  0.02589  0.35530  1.0000
  H   H1026     1.0  0.58430  0.46514  0.35773  1.0000
  H   H1027     1.0  0.55169  0.05595  0.42185  1.0000
  C   C655      1.0  0.39555  0.16722  0.25067  1.0000
  H   H1028     1.0  0.44695  0.39435  0.33859  1.0000
  C   C656      1.0  0.44466  0.01580  0.45445  1.0000
  H   H1029     1.0  0.40107  0.33930  0.36509  1.0000
  H   H1030     1.0  0.41093  0.36476  0.37293  1.0000
  C   C657      1.0  0.34504  0.22529  0.26250  1.0000
  S   S263      1.0  0.40303  0.07501  0.25659  1.0000
  C   C658      1.0  0.33405  0.24013  0.26999  1.0000
  C   C659      1.0  0.35316  0.31490  0.47129  1.0000
  N   N65       1.0  0.61503  0.02487  0.34865  1.0000
  H   H1031     1.0  0.61928  0.49785  0.34019  1.0000
  C   C660      1.0  0.33629  0.18375  0.30319  1.0000
  H   H1032     1.0  0.62490  0.44381  0.38062  1.0000
  S   S264      1.0  0.38960  0.11153  0.49536  1.0000
  C   C661      1.0  0.39949  0.17699  0.26423  1.0000
  C   C662      1.0  0.59293  0.02734  0.34518  1.0000
  H   H1033     1.0  0.59849  0.44327  0.35310  1.0000
  S   S265      1.0  0.65980  0.07171  0.38144  1.0000
  H   H1034     1.0  0.63581  0.04213  0.32270  1.0000
  H   H1035     1.0  0.33835  0.26839  0.48754  1.0000
  C   C663      1.0  0.53310  0.01225  0.38421  1.0000
  H   H1036     1.0  0.54624  0.45781  0.47349  1.0000
  H   H1037     1.0  0.38212  0.28929  0.49695  1.0000
  H   H1038     1.0  0.59924  0.47428  0.46309  1.0000
  H   H1039     1.0  0.35535  0.18843  0.29728  1.0000
  S   S266      1.0  0.64578  0.50320  0.46967  1.0000
  H   H1040     1.0  0.33603  0.30951  0.48101  1.0000
  H   H1041     1.0  0.34975  0.31417  0.45869  1.0000
  Fe  Fe135     1.0  0.34714  0.36799  0.49271  1.0000
  H   H1042     1.0  0.36572  0.29268  0.25177  1.0000
  C   C664      1.0  0.33671  0.21516  0.25032  1.0000
  H   H1043     1.0  0.57333  0.43739  0.50799  1.0000
  C   C665      1.0  0.41300  0.01265  0.60647  1.0000
  H   H1044     1.0  0.43735  0.21991  0.57835  1.0000
  H   H1045     1.0  0.39629  0.34432  0.55733  1.0000
  C   C666      1.0  0.63106  0.48094  0.55266  1.0000
  H   H1046     1.0  0.47641  0.20500  0.54406  1.0000
  S   S267      1.0  0.36671  0.35169  0.72163  1.0000
  C   C667      1.0  0.41543  0.03219  0.59286  1.0000
  H   H1047     1.0  0.39523  0.18858  0.73657  1.0000
  C   C668      1.0  0.47567  0.47164  0.62544  1.0000
  S   S268      1.0  0.41615  0.05368  0.56030  1.0000
  S   S269      1.0  0.37188  0.40940  0.68667  1.0000
  C   C669      1.0  0.41599  0.17714  0.50129  1.0000
  Fe  Fe136     1.0  0.48708  0.43966  0.58039  1.0000
  S   S270      1.0  0.48991  0.40328  0.59169  1.0000
  S   S271      1.0  0.51311  0.47544  0.57629  1.0000
  Fe  Fe137     1.0  0.43852  0.41951  0.57596  1.0000
  S   S272      1.0  0.43737  0.38177  0.58714  1.0000
  S   S273      1.0  0.40958  0.42964  0.56616  1.0000
  Fe  Fe138     1.0  0.45278  0.39625  0.60651  1.0000
  S   S274      1.0  0.43941  0.37575  0.63429  1.0000
  Fe  Fe139     1.0  0.47418  0.39232  0.57120  1.0000
  S   S275      1.0  0.48600  0.37079  0.55355  1.0000
  S   S276      1.0  0.45093  0.43333  0.59670  1.0000
  S   S277      1.0  0.47444  0.42942  0.55855  1.0000
  Fe  Fe140     1.0  0.42349  0.22433  0.52219  1.0000
  S   S278      1.0  0.44208  0.26074  0.52329  1.0000
  S   S279      1.0  0.44158  0.19578  0.52160  1.0000
  H   H1048     1.0  0.49556  0.26242  0.55559  1.0000
  S   S280      1.0  0.39023  0.26989  0.53166  1.0000
  C   C670      1.0  0.47295  0.44802  0.65370  1.0000
  H   H1049     1.0  0.50950  0.48677  0.64047  1.0000
  Fe  Fe141     1.0  0.41268  0.25474  0.54624  1.0000
  S   S281      1.0  0.41999  0.26577  0.56946  1.0000
  C   C671      1.0  0.34939  0.12620  0.52566  1.0000
  S   S282      1.0  0.39572  0.21709  0.54647  1.0000
  H   H1050     1.0  0.47347  0.23288  0.53355  1.0000
  H   H1051     1.0  0.49803  0.44242  0.61462  1.0000
  H   H1052     1.0  0.38034  0.15662  0.53534  1.0000
  H   H1053     1.0  0.49989  0.23186  0.53929  1.0000
  H   H1054     1.0  0.36354  0.38166  0.64777  1.0000
  H   H1055     1.0  0.61521  0.46567  0.55924  1.0000
  H   H1056     1.0  0.34751  0.40102  0.54015  1.0000
  C   C672      1.0  0.35296  0.36901  0.62027  1.0000
  N   N66       1.0  0.47090  0.22802  0.56050  1.0000
  Fe  Fe142     1.0  0.40423  0.04763  0.53727  1.0000
  C   C673      1.0  0.48089  0.21627  0.57346  1.0000
  H   H1057     1.0  0.42044  0.05010  0.59432  1.0000
  C   C674      1.0  0.46792  0.34147  0.55829  1.0000
  C   C675      1.0  0.46756  0.32995  0.54517  1.0000
  C   C676      1.0  0.45254  0.30696  0.54844  1.0000
  C   C677      1.0  0.43838  0.29497  0.56500  1.0000
  C   C678      1.0  0.43903  0.30633  0.57821  1.0000
  C   C679      1.0  0.45355  0.32965  0.57482  1.0000
  H   H1058     1.0  0.47867  0.33899  0.53238  1.0000
  H   H1059     1.0  0.45213  0.29858  0.53811  1.0000
  H   H1060     1.0  0.42814  0.29718  0.59106  1.0000
  H   H1061     1.0  0.45391  0.33830  0.58508  1.0000
  C   C680      1.0  0.38817  0.40717  0.56276  1.0000
  C   C681      1.0  0.37522  0.41348  0.55138  1.0000
  C   C682      1.0  0.35742  0.39599  0.54895  1.0000
  C   C683      1.0  0.35191  0.37224  0.55842  1.0000
  C   C684      1.0  0.36459  0.36599  0.57000  1.0000
  C   C685      1.0  0.38309  0.38326  0.57181  1.0000
  H   H1062     1.0  0.37896  0.43196  0.54438  1.0000
  C   C686      1.0  0.34863  0.17266  0.74501  1.0000
  H   H1063     1.0  0.36029  0.34762  0.57740  1.0000
  H   H1064     1.0  0.39298  0.37805  0.58050  1.0000
  C   C687      1.0  0.38761  0.16886  0.74026  1.0000
  C   C688      1.0  0.56049  0.46593  0.60303  1.0000
  C   C689      1.0  0.54303  0.46137  0.59448  1.0000
  C   C690      1.0  0.53590  0.48020  0.58626  1.0000
  H   H1065     1.0  0.33932  0.25835  0.53791  1.0000
  N   N67       1.0  0.34431  0.14172  0.53687  1.0000
  H   H1066     1.0  0.56583  0.45130  0.60948  1.0000
  H   H1067     1.0  0.53504  0.44330  0.59431  1.0000
  H   H1068     1.0  0.52001  0.46096  0.64154  1.0000
  H   H1069     1.0  0.63625  0.50285  0.58697  1.0000
  C   C691      1.0  0.39003  0.39994  0.67178  1.0000
  C   C692      1.0  0.40458  0.41641  0.65657  1.0000
  C   C693      1.0  0.41943  0.40906  0.64473  1.0000
  C   C694      1.0  0.42014  0.38536  0.64826  1.0000
  C   C695      1.0  0.40534  0.36889  0.66330  1.0000
  C   C696      1.0  0.39006  0.37607  0.67488  1.0000
  H   H1070     1.0  0.40439  0.43484  0.65402  1.0000
  H   H1071     1.0  0.43056  0.42180  0.63308  1.0000
  H   H1072     1.0  0.40556  0.35045  0.66598  1.0000
  H   H1073     1.0  0.37828  0.36304  0.68616  1.0000
  Fe  Fe143     1.0  0.39232  0.07506  0.50715  1.0000
  C   C697      1.0  0.48067  0.22431  0.54365  1.0000
  S   S283      1.0  0.42599  0.06973  0.51106  1.0000
  H   H1074     1.0  0.44060  0.02663  0.54233  1.0000
  N   N68       1.0  0.36399  0.39328  0.62124  1.0000
  H   H1075     1.0  0.44846  0.35807  0.52052  1.0000
  H   H1076     1.0  0.42801  0.34519  0.72935  1.0000
  H   H1077     1.0  0.33690  0.40734  0.61445  1.0000
  H   H1078     1.0  0.38402  0.30857  0.72969  1.0000
  C   C698      1.0  0.41135  0.34244  0.54821  1.0000
  H   H1079     1.0  0.33841  0.39036  0.64437  1.0000
  H   H1080     1.0  0.35312  0.12136  0.55787  1.0000
  H   H1081     1.0  0.43053  0.32954  0.52086  1.0000
  C   C699      1.0  0.43163  0.34884  0.51860  1.0000
  H   H1082     1.0  0.36961  0.17340  0.51977  1.0000
  C   C700      1.0  0.51036  0.47161  0.63472  1.0000
  C   C701      1.0  0.38948  0.39876  0.61514  1.0000
  H   H1083     1.0  0.54776  0.44744  0.51121  1.0000
  H   H1084     1.0  0.35578  0.29708  0.50279  1.0000
  H   H1085     1.0  0.39945  0.38180  0.53553  1.0000
  H   H1086     1.0  0.43747  0.22642  0.55631  1.0000
  Fe  Fe144     1.0  0.37649  0.23293  0.52921  1.0000
  H   H1087     1.0  0.38663  0.16325  0.72834  1.0000
  C   C702      1.0  0.41432  0.37842  0.52715  1.0000
  H   H1088     1.0  0.47685  0.19672  0.57477  1.0000
  H   H1089     1.0  0.61765  0.47491  0.58713  1.0000
  H   H1090     1.0  0.50012  0.22368  0.56995  1.0000
  H   H1091     1.0  0.39837  0.41660  0.61628  1.0000
  N   N69       1.0  0.63298  0.49953  0.56206  1.0000
  H   H1092     1.0  0.35459  0.13608  0.51183  1.0000
  H   H1093     1.0  0.36427  0.42937  0.61057  1.0000
  C   C703      1.0  0.41725  0.13052  0.51442  1.0000
  H   H1094     1.0  0.39374  0.28263  0.73474  1.0000
  C   C704      1.0  0.57095  0.48932  0.60335  1.0000
  Fe  Fe145     1.0  0.36558  0.02291  0.52384  1.0000
  H   H1095     1.0  0.46936  0.26329  0.54944  1.0000
  H   H1096     1.0  0.36077  0.41033  0.59660  1.0000
  H   H1097     1.0  0.43043  0.38803  0.52984  1.0000
  H   H1098     1.0  0.41614  0.01551  0.61840  1.0000
  H   H1099     1.0  0.35879  0.35535  0.62824  1.0000
  C   C705      1.0  0.48897  0.43643  0.62855  1.0000
  Fe  Fe146     1.0  0.35158  0.38018  0.71073  1.0000
  H   H1100     1.0  0.49875  0.42571  0.63512  1.0000
  H   H1101     1.0  0.44041  0.19819  0.56634  1.0000
  S   S284      1.0  0.33625  0.38568  0.73646  1.0000
  C   C706      1.0  0.38993  0.34065  0.52689  1.0000
  H   H1102     1.0  0.47163  0.42414  0.62999  1.0000
  C   C707      1.0  0.44543  0.21757  0.56567  1.0000
  H   H1103     1.0  0.38971  0.34805  0.51343  1.0000
  C   C708      1.0  0.36492  0.16238  0.53327  1.0000
  H   H1104     1.0  0.41486  0.38663  0.51364  1.0000
  H   H1105     1.0  0.39608  0.38526  0.62253  1.0000
  C   C709      1.0  0.47649  0.25386  0.55923  1.0000
  H   H1106     1.0  0.64634  0.47374  0.55169  1.0000
  H   H1107     1.0  0.40996  0.32305  0.55086  1.0000
  H   H1108     1.0  0.37458  0.34306  0.53552  1.0000
  H   H1109     1.0  0.63016  0.48813  0.53936  1.0000
  N   N70       1.0  0.41181  0.35259  0.53022  1.0000
  C   C710      1.0  0.41408  0.33694  0.74156  1.0000
  H   H1110     1.0  0.36171  0.17432  0.54164  1.0000
  C   C711      1.0  0.42804  0.17266  0.51365  1.0000
  S   S285      1.0  0.39693  0.01359  0.52948  1.0000
  C   C712      1.0  0.63397  0.48914  0.57965  1.0000
  H   H1111     1.0  0.47384  0.21875  0.58631  1.0000
  H   H1112     1.0  0.39905  0.34378  0.74027  1.0000
  H   H1113     1.0  0.45791  0.46126  0.62590  1.0000
  H   H1114     1.0  0.47414  0.48745  0.63023  1.0000
  N   N71       1.0  0.40743  0.31059  0.74575  1.0000
  H   H1115     1.0  0.49673  0.01810  0.52182  1.0000
  C   C713      1.0  0.54679  0.50361  0.58625  1.0000
  H   H1116     1.0  0.41745  0.11253  0.51981  1.0000
  C   C714      1.0  0.35754  0.39453  0.63923  1.0000
  C   C715      1.0  0.45557  0.02609  0.53239  1.0000
  S   S286      1.0  0.37120  0.05523  0.53402  1.0000
  H   H1117     1.0  0.35515  0.19250  0.74158  1.0000
  H   H1118     1.0  0.43805  0.14573  0.52967  1.0000
  H   H1119     1.0  0.46877  0.25732  0.57159  1.0000
  N   N72       1.0  0.48698  0.45691  0.63561  1.0000
  S   S287      1.0  0.33847  0.33514  0.51414  1.0000
  S   S288      1.0  0.40319  0.23792  0.50469  1.0000
  C   C716      1.0  0.33845  0.12801  0.55502  1.0000
  C   C717      1.0  0.41157  0.02867  0.57736  1.0000
  H   H1120     1.0  0.33453  0.13921  0.56385  1.0000
  H   H1121     1.0  0.43213  0.35557  0.50488  1.0000
  H   H1122     1.0  0.59604  0.49407  0.56909  1.0000
  H   H1123     1.0  0.42733  0.35152  0.55131  1.0000
  H   H1124     1.0  0.47040  0.04153  0.53141  1.0000
  H   H1125     1.0  0.35734  0.36748  0.60687  1.0000
  C   C718      1.0  0.42882  0.14935  0.52007  1.0000
  Fe  Fe147     1.0  0.41873  0.27366  0.50858  1.0000
  H   H1126     1.0  0.47097  0.46297  0.65944  1.0000
  H   H1127     1.0  0.36387  0.11893  0.52812  1.0000
  H   H1128     1.0  0.48576  0.47838  0.61165  1.0000
  H   H1129     1.0  0.52104  0.47945  0.62124  1.0000
  H   H1130     1.0  0.48107  0.43685  0.66166  1.0000
  S   S289      1.0  0.59275  0.49455  0.61415  1.0000
  H   H1131     1.0  0.34639  0.16725  0.73322  1.0000
  H   H1132     1.0  0.38747  0.32115  0.52898  1.0000
  C   C719      1.0  0.39927  0.30246  0.73175  1.0000
  H   H1133     1.0  0.45519  0.43681  0.65491  1.0000
  S   S290      1.0  0.34003  0.21319  0.53069  1.0000
  C   C720      1.0  0.33627  0.27338  0.74602  1.0000
  H   H1134     1.0  0.33412  0.11066  0.52770  1.0000
  H   H1135     1.0  0.36550  0.41261  0.64049  1.0000
  H   H1136     1.0  0.39507  0.39909  0.60142  1.0000
  H   H1137     1.0  0.45105  0.02902  0.51990  1.0000
  H   H1138     1.0  0.64861  0.48113  0.57957  1.0000
  C   C721      1.0  0.35608  0.41083  0.61028  1.0000
  H   H1139     1.0  0.41303  0.30948  0.71937  1.0000
  H   H1140     1.0  0.65619  0.03006  0.63461  1.0000
  H   H1141     1.0  0.57275  0.48935  0.50236  1.0000
  C   C722      1.0  0.40531  0.13500  0.50199  1.0000
  H   H1142     1.0  0.48211  0.01502  0.55297  1.0000
  C   C723      1.0  0.56080  0.44352  0.50147  1.0000
  Fe  Fe148     1.0  0.41546  0.03627  0.50286  1.0000
  H   H1143     1.0  0.33369  0.36424  0.62484  1.0000
  H   H1144     1.0  0.66321  0.04398  0.60308  1.0000
  H   H1145     1.0  0.44206  0.30877  0.73580  1.0000
  H   H1146     1.0  0.65813  0.01398  0.60120  1.0000
  H   H1147     1.0  0.39994  0.16074  0.74579  1.0000
  H   H1148     1.0  0.35323  0.12866  0.74580  1.0000
  H   H1149     1.0  0.59855  0.47955  0.49862  1.0000
  C   C724      1.0  0.66432  0.01576  0.63243  1.0000
  Fe  Fe149     1.0  0.34897  0.35489  0.74730  1.0000
  H   H1150     1.0  0.34076  0.29130  0.74743  1.0000
  H   H1151     1.0  0.40731  0.30079  0.96212  1.0000
  H   H1152     1.0  0.42033  0.34357  0.75191  1.0000
  H   H1153     1.0  0.37407  0.18893  0.76524  1.0000
  C   C725      1.0  0.54170  0.47665  0.84041  1.0000
  H   H1154     1.0  0.35721  0.05659  0.85972  1.0000
  C   C726      1.0  0.38110  0.12004  0.81390  1.0000
  H   H1155     1.0  0.34372  0.34477  0.90009  1.0000
  H   H1156     1.0  0.62930  0.02652  0.88689  1.0000
  Fe  Fe150     1.0  0.38670  0.24564  0.80304  1.0000
  H   H1157     1.0  0.35742  0.17138  0.99204  1.0000
  S   S291      1.0  0.41519  0.28001  0.79173  1.0000
  Fe  Fe151     1.0  0.34953  0.04526  0.79790  1.0000
  H   H1158     1.0  0.50422  0.44398  0.76517  1.0000
  N   N73       1.0  0.34754  0.30935  0.82704  1.0000
  C   C727      1.0  0.51981  0.47446  0.87403  1.0000
  S   S292      1.0  0.37685  0.22359  0.83021  1.0000
  S   S293      1.0  0.38265  0.21433  0.79187  1.0000
  Fe  Fe152     1.0  0.47032  0.41630  0.84225  1.0000
  S   S294      1.0  0.43759  0.42585  0.83971  1.0000
  Fe  Fe153     1.0  0.44843  0.36410  0.84324  1.0000
  S   S295      1.0  0.41502  0.37038  0.83980  1.0000
  S   S296      1.0  0.44939  0.32606  0.84756  1.0000
  Fe  Fe154     1.0  0.43703  0.40433  0.82046  1.0000
  S   S297      1.0  0.43127  0.42069  0.79508  1.0000
  Fe  Fe155     1.0  0.41862  0.39083  0.85941  1.0000
  S   S298      1.0  0.38456  0.38208  0.87934  1.0000
  S   S299      1.0  0.47039  0.39609  0.82196  1.0000
  S   S300      1.0  0.45128  0.38297  0.86388  1.0000
  H   H1159     1.0  0.39328  0.30797  0.77237  1.0000
  S   S301      1.0  0.36887  0.29821  0.94519  1.0000
  Fe  Fe156     1.0  0.36897  0.19214  0.81916  1.0000
  C   C728      1.0  0.38037  0.35831  0.89730  1.0000
  C   C729      1.0  0.37294  0.32093  0.92662  1.0000
  C   C730      1.0  0.39515  0.33681  0.91873  1.0000
  C   C731      1.0  0.39891  0.35530  0.90400  1.0000
  H   H1160     1.0  0.40949  0.33494  0.92406  1.0000
  H   H1161     1.0  0.41603  0.36770  0.89815  1.0000
  C   C732      1.0  0.35307  0.10221  0.79999  1.0000
  C   C733      1.0  0.36924  0.27996  0.98841  1.0000
  C   C734      1.0  0.34163  0.11955  0.80210  1.0000
  H   H1162     1.0  0.42325  0.28257  0.75208  1.0000
  H   H1163     1.0  0.37045  0.29846  0.98147  1.0000
  H   H1164     1.0  0.47695  0.45054  0.77115  1.0000
  N   N74       1.0  0.50161  0.46278  0.78477  1.0000
  C   C735      1.0  0.42491  0.29265  0.80723  1.0000
  C   C736      1.0  0.43236  0.31752  0.80404  1.0000
  C   C737      1.0  0.43965  0.32787  0.81650  1.0000
  C   C738      1.0  0.44023  0.31338  0.83191  1.0000
  C   C739      1.0  0.43325  0.28853  0.83493  1.0000
  C   C740      1.0  0.42528  0.27818  0.82271  1.0000
  H   H1165     1.0  0.43243  0.32879  0.79198  1.0000
  H   H1166     1.0  0.44536  0.34707  0.81402  1.0000
  H   H1167     1.0  0.43417  0.27726  0.84665  1.0000
  H   H1168     1.0  0.42029  0.25901  0.82500  1.0000
  C   C741      1.0  0.42783  0.30240  0.74791  1.0000
  H   H1169     1.0  0.36905  0.34512  0.82316  1.0000
  C   C742      1.0  0.35275  0.33552  0.82068  1.0000
  H   H1170     1.0  0.42168  0.36979  0.80058  1.0000
  C   C743      1.0  0.41432  0.40044  0.78665  1.0000
  C   C744      1.0  0.40259  0.40858  0.77481  1.0000
  C   C745      1.0  0.41238  0.37614  0.79171  1.0000
  Fe  Fe157     1.0  0.34595  0.21531  0.79440  1.0000
  H   H1171     1.0  0.35746  0.31142  0.85023  1.0000
  C   C746      1.0  0.38894  0.30641  0.88041  1.0000
  C   C747      1.0  0.39841  0.36003  0.78528  1.0000
  C   C748      1.0  0.55353  0.49036  0.84959  1.0000
  C   C749      1.0  0.34995  0.13714  0.81002  1.0000
  H   H1172     1.0  0.37827  0.39855  0.76019  1.0000
  C   C750      1.0  0.36155  0.15632  0.98729  1.0000
  C   C751      1.0  0.35814  0.34238  0.90517  1.0000
  H   H1173     1.0  0.53415  0.45416  0.78083  1.0000
  H   H1174     1.0  0.41591  0.28660  0.89686  1.0000
  H   H1175     1.0  0.40759  0.25793  0.89257  1.0000
  H   H1176     1.0  0.34947  0.16463  0.77771  1.0000
  H   H1177     1.0  0.33850  0.34210  0.82683  1.0000
  C   C752      1.0  0.35048  0.06596  0.84962  1.0000
  C   C753      1.0  0.51166  0.48661  0.77244  1.0000
  S   S302      1.0  0.50494  0.44525  0.83548  1.0000
  C   C754      1.0  0.38855  0.30059  0.76185  1.0000
  H   H1178     1.0  0.37578  0.24846  0.87895  1.0000
  H   H1179     1.0  0.40102  0.31412  0.86729  1.0000
  C   C755      1.0  0.49113  0.44544  0.77612  1.0000
  S   S303      1.0  0.35481  0.02064  0.78101  1.0000
  H   H1180     1.0  0.35878  0.26769  0.98257  1.0000
  H   H1181     1.0  0.51971  0.50007  0.77861  1.0000
  H   H1182     1.0  0.38443  0.28083  0.76627  1.0000
  C   C756      1.0  0.54262  0.48942  0.86645  1.0000
  C   C757      1.0  0.36966  0.13738  0.81599  1.0000
  H   H1183     1.0  0.49812  0.49292  0.76731  1.0000
  C   C758      1.0  0.51893  0.46160  0.84799  1.0000
  H   H1184     1.0  0.42206  0.28437  0.87523  1.0000
  H   H1185     1.0  0.36671  0.25157  0.90893  1.0000
  H   H1186     1.0  0.37543  0.28006  0.91331  1.0000
  C   C759      1.0  0.36671  0.16924  0.76827  1.0000
  H   H1187     1.0  0.51307  0.43717  0.80069  1.0000
  H   H1188     1.0  0.43495  0.30913  0.75790  1.0000
  H   H1189     1.0  0.36022  0.26959  0.87384  1.0000
  S   S304      1.0  0.34243  0.08068  0.78975  1.0000
  H   H1190     1.0  0.39711  0.34131  0.78923  1.0000
  S   S305      1.0  0.37852  0.04083  0.80970  1.0000
  C   C760      1.0  0.35448  0.32350  0.91968  1.0000
  H   H1191     1.0  0.35374  0.10988  0.98838  1.0000
  N   N75       1.0  0.38621  0.28064  0.88671  1.0000
  C   C761      1.0  0.37761  0.26790  0.87470  1.0000
  C   C762      1.0  0.40892  0.27717  0.88792  1.0000
  H   H1192     1.0  0.34086  0.15027  0.81174  1.0000
  C   C763      1.0  0.36774  0.30161  0.81975  1.0000
  C   C764      1.0  0.34694  0.12056  0.97895  1.0000
  H   H1193     1.0  0.36480  0.28213  0.82509  1.0000
  C   C765      1.0  0.48352  0.46394  0.79921  1.0000
  C   C766      1.0  0.33673  0.25427  0.75894  1.0000
  H   H1194     1.0  0.52806  0.46754  0.79826  1.0000
  H   H1195     1.0  0.52536  0.48642  0.76134  1.0000
  H   H1196     1.0  0.34882  0.18977  0.89191  1.0000
  H   H1197     1.0  0.37808  0.16078  0.77476  1.0000
  Fe  Fe158     1.0  0.33716  0.26664  0.95248  1.0000
  C   C767      1.0  0.34244  0.30265  0.84596  1.0000
  Fe  Fe159     1.0  0.34078  0.22458  0.82968  1.0000
  S   S306      1.0  0.36528  0.34628  0.76913  1.0000
  H   H1198     1.0  0.33539  0.09734  0.86460  1.0000
  H   H1199     1.0  0.38382  0.31114  0.82253  1.0000
  H   H1200     1.0  0.37232  0.30487  0.76029  1.0000
  S   S307      1.0  0.37986  0.15884  0.82639  1.0000
  H   H1201     1.0  0.39604  0.27034  0.96224  1.0000
  H   H1202     1.0  0.38224  0.08973  0.80384  1.0000
  C   C768      1.0  0.40536  0.28204  0.96903  1.0000
  H   H1203     1.0  0.40992  0.01226  0.81743  1.0000
  N   N76       1.0  0.36449  0.16148  0.75268  1.0000
  H   H1204     1.0  0.34507  0.16193  0.95943  1.0000
  C   C769      1.0  0.37288  0.10255  0.80584  1.0000
  H   H1205     1.0  0.39651  0.12030  0.81834  1.0000
  H   H1206     1.0  0.35482  0.34101  0.80663  1.0000
  H   H1207     1.0  0.33725  0.31146  0.92579  1.0000
  C   C770      1.0  0.33866  0.20211  0.88974  1.0000
  H   H1208     1.0  0.51121  0.47355  0.88707  1.0000
  H   H1209     1.0  0.35216  0.27363  0.90344  1.0000
  H   H1210     1.0  0.33760  0.12897  0.76659  1.0000
  C   C771      1.0  0.52008  0.45512  0.79134  1.0000
  H   H1211     1.0  0.39632  0.31660  0.88883  1.0000
  C   C772      1.0  0.38806  0.39229  0.76872  1.0000
  H   H1212     1.0  0.55037  0.47751  0.82740  1.0000
  H   H1213     1.0  0.34285  0.20268  0.86312  1.0000
  H   H1214     1.0  0.58489  0.01439  0.87467  1.0000
  H   H1215     1.0  0.47577  0.44631  0.80876  1.0000
  Fe  Fe160     1.0  0.38129  0.01368  0.79492  1.0000
  H   H1216     1.0  0.36650  0.12621  0.76322  1.0000
  H   H1217     1.0  0.38967  0.27490  0.86155  1.0000
  S   S308      1.0  0.35112  0.24878  0.80308  1.0000
  C   C773      1.0  0.50802  0.46054  0.86488  1.0000
  H   H1218     1.0  0.36202  0.08458  0.84447  1.0000
  S   S309      1.0  0.55642  0.50748  0.87813  1.0000
  H   H1219     1.0  0.48320  0.42730  0.78514  1.0000
  H   H1220     1.0  0.34143  0.25752  0.77028  1.0000
  H   H1221     1.0  0.49073  0.47668  0.80619  1.0000
  H   H1222     1.0  0.40415  0.42742  0.77080  1.0000
  C   C774      1.0  0.38561  0.36790  0.77425  1.0000
  H   H1223     1.0  0.49051  0.44905  0.87089  1.0000
  C   C775      1.0  0.36942  0.27106  0.90385  1.0000
  N   N77       1.0  0.34074  0.14051  0.98493  1.0000
  H   H1224     1.0  0.37205  0.30999  0.88005  1.0000
  H   H1225     1.0  0.46901  0.46919  0.79485  1.0000
  H   H1226     1.0  0.37552  0.16407  0.97506  1.0000
  H   H1227     1.0  0.57113  0.50157  0.84362  1.0000
  H   H1228     1.0  0.35238  0.05705  0.83904  1.0000
  H   H1229     1.0  0.37122  0.30495  0.80558  1.0000
  N   N78       1.0  0.39248  0.27641  0.98727  1.0000
  H   H1230     1.0  0.36058  0.12713  0.96650  1.0000
  S   S310      1.0  0.34673  0.23250  0.95652  1.0000
  H   H1231     1.0  0.40740  0.31141  0.98972  1.0000
  H   H1232     1.0  0.62655  0.03865  0.86585  1.0000
  H   H1233     1.0  0.33843  0.28301  0.85119  1.0000
  C   C776      1.0  0.35506  0.13523  0.75723  1.0000
  H   H1234     1.0  0.64866  0.02410  0.86820  1.0000
  H   H1235     1.0  0.42306  0.27975  0.96760  1.0000
  C   C777      1.0  0.63031  0.02346  0.87396  1.0000
  S   S311      1.0  0.33346  0.20140  0.92346  1.0000
  H   H1236     1.0  0.37919  0.23869  0.99039  1.0000
  C   C778      1.0  0.38999  0.25132  0.99581  1.0000
  C   C779      1.0  0.33545  0.20957  0.87339  1.0000
  H   H1237     1.0  0.36877  0.14647  0.99683  1.0000
  H   H1238     1.0  0.40714  0.24771  0.99452  1.0000
  Fe  Fe161     1.0  0.35109  0.01082  0.82958  1.0000
  H   H1239     1.0  0.61210  0.01151  0.84898  1.0000
  C   C780      1.0  0.40529  0.29233  0.99582  1.0000
  H   H1240     1.0  0.42293  0.29015  0.99522  1.0000
  H   H1241     1.0  0.64098  0.92910  0.15961  1.0000
  S   S312      1.0  0.60621  0.95929  0.18638  1.0000
  C   C781      1.0  0.63343  0.58834  0.23531  1.0000
  C   C782      1.0  0.63228  0.59158  0.16570  1.0000
  H   H1242     1.0  0.37066  0.94350  0.17710  1.0000
  H   H1243     1.0  0.37950  0.95926  0.11448  1.0000
  H   H1244     1.0  0.61978  0.80650  0.23404  1.0000
  S   S313      1.0  0.65876  0.88834  0.21660  1.0000
  S   S314      1.0  0.41625  0.97476  0.15999  1.0000
  C   C783      1.0  0.35654  0.94143  0.13968  1.0000
  H   H1245     1.0  0.66008  0.92734  0.12308  1.0000
  C   C784      1.0  0.37756  0.95597  0.12813  1.0000
  H   H1246     1.0  0.59601  0.53426  0.11258  1.0000
  C   C785      1.0  0.63402  0.63306  0.15454  1.0000
  H   H1247     1.0  0.60298  0.55923  0.22441  1.0000
  H   H1248     1.0  0.34312  0.95653  0.09602  1.0000
  C   C786      1.0  0.64255  0.61602  0.16350  1.0000
  H   H1249     1.0  0.64278  0.96014  0.15469  1.0000
  S   S315      1.0  0.64711  0.66379  0.15049  1.0000
  C   C787      1.0  0.50955  0.98932  0.07878  1.0000
  H   H1250     1.0  0.61008  0.88351  0.22034  1.0000
  S   S316      1.0  0.37361  0.99158  0.05926  1.0000
  C   C788      1.0  0.61315  0.58415  0.15932  1.0000
  H   H1251     1.0  0.64949  0.54671  0.21695  1.0000
  C   C789      1.0  0.37021  0.98877  0.19627  1.0000
  C   C790      1.0  0.40539  0.99845  0.07787  1.0000
  H   H1252     1.0  0.60700  0.53158  0.13118  1.0000
  H   H1253     1.0  0.63916  0.57861  0.17231  1.0000
  H   H1254     1.0  0.56534  0.99260  0.12586  1.0000
  C   C791      1.0  0.65870  0.59432  0.20723  1.0000
  H   H1255     1.0  0.66231  0.98401  0.21573  1.0000
  H   H1256     1.0  0.61367  0.58800  0.20895  1.0000
  H   H1257     1.0  0.39852  0.97951  0.08394  1.0000
  H   H1258     1.0  0.52034  0.00128  0.04428  1.0000
  C   C792      1.0  0.39595  0.96659  0.13425  1.0000
  H   H1259     1.0  0.64843  0.59264  0.24086  1.0000
  S   S317      1.0  0.63863  0.51481  0.15044  1.0000
  S   S318      1.0  0.64731  0.53532  0.18306  1.0000
  S   S319      1.0  0.52730  0.00640  0.11577  1.0000
  C   C793      1.0  0.64414  0.90829  0.20860  1.0000
  H   H1260     1.0  0.43043  0.00388  0.09253  1.0000
  C   C794      1.0  0.62080  0.93975  0.19502  1.0000
  Fe  Fe162     1.0  0.62881  0.99698  0.17420  1.0000
  C   C795      1.0  0.60460  0.60127  0.15054  1.0000
  C   C796      1.0  0.61519  0.62562  0.14796  1.0000
  H   H1261     1.0  0.58985  0.59574  0.14558  1.0000
  H   H1262     1.0  0.60859  0.63873  0.14097  1.0000
  H   H1263     1.0  0.63780  0.81621  0.20275  1.0000
  Fe  Fe163     1.0  0.61871  0.52791  0.17047  1.0000
  H   H1264     1.0  0.56066  0.51255  0.15780  1.0000
  C   C797      1.0  0.63654  0.81700  0.23532  1.0000
  Fe  Fe164     1.0  0.44494  0.00383  0.14024  1.0000
  H   H1265     1.0  0.65366  0.84531  0.20315  1.0000
  C   C798      1.0  0.35401  0.93735  0.15733  1.0000
  H   H1266     1.0  0.65866  0.78296  0.23659  1.0000
  H   H1267     1.0  0.37731  0.97621  0.19001  1.0000
  C   C799      1.0  0.64553  0.94548  0.14885  1.0000
  S   S320      1.0  0.59932  0.55374  0.16217  1.0000
  H   H1268     1.0  0.36914  0.98305  0.21017  1.0000
  C   C800      1.0  0.37258  0.94732  0.16344  1.0000
  H   H1269     1.0  0.66299  0.58690  0.19607  1.0000
  H   H1270     1.0  0.62933  0.60541  0.23091  1.0000
  H   H1271     1.0  0.35216  0.98652  0.19507  1.0000
  H   H1272     1.0  0.64105  0.78014  0.22181  1.0000
  H   H1273     1.0  0.33788  0.92610  0.16632  1.0000
  C   C801      1.0  0.64499  0.94674  0.19140  1.0000
  S   S321      1.0  0.33333  0.92857  0.13212  1.0000
  H   H1274     1.0  0.41204  0.97802  0.12530  1.0000
  C   C802      1.0  0.65702  0.79132  0.22375  1.0000
  C   C803      1.0  0.39351  0.96206  0.15193  1.0000
  H   H1275     1.0  0.65488  0.96395  0.18304  1.0000
  C   C804      1.0  0.60822  0.91688  0.20547  1.0000
  H   H1276     1.0  0.58947  0.91132  0.20831  1.0000
  H   H1277     1.0  0.58253  0.54277  0.13098  1.0000
  C   C805      1.0  0.61987  0.90118  0.21231  1.0000
  S   S322      1.0  0.46425  0.00150  0.11480  1.0000
  H   H1278     1.0  0.34370  0.93651  0.07302  1.0000
  H   H1279     1.0  0.65485  0.61145  0.20248  1.0000
  H   H1280     1.0  0.66004  0.55890  0.23295  1.0000
  H   H1281     1.0  0.63570  0.83568  0.23426  1.0000
  H   H1282     1.0  0.49779  0.98613  0.09176  1.0000
  H   H1283     1.0  0.47994  0.99774  0.05983  1.0000
  C   C806      1.0  0.64498  0.55533  0.22739  1.0000
  C   C807      1.0  0.59083  0.52942  0.12685  1.0000
  H   H1284     1.0  0.63283  0.94259  0.14112  1.0000
  C   C808      1.0  0.61840  0.57163  0.21426  1.0000
  H   H1285     1.0  0.62165  0.56277  0.20377  1.0000
  H   H1286     1.0  0.66130  0.99277  0.23534  1.0000
  N   N79       1.0  0.65645  0.81627  0.22208  1.0000
  H   H1287     1.0  0.41634  0.00317  0.18389  1.0000
  C   C809      1.0  0.65658  0.93120  0.19832  1.0000
  C   C810      1.0  0.65406  0.82643  0.20488  1.0000
  H   H1288     1.0  0.55252  0.00468  0.18021  1.0000
  H   H1289     1.0  0.65731  0.62169  0.16839  1.0000
  S   S323      1.0  0.65527  0.68382  0.19208  1.0000
  H   H1290     1.0  0.66312  0.97122  0.11594  1.0000
  H   H1291     1.0  0.52689  0.98898  0.08075  1.0000
  H   H1292     1.0  0.50305  0.97400  0.07365  1.0000
  N   N80       1.0  0.63887  0.57740  0.22103  1.0000
  H   H1293     1.0  0.54443  0.51540  0.13233  1.0000
  H   H1294     1.0  0.63021  0.54190  0.23754  1.0000
  H   H1295     1.0  0.61835  0.57625  0.24587  1.0000
  Fe  Fe165     1.0  0.66637  0.51967  0.16436  1.0000
  S   S324      1.0  0.44750  0.99173  0.40189  1.0000
  C   C811      1.0  0.38271  0.97488  0.35245  1.0000
  H   H1296     1.0  0.63234  0.95021  0.47215  1.0000
  C   C812      1.0  0.64813  0.96938  0.44560  1.0000
  H   H1297     1.0  0.54576  0.98488  0.39713  1.0000
  C   C813      1.0  0.58906  0.66921  0.45278  1.0000
  S   S325      1.0  0.36477  0.87233  0.46158  1.0000
  H   H1298     1.0  0.35881  0.94139  0.44617  1.0000
  H   H1299     1.0  0.40840  0.90820  0.49243  1.0000
  C   C814      1.0  0.54848  0.00389  0.39256  1.0000
  H   H1300     1.0  0.42444  0.87454  0.48856  1.0000
  S   S326      1.0  0.39215  0.95227  0.39166  1.0000
  H   H1301     1.0  0.41972  0.96906  0.31780  1.0000
  H   H1302     1.0  0.39627  0.98525  0.35729  1.0000
  C   C815      1.0  0.66503  0.97143  0.43069  1.0000
  C   C816      1.0  0.39217  0.98366  0.43162  1.0000
  H   H1303     1.0  0.60882  0.70319  0.47794  1.0000
  H   H1304     1.0  0.40725  0.97820  0.43474  1.0000
  H   H1305     1.0  0.40941  0.93367  0.34258  1.0000
  S   S327      1.0  0.62903  0.63657  0.47363  1.0000
  H   H1306     1.0  0.36549  0.98592  0.47141  1.0000
  S   S328      1.0  0.63068  0.98881  0.44589  1.0000
  H   H1307     1.0  0.33786  0.88792  0.43920  1.0000
  Fe  Fe166     1.0  0.63130  0.55005  0.41775  1.0000
  C   C817      1.0  0.37991  0.99011  0.45958  1.0000
  S   S329      1.0  0.63723  0.58987  0.41127  1.0000
  H   H1308     1.0  0.38501  0.89628  0.48387  1.0000
  C   C818      1.0  0.64545  0.63723  0.43980  1.0000
  H   H1309     1.0  0.59101  0.67147  0.43880  1.0000
  H   H1310     1.0  0.59442  0.71457  0.43601  1.0000
  H   H1311     1.0  0.63715  0.71334  0.44981  1.0000
  C   C819      1.0  0.63202  0.62373  0.45626  1.0000
  H   H1312     1.0  0.66565  0.58565  0.45582  1.0000
  S   S330      1.0  0.45540  0.98880  0.36192  1.0000
  C   C820      1.0  0.63517  0.60261  0.42872  1.0000
  C   C821      1.0  0.62195  0.58911  0.44522  1.0000
  C   C822      1.0  0.62015  0.59972  0.45891  1.0000
  H   H1313     1.0  0.62961  0.70073  0.43307  1.0000
  H   H1314     1.0  0.63785  0.80967  0.24847  1.0000
  H   H1315     1.0  0.61258  0.57067  0.44738  1.0000
  H   H1316     1.0  0.60956  0.58925  0.47158  1.0000
  C   C823      1.0  0.41150  0.97845  0.32653  1.0000
  Fe  Fe167     1.0  0.65007  0.51195  0.40578  1.0000
  H   H1317     1.0  0.65798  0.92383  0.47252  1.0000
  C   C824      1.0  0.35288  0.98464  0.44228  1.0000
  C   C825      1.0  0.64680  0.62674  0.42603  1.0000
  H   H1318     1.0  0.39473  0.98507  0.46355  1.0000
  H   H1319     1.0  0.65695  0.63730  0.41326  1.0000
  H   H1320     1.0  0.38717  0.97464  0.42187  1.0000
  H   H1321     1.0  0.59832  0.00153  0.37397  1.0000
  C   C826      1.0  0.59914  0.68708  0.47490  1.0000
  N   N81       1.0  0.60188  0.69114  0.45623  1.0000
  C   C827      1.0  0.62675  0.69719  0.44721  1.0000
  C   C828      1.0  0.37248  0.89492  0.44234  1.0000
  C   C829      1.0  0.35565  0.89892  0.43396  1.0000
  C   C830      1.0  0.36194  0.91656  0.41840  1.0000
  C   C831      1.0  0.38501  0.93065  0.41132  1.0000
  C   C832      1.0  0.40183  0.92710  0.41987  1.0000
  C   C833      1.0  0.39561  0.90901  0.43528  1.0000
  H   H1322     1.0  0.36057  0.85393  0.49679  1.0000
  H   H1323     1.0  0.41574  0.95313  0.35597  1.0000
  H   H1324     1.0  0.41972  0.93777  0.41437  1.0000
  H   H1325     1.0  0.40871  0.90589  0.44167  1.0000
  C   C834      1.0  0.40629  0.86282  0.49213  1.0000
  H   H1326     1.0  0.35104  0.94625  0.46699  1.0000
  H   H1327     1.0  0.57020  0.66405  0.45936  1.0000
  H   H1328     1.0  0.40494  0.99154  0.31872  1.0000
  S   S331      1.0  0.66278  0.53819  0.42005  1.0000
  H   H1329     1.0  0.34887  0.91923  0.41182  1.0000
  H   H1330     1.0  0.57398  0.70726  0.45668  1.0000
  H   H1331     1.0  0.60227  0.72791  0.45233  1.0000
  H   H1332     1.0  0.59561  0.65382  0.45741  1.0000
  H   H1333     1.0  0.34714  0.97564  0.43273  1.0000
  H   H1334     1.0  0.38811  0.93130  0.36194  1.0000
  Fe  Fe168     1.0  0.63882  0.51095  0.44368  1.0000
  C   C835      1.0  0.37417  0.94896  0.33436  1.0000
  H   H1335     1.0  0.38098  0.93874  0.32566  1.0000
  C   C836      1.0  0.39073  0.89551  0.49585  1.0000
  Fe  Fe169     1.0  0.42529  0.98197  0.38473  1.0000
  H   H1336     1.0  0.42543  0.98878  0.33112  1.0000
  N   N82       1.0  0.39257  0.96159  0.34102  1.0000
  H   H1337     1.0  0.36898  0.96264  0.36390  1.0000
  S   S332      1.0  0.50982  0.99155  0.38112  1.0000
  C   C837      1.0  0.59269  0.71108  0.45004  1.0000
  C   C838      1.0  0.66035  0.93739  0.46093  1.0000
  N   N83       1.0  0.37260  0.97746  0.44712  1.0000
  H   H1338     1.0  0.37995  0.94507  0.45819  1.0000
  H   H1339     1.0  0.33758  0.97966  0.45360  1.0000
  C   C839      1.0  0.36535  0.95142  0.45497  1.0000
  H   H1340     1.0  0.58059  0.68248  0.48215  1.0000
  H   H1341     1.0  0.37481  0.98764  0.34572  1.0000
  C   C840      1.0  0.40186  0.94412  0.35074  1.0000
  S   S333      1.0  0.60810  0.52460  0.44241  1.0000
  C   C841      1.0  0.64564  0.95213  0.46066  1.0000
  H   H1342     1.0  0.63399  0.68228  0.45137  1.0000
  S   S334      1.0  0.62023  0.52590  0.40138  1.0000
  H   H1343     1.0  0.62688  0.99990  0.36479  1.0000
  H   H1344     1.0  0.66239  0.54205  0.36974  1.0000
  Fe  Fe170     1.0  0.65893  0.66730  0.47244  1.0000
  S   S335      1.0  0.65376  0.69473  0.48656  1.0000
  H   H1345     1.0  0.65484  0.79248  0.46619  1.0000
  H   H1346     1.0  0.36684  0.96172  0.32694  1.0000
  H   H1347     1.0  0.40092  0.86291  0.48002  1.0000
  H   H1348     1.0  0.65453  0.65581  0.43757  1.0000
  H   H1349     1.0  0.35958  0.93616  0.34500  1.0000
  H   H1350     1.0  0.60587  0.67208  0.47999  1.0000
  Fe  Fe171     1.0  0.47759  0.00242  0.37836  1.0000
  H   H1351     1.0  0.60283  0.98655  0.35737  1.0000
  H   H1352     1.0  0.45009  0.00027  0.45907  1.0000
  H   H1353     1.0  0.35754  0.00425  0.43662  1.0000
  C   C842      1.0  0.61054  0.00220  0.36175  1.0000
  H   H1354     1.0  0.39823  0.00324  0.42545  1.0000
  S   S336      1.0  0.34809  0.87103  0.74389  1.0000
  Fe  Fe172     1.0  0.66346  0.88211  0.51016  1.0000
  S   S337      1.0  0.36985  0.84433  0.70970  1.0000
  C   C843      1.0  0.64470  0.62268  0.64800  1.0000
  H   H1355     1.0  0.62831  0.88106  0.69434  1.0000
  H   H1356     1.0  0.62948  0.81803  0.69530  1.0000
  C   C844      1.0  0.66448  0.74456  0.51460  1.0000
  H   H1357     1.0  0.34453  0.97397  0.59124  1.0000
  C   C845      1.0  0.61250  0.50870  0.56295  1.0000
  H   H1358     1.0  0.36169  0.94625  0.65724  1.0000
  H   H1359     1.0  0.38614  0.87654  0.52931  1.0000
  C   C846      1.0  0.39805  0.87082  0.51996  1.0000
  Fe  Fe173     1.0  0.44512  0.90921  0.59695  1.0000
  S   S338      1.0  0.41788  0.88373  0.58971  1.0000
  S   S339      1.0  0.48292  0.91032  0.58920  1.0000
  Fe  Fe174     1.0  0.41153  0.93555  0.60999  1.0000
  S   S340      1.0  0.38182  0.91280  0.60386  1.0000
  S   S341      1.0  0.40587  0.96539  0.62117  1.0000
  Fe  Fe175     1.0  0.39472  0.88265  0.61502  1.0000
  S   S342      1.0  0.36624  0.85137  0.63312  1.0000
  Fe  Fe176     1.0  0.40740  0.91612  0.57931  1.0000
  S   S343      1.0  0.39980  0.92734  0.55385  1.0000
  S   S344      1.0  0.42278  0.90535  0.62321  1.0000
  S   S345      1.0  0.43631  0.94171  0.58448  1.0000
  H   H1360     1.0  0.37528  0.83686  0.74535  1.0000
  S   S346      1.0  0.61554  0.96757  0.62251  1.0000
  Fe  Fe177     1.0  0.62202  0.91002  0.61013  1.0000
  S   S347      1.0  0.60127  0.93188  0.59865  1.0000
  H   H1361     1.0  0.40245  0.95286  0.65824  1.0000
  Fe  Fe178     1.0  0.63080  0.96326  0.59666  1.0000
  Fe  Fe179     1.0  0.58768  0.93403  0.62540  1.0000
  S   S348      1.0  0.54941  0.92825  0.63711  1.0000
  S   S349      1.0  0.60649  0.90969  0.63731  1.0000
  Fe  Fe180     1.0  0.61720  0.57178  0.63249  1.0000
  S   S350      1.0  0.58951  0.55865  0.61967  1.0000
  S   S351      1.0  0.61119  0.57888  0.65873  1.0000
  H   H1362     1.0  0.43559  0.98522  0.52584  1.0000
  S   S352      1.0  0.63269  0.55756  0.58838  1.0000
  Fe  Fe181     1.0  0.61459  0.58401  0.59553  1.0000
  S   S353      1.0  0.60308  0.60426  0.57452  1.0000
  Fe  Fe182     1.0  0.60927  0.53298  0.61332  1.0000
  S   S354      1.0  0.63467  0.54344  0.62848  1.0000
  C   C847      1.0  0.62770  0.87758  0.58141  1.0000
  H   H1363     1.0  0.39822  0.85265  0.52649  1.0000
  C   C848      1.0  0.65974  0.95797  0.54687  1.0000
  C   C849      1.0  0.62558  0.62844  0.56046  1.0000
  H   H1364     1.0  0.36552  0.83636  0.51529  1.0000
  H   H1365     1.0  0.36367  0.80660  0.74534  1.0000
  H   H1366     1.0  0.33769  0.85235  0.56850  1.0000
  H   H1367     1.0  0.64362  0.63517  0.57945  1.0000
  C   C850      1.0  0.62561  0.63559  0.54325  1.0000
  C   C851      1.0  0.36667  0.90507  0.69033  1.0000
  H   H1368     1.0  0.62774  0.90947  0.66807  1.0000
  C   C852      1.0  0.35626  0.93345  0.67023  1.0000
  H   H1369     1.0  0.61154  0.62647  0.53884  1.0000
  C   C853      1.0  0.63982  0.86416  0.57310  1.0000
  C   C854      1.0  0.63999  0.86415  0.55610  1.0000
  C   C855      1.0  0.34637  0.84252  0.66753  1.0000
  C   C856      1.0  0.34700  0.84134  0.68457  1.0000
  C   C857      1.0  0.50061  0.91840  0.60253  1.0000
  C   C858      1.0  0.49155  0.91339  0.62029  1.0000
  C   C859      1.0  0.50660  0.91742  0.63079  1.0000
  C   C860      1.0  0.53069  0.92663  0.62356  1.0000
  C   C861      1.0  0.53954  0.93269  0.60574  1.0000
  C   C862      1.0  0.52458  0.92837  0.59529  1.0000
  H   H1370     1.0  0.47308  0.90563  0.62599  1.0000
  H   H1371     1.0  0.49962  0.91278  0.64457  1.0000
  H   H1372     1.0  0.55793  0.94056  0.59999  1.0000
  H   H1373     1.0  0.53165  0.93263  0.58153  1.0000
  H   H1374     1.0  0.38392  0.92030  0.64671  1.0000
  H   H1375     1.0  0.42557  0.98226  0.54839  1.0000
  C   C863      1.0  0.36641  0.91550  0.53737  1.0000
  C   C864      1.0  0.37543  0.90804  0.55110  1.0000
  C   C865      1.0  0.36485  0.88539  0.56247  1.0000
  H   H1376     1.0  0.45225  0.99972  0.56394  1.0000
  H   H1377     1.0  0.64528  0.74094  0.51796  1.0000
  H   H1378     1.0  0.37428  0.93320  0.52872  1.0000
  H   H1379     1.0  0.37164  0.87956  0.57317  1.0000
  H   H1380     1.0  0.33994  0.90626  0.52444  1.0000
  H   H1381     1.0  0.40178  0.00265  0.56371  1.0000
  H   H1382     1.0  0.36280  0.91437  0.70050  1.0000
  C   C866      1.0  0.40737  0.98956  0.60445  1.0000
  H   H1383     1.0  0.48575  0.98626  0.52603  1.0000
  H   H1384     1.0  0.36258  0.89412  0.66103  1.0000
  C   C867      1.0  0.66211  0.65901  0.55456  1.0000
  H   H1385     1.0  0.35064  0.89063  0.69190  1.0000
  H   H1386     1.0  0.66234  0.97758  0.54394  1.0000
  H   H1387     1.0  0.35261  0.94357  0.67989  1.0000
  H   H1388     1.0  0.61278  0.52189  0.57072  1.0000
  H   H1389     1.0  0.64612  0.78357  0.69824  1.0000
  S   S355      1.0  0.62741  0.87716  0.60275  1.0000
  C   C868      1.0  0.33689  0.87727  0.54589  1.0000
  C   C869      1.0  0.64587  0.62444  0.68143  1.0000
  C   C870      1.0  0.37848  0.90839  0.65998  1.0000
  C   C871      1.0  0.62961  0.60424  0.66188  1.0000
  C   C872      1.0  0.36830  0.84534  0.68864  1.0000
  C   C873      1.0  0.40343  0.98595  0.58895  1.0000
  H   H1390     1.0  0.64429  0.65896  0.51828  1.0000
  C   C874      1.0  0.36706  0.84838  0.65452  1.0000
  C   C875      1.0  0.38832  0.85240  0.65864  1.0000
  C   C876      1.0  0.38891  0.85063  0.67570  1.0000
  H   H1391     1.0  0.42700  0.81960  0.72644  1.0000
  H   H1392     1.0  0.40430  0.85656  0.64868  1.0000
  H   H1393     1.0  0.40541  0.85365  0.67882  1.0000
  H   H1394     1.0  0.47167  0.98319  0.55699  1.0000
  S   S356      1.0  0.64033  0.59940  0.60880  1.0000
  S   S357      1.0  0.62778  0.87764  0.52628  1.0000
  C   C877      1.0  0.64291  0.89677  0.68818  1.0000
  C   C878      1.0  0.64379  0.64025  0.56612  1.0000
  C   C879      1.0  0.63001  0.60541  0.67863  1.0000
  C   C880      1.0  0.34561  0.87004  0.55984  1.0000
  H   H1395     1.0  0.61830  0.59133  0.68947  1.0000
  C   C881      1.0  0.46708  0.00015  0.55337  1.0000
  H   H1396     1.0  0.64421  0.62238  0.63509  1.0000
  H   H1397     1.0  0.38014  0.89624  0.69293  1.0000
  H   H1398     1.0  0.65387  0.52801  0.53989  1.0000
  C   C882      1.0  0.65435  0.51928  0.55301  1.0000
  C   C883      1.0  0.64749  0.83013  0.69153  1.0000
  C   C884      1.0  0.34706  0.90021  0.53485  1.0000
  C   C885      1.0  0.66240  0.66571  0.53727  1.0000
  S   S358      1.0  0.66152  0.88061  0.71397  1.0000
  S   S359      1.0  0.66033  0.95484  0.64756  1.0000
  H   H1399     1.0  0.39375  0.95048  0.68084  1.0000
  H   H1400     1.0  0.39865  0.81076  0.72288  1.0000
  H   H1401     1.0  0.41069  0.84076  0.72327  1.0000
  N   N84       1.0  0.37439  0.92173  0.67296  1.0000
  H   H1402     1.0  0.35913  0.98082  0.55990  1.0000
  H   H1403     1.0  0.57221  0.52628  0.59489  1.0000
  Fe  Fe183     1.0  0.63568  0.94311  0.63204  1.0000
  C   C886      1.0  0.62740  0.87693  0.54760  1.0000
  H   H1404     1.0  0.64928  0.85397  0.57976  1.0000
  N   N85       1.0  0.54515  0.86419  0.60446  1.0000
  C   C887      1.0  0.55134  0.88403  0.58877  1.0000
  C   C888      1.0  0.53341  0.87117  0.61931  1.0000
  C   C889      1.0  0.56644  0.85869  0.60749  1.0000
  C   C890      1.0  0.52939  0.84294  0.60225  1.0000
  H   H1405     1.0  0.53558  0.88820  0.58585  1.0000
  H   H1406     1.0  0.56098  0.87974  0.57739  1.0000
  H   H1407     1.0  0.56252  0.90063  0.59020  1.0000
  H   H1408     1.0  0.54523  0.88655  0.62174  1.0000
  H   H1409     1.0  0.51781  0.87654  0.61720  1.0000
  H   H1410     1.0  0.52772  0.85639  0.63129  1.0000
  H   H1411     1.0  0.57865  0.87444  0.60920  1.0000
  H   H1412     1.0  0.57593  0.85341  0.59656  1.0000
  H   H1413     1.0  0.56253  0.84391  0.61926  1.0000
  H   H1414     1.0  0.53771  0.83737  0.59103  1.0000
  H   H1415     1.0  0.51308  0.84657  0.60009  1.0000
  H   H1416     1.0  0.52446  0.82754  0.61379  1.0000
  C   C891      1.0  0.39616  0.94003  0.67124  1.0000
  Fe  Fe184     1.0  0.33819  0.84621  0.72809  1.0000
  H   H1417     1.0  0.60588  0.90080  0.57904  1.0000
  H   H1418     1.0  0.35391  0.95639  0.55041  1.0000
  Fe  Fe185     1.0  0.65608  0.57044  0.60402  1.0000
  S   S360      1.0  0.64326  0.99419  0.57305  1.0000
  H   H1419     1.0  0.60532  0.89999  0.54938  1.0000
  S   S361      1.0  0.65282  0.94119  0.60581  1.0000
  H   H1420     1.0  0.44461  0.96577  0.54108  1.0000
  C   C892      1.0  0.66189  0.90112  0.69521  1.0000
  H   H1421     1.0  0.37298  0.95772  0.56417  1.0000
  H   H1422     1.0  0.64968  0.77144  0.53462  1.0000
  C   C893      1.0  0.64411  0.65406  0.53162  1.0000
  H   H1423     1.0  0.61158  0.51757  0.55000  1.0000
  H   H1424     1.0  0.41028  0.93181  0.67308  1.0000
  H   H1425     1.0  0.64653  0.84667  0.69547  1.0000
  C   C894      1.0  0.44088  0.98330  0.53805  1.0000
  S   S362      1.0  0.65048  0.67723  0.71283  1.0000
  C   C895      1.0  0.64254  0.91285  0.67331  1.0000
  H   H1426     1.0  0.64465  0.95011  0.54232  1.0000
  H   H1427     1.0  0.63640  0.79982  0.72303  1.0000
  H   H1428     1.0  0.65317  0.82878  0.72298  1.0000
  C   C896      1.0  0.66397  0.73290  0.54447  1.0000
  H   H1429     1.0  0.34913  0.91696  0.58154  1.0000
  H   H1430     1.0  0.64948  0.85388  0.54970  1.0000
  C   C897      1.0  0.35657  0.96125  0.56231  1.0000
  C   C898      1.0  0.66050  0.64170  0.65079  1.0000
  C   C899      1.0  0.40925  0.82184  0.72937  1.0000
  H   H1431     1.0  0.35702  0.94984  0.59546  1.0000
  H   H1432     1.0  0.65022  0.99988  0.63300  1.0000
  H   H1433     1.0  0.35408  0.86098  0.51691  1.0000
  C   C900      1.0  0.61495  0.88998  0.55600  1.0000
  H   H1434     1.0  0.64629  0.62496  0.69438  1.0000
  C   C901      1.0  0.61544  0.89063  0.57275  1.0000
  H   H1435     1.0  0.39243  0.89977  0.66140  1.0000
  C   C902      1.0  0.65411  0.81263  0.71845  1.0000
  H   H1436     1.0  0.39915  0.96814  0.58730  1.0000
  N   N86       1.0  0.33666  0.94782  0.57730  1.0000
  C   C903      1.0  0.66095  0.93363  0.66560  1.0000
  H   H1437     1.0  0.65684  0.53320  0.56012  1.0000
  C   C904      1.0  0.34135  0.95442  0.59279  1.0000
  H   H1438     1.0  0.41577  0.88314  0.51728  1.0000
  N   N87       1.0  0.46115  0.00321  0.53676  1.0000
  C   C905      1.0  0.66140  0.64250  0.66748  1.0000
  H   H1439     1.0  0.54148  0.51830  0.57984  1.0000
  H   H1440     1.0  0.65378  0.83527  0.67728  1.0000
  Fe  Fe186     1.0  0.65355  0.64971  0.73450  1.0000
  H   H1441     1.0  0.64473  0.72885  0.54854  1.0000
  H   H1442     1.0  0.33966  0.92013  0.67131  1.0000
  N   N88       1.0  0.39045  0.87100  0.50410  1.0000
  C   C906      1.0  0.33332  0.92196  0.57961  1.0000
  N   N89       1.0  0.66296  0.81875  0.69957  1.0000
  H   H1443     1.0  0.65479  0.95092  0.56109  1.0000
  H   H1444     1.0  0.66555  0.80427  0.72492  1.0000
  C   C907      1.0  0.48108  0.00331  0.52317  1.0000
  C   C908      1.0  0.66362  0.79678  0.69415  1.0000
  C   C909      1.0  0.36666  0.85485  0.50846  1.0000
  H   H1445     1.0  0.47702  0.00561  0.51050  1.0000
  H   H1446     1.0  0.65965  0.57416  0.65613  1.0000
  H   H1447     1.0  0.66262  0.91883  0.53573  1.0000
  C   C910      1.0  0.40508  0.00548  0.57553  1.0000
  H   H1448     1.0  0.37885  0.90220  0.50446  1.0000
  C   C911      1.0  0.56417  0.50816  0.59483  1.0000
  H   H1449     1.0  0.40632  0.84429  0.49785  1.0000
  H   H1450     1.0  0.60654  0.91812  0.78914  1.0000
  S   S363      1.0  0.44970  0.95947  0.84446  1.0000
  H   H1451     1.0  0.35699  0.89926  0.88096  1.0000
  C   C912      1.0  0.42835  0.98994  0.82920  1.0000
  H   H1452     1.0  0.34197  0.90981  0.79448  1.0000
  C   C913      1.0  0.54174  0.54477  0.84278  1.0000
  H   H1453     1.0  0.40182  0.93561  0.85724  1.0000
  C   C914      1.0  0.61627  0.99708  0.85753  1.0000
  C   C915      1.0  0.39198  0.94029  0.86831  1.0000
  H   H1454     1.0  0.33828  0.90836  0.86863  1.0000
  H   H1455     1.0  0.54888  0.59876  0.85150  1.0000
  H   H1456     1.0  0.37654  0.86356  0.76399  1.0000
  C   C916      1.0  0.35674  0.91155  0.86897  1.0000
  N   N90       1.0  0.37613  0.93480  0.78551  1.0000
  S   S364      1.0  0.62046  0.89412  0.85767  1.0000
  Fe  Fe187     1.0  0.63335  0.56765  0.87487  1.0000
  S   S365      1.0  0.62578  0.53019  0.87181  1.0000
  H   H1457     1.0  0.52783  0.52747  0.84679  1.0000
  Fe  Fe188     1.0  0.61551  0.58546  0.84475  1.0000
  S   S366      1.0  0.60712  0.55017  0.83862  1.0000
  S   S367      1.0  0.61082  0.61895  0.82976  1.0000
  Fe  Fe189     1.0  0.59212  0.53486  0.86698  1.0000
  H   H1458     1.0  0.38869  0.78481  0.76979  1.0000
  Fe  Fe190     1.0  0.64110  0.54817  0.84374  1.0000
  C   C917      1.0  0.42008  1.00000  0.81570  1.0000
  S   S368      1.0  0.59817  0.57073  0.87291  1.0000
  S   S369      1.0  0.65107  0.58506  0.84703  1.0000
  C   C918      1.0  0.65789  0.90141  0.92544  1.0000
  H   H1459     1.0  0.56335  0.93119  0.78367  1.0000
  H   H1460     1.0  0.35652  0.83512  0.81866  1.0000
  Fe  Fe191     1.0  0.41891  0.87195  0.85759  1.0000
  S   S370      1.0  0.44950  0.89401  0.86347  1.0000
  S   S371      1.0  0.38833  0.84702  0.87857  1.0000
  Fe  Fe192     1.0  0.43990  0.89039  0.81903  1.0000
  S   S372      1.0  0.47278  0.91367  0.82162  1.0000
  S   S373      1.0  0.43483  0.89077  0.79284  1.0000
  Fe  Fe193     1.0  0.47057  0.88250  0.84296  1.0000
  S   S374      1.0  0.49977  0.86762  0.84795  1.0000
  Fe  Fe194     1.0  0.44856  0.92283  0.84182  1.0000
  H   H1461     1.0  0.39058  0.95240  0.80263  1.0000
  S   S375      1.0  0.43990  0.85818  0.83843  1.0000
  S   S376      1.0  0.41584  0.90187  0.83774  1.0000
  H   H1462     1.0  0.35779  0.91068  0.77346  1.0000
  Fe  Fe195     1.0  0.64298  0.92185  0.83388  1.0000
  H   H1463     1.0  0.64349  0.89866  0.77910  1.0000
  H   H1464     1.0  0.56853  0.92499  0.82848  1.0000
  H   H1465     1.0  0.59282  0.88850  0.80268  1.0000
  S   S377      1.0  0.57552  0.92933  0.87515  1.0000
  N   N91       1.0  0.57260  0.91316  0.80539  1.0000
  S   S378      1.0  0.63986  0.93252  0.87842  1.0000
  C   C919      1.0  0.41259  0.83106  0.75603  1.0000
  C   C920      1.0  0.36921  0.84639  0.80697  1.0000
  C   C921      1.0  0.39098  0.85958  0.80769  1.0000
  C   C922      1.0  0.40747  0.87400  0.79258  1.0000
  H   H1466     1.0  0.40468  0.82695  0.77011  1.0000
  H   H1467     1.0  0.39505  0.85843  0.81991  1.0000
  H   H1468     1.0  0.58326  0.89890  0.78412  1.0000
  C   C923      1.0  0.54992  0.89467  0.81201  1.0000
  H   H1469     1.0  0.59799  0.93319  0.81542  1.0000
  H   H1470     1.0  0.39383  0.92912  0.88014  1.0000
  H   H1471     1.0  0.36538  0.89649  0.79201  1.0000
  C   C924      1.0  0.35849  0.88361  0.91756  1.0000
  C   C925      1.0  0.38210  0.89169  0.90885  1.0000
  C   C926      1.0  0.39124  0.88065  0.89674  1.0000
  C   C927      1.0  0.37698  0.86090  0.89375  1.0000
  Fe  Fe196     1.0  0.66128  0.95691  0.85296  1.0000
  H   H1472     1.0  0.35060  0.95392  0.78802  1.0000
  H   H1473     1.0  0.39328  0.90689  0.91116  1.0000
  H   H1474     1.0  0.40934  0.88744  0.88982  1.0000
  S   S379      1.0  0.34749  0.89912  0.93160  1.0000
  C   C928      1.0  0.52954  0.55315  0.87005  1.0000
  C   C929      1.0  0.61290  0.61921  0.80828  1.0000
  C   C930      1.0  0.62312  0.64067  0.79545  1.0000
  C   C931      1.0  0.62617  0.64082  0.77814  1.0000
  C   C932      1.0  0.61882  0.61954  0.77368  1.0000
  C   C933      1.0  0.60776  0.59824  0.78654  1.0000
  C   C934      1.0  0.60487  0.59806  0.80383  1.0000
  H   H1475     1.0  0.62901  0.65714  0.79887  1.0000
  H   H1476     1.0  0.63389  0.65745  0.76829  1.0000
  H   H1477     1.0  0.60181  0.58181  0.78310  1.0000
  H   H1478     1.0  0.59630  0.58159  0.81366  1.0000
  H   H1479     1.0  0.40076  0.95920  0.86738  1.0000
  H   H1480     1.0  0.64600  0.90942  0.93212  1.0000
  S   S380      1.0  0.64037  0.91791  0.80811  1.0000
  H   H1481     1.0  0.34780  0.95085  0.85215  1.0000
  H   H1482     1.0  0.34235  0.83697  0.90066  1.0000
  Fe  Fe197     1.0  0.65134  0.90405  0.86809  1.0000
  H   H1483     1.0  0.58759  0.00238  0.89574  1.0000
  C   C935      1.0  0.34411  0.86388  0.91461  1.0000
  H   H1484     1.0  0.54631  0.55132  0.82855  1.0000
  H   H1485     1.0  0.60427  0.97979  0.85782  1.0000
  C   C936      1.0  0.35254  0.94836  0.98223  1.0000
  C   C937      1.0  0.37386  0.92881  0.96450  1.0000
  H   H1486     1.0  0.40677  0.92348  0.77871  1.0000
  H   H1487     1.0  0.33376  0.95677  0.95580  1.0000
  H   H1488     1.0  0.38640  0.92075  0.80790  1.0000
  H   H1489     1.0  0.36607  0.81381  0.76513  1.0000
  H   H1490     1.0  0.54319  0.88934  0.80145  1.0000
  H   H1491     1.0  0.42454  0.99451  0.84127  1.0000
  C   C938      1.0  0.55407  0.91188  0.86806  1.0000
  C   C939      1.0  0.53472  0.91952  0.86576  1.0000
  C   C940      1.0  0.51789  0.90607  0.85958  1.0000
  C   C941      1.0  0.52018  0.88473  0.85600  1.0000
  C   C942      1.0  0.53929  0.87691  0.85858  1.0000
  C   C943      1.0  0.55624  0.89051  0.86450  1.0000
  H   H1492     1.0  0.53291  0.93603  0.86851  1.0000
  H   H1493     1.0  0.50325  0.91232  0.85752  1.0000
  H   H1494     1.0  0.54108  0.86034  0.85594  1.0000
  H   H1495     1.0  0.57080  0.88421  0.86658  1.0000
  H   H1496     1.0  0.36475  0.96799  0.94816  1.0000
  C   C944      1.0  0.35479  0.94256  0.88339  1.0000
  C   C945      1.0  0.35964  0.91193  0.78640  1.0000
  H   H1497     1.0  0.44273  0.97441  0.78561  1.0000
  C   C946      1.0  0.64742  0.62341  0.88787  1.0000
  H   H1498     1.0  0.41151  0.95513  0.77264  1.0000
  C   C947      1.0  0.66186  0.59164  0.79649  1.0000
  N   N92       1.0  0.61409  0.00038  0.87496  1.0000
  H   H1499     1.0  0.63684  0.61794  0.87963  1.0000
  C   C948      1.0  0.66438  0.65384  0.90103  1.0000
  C   C949      1.0  0.36376  0.84788  0.79119  1.0000
  S   S381      1.0  0.35089  0.00636  0.85721  1.0000
  C   C950      1.0  0.65729  0.60736  0.89639  1.0000
  C   C951      1.0  0.61985  0.98085  0.88578  1.0000
  H   H1500     1.0  0.63946  0.89697  0.90634  1.0000
  Fe  Fe198     1.0  0.61111  0.92514  0.86565  1.0000
  H   H1501     1.0  0.64722  0.79852  0.90157  1.0000
  H   H1502     1.0  0.41447  0.78733  0.75367  1.0000
  C   C952      1.0  0.58947  0.90425  0.79486  1.0000
  C   C953      1.0  0.56984  0.93489  0.79474  1.0000
  C   C954      1.0  0.65438  0.89469  0.91069  1.0000
  H   H1503     1.0  0.50764  0.57991  0.85285  1.0000
  C   C955      1.0  0.35346  0.85230  0.90289  1.0000
  C   C956      1.0  0.38029  0.86243  0.77618  1.0000
  H   H1504     1.0  0.36686  0.96536  0.97787  1.0000
  H   H1505     1.0  0.39754  0.93696  0.76078  1.0000
  C   C957      1.0  0.58114  0.91889  0.81995  1.0000
  H   H1506     1.0  0.37947  0.97228  0.77719  1.0000
  H   H1507     1.0  0.55107  0.87830  0.82067  1.0000
  H   H1508     1.0  0.55724  0.94209  0.80233  1.0000
  C   C958      1.0  0.36704  0.95464  0.77896  1.0000
  C   C959      1.0  0.44114  0.97370  0.82714  1.0000
  H   H1509     1.0  0.36202  0.96160  0.88303  1.0000
  H   H1510     1.0  0.45592  0.95536  0.80982  1.0000
  H   H1511     1.0  0.55724  0.54082  0.84624  1.0000
  H   H1512     1.0  0.65220  0.80911  0.87007  1.0000
  H   H1513     1.0  0.53660  0.90117  0.81949  1.0000
  H   H1514     1.0  0.66567  0.77570  0.88377  1.0000
  H   H1515     1.0  0.36182  0.93239  0.81203  1.0000
  H   H1516     1.0  0.33606  0.95302  0.98602  1.0000
  C   C960      1.0  0.35000  0.95137  0.95315  1.0000
  C   C961      1.0  0.65293  0.89609  0.80297  1.0000
  H   H1517     1.0  0.51662  0.53516  0.87488  1.0000
  H   H1518     1.0  0.52283  0.56531  0.87696  1.0000
  S   S382      1.0  0.33639  0.83127  0.79054  1.0000
  H   H1519     1.0  0.64281  0.65863  0.88384  1.0000
  C   C962      1.0  0.42539  0.99456  0.79992  1.0000
  H   H1520     1.0  0.49883  0.54975  0.85125  1.0000
  N   N93       1.0  0.53452  0.56237  0.85124  1.0000
  H   H1521     1.0  0.51664  0.57332  0.83267  1.0000
  H   H1522     1.0  0.61815  0.98256  0.89910  1.0000
  N   N94       1.0  0.36739  0.93669  0.86829  1.0000
  C   C963      1.0  0.65085  0.64647  0.89027  1.0000
  H   H1523     1.0  0.34957  0.94229  0.94268  1.0000
  C   C964      1.0  0.55343  0.58500  0.84531  1.0000
  C   C965      1.0  0.65263  0.89055  0.78740  1.0000
  C   C966      1.0  0.43860  0.97870  0.79777  1.0000
  H   H1524     1.0  0.56956  0.58231  0.84840  1.0000
  C   C967      1.0  0.40209  0.87535  0.77685  1.0000
  C   C968      1.0  0.66473  0.81109  0.89916  1.0000
  C   C969      1.0  0.51345  0.56653  0.84680  1.0000
  H   H1525     1.0  0.38636  0.77793  0.74995  1.0000
  H   H1526     1.0  0.58666  0.94923  0.78951  1.0000
  S   S383      1.0  0.63168  0.95209  0.84101  1.0000
  N   N95       1.0  0.39844  0.81533  0.74807  1.0000
  S   S384      1.0  0.65309  0.57816  0.89378  1.0000
  C   C970      1.0  0.44605  0.96790  0.81148  1.0000
  H   H1527     1.0  0.55790  0.59259  0.83115  1.0000
  C   C971      1.0  0.39897  0.93767  0.77387  1.0000
  C   C972      1.0  0.37883  0.93506  0.80283  1.0000
  H   H1528     1.0  0.58413  0.90307  0.82797  1.0000
  N   N96       1.0  0.44924  0.82961  0.89609  1.0000
  C   C973      1.0  0.47130  0.84779  0.89400  1.0000
  C   C974      1.0  0.44759  0.82619  0.87915  1.0000
  C   C975      1.0  0.42942  0.83768  0.90368  1.0000
  C   C976      1.0  0.44864  0.80678  0.90746  1.0000
  H   H1529     1.0  0.47232  0.86526  0.88548  1.0000
  H   H1530     1.0  0.48660  0.84247  0.88796  1.0000
  H   H1531     1.0  0.47333  0.85082  0.90650  1.0000
  H   H1532     1.0  0.43092  0.81310  0.88004  1.0000
  H   H1533     1.0  0.44845  0.84319  0.87028  1.0000
  H   H1534     1.0  0.46219  0.82004  0.87297  1.0000
  H   H1535     1.0  0.42935  0.85486  0.89543  1.0000
  H   H1536     1.0  0.42988  0.84033  0.91655  1.0000
  H   H1537     1.0  0.41246  0.82463  0.90509  1.0000
  H   H1538     1.0  0.43224  0.79270  0.90922  1.0000
  H   H1539     1.0  0.44983  0.80868  0.92039  1.0000
  H   H1540     1.0  0.46337  0.80021  0.90206  1.0000
  H   H1541     1.0  0.63804  0.98077  0.88052  1.0000
  N   N97       1.0  0.35214  0.93562  0.96869  1.0000
  H   H1542     1.0  0.41480  0.88655  0.76514  1.0000
  H   H1543     1.0  0.37591  0.91670  0.97589  1.0000
  S   S385      1.0  0.35636  0.98321  0.81591  1.0000
  H   H1544     1.0  0.54548  0.55120  0.87388  1.0000
  H   H1545     1.0  0.65743  0.60763  0.79951  1.0000
  C   C977      1.0  0.37483  0.81823  0.75117  1.0000
  H   H1546     1.0  0.66241  0.82878  0.90002  1.0000
  H   H1547     1.0  0.37459  0.97152  0.85131  1.0000
  H   H1548     1.0  0.36354  0.95418  0.76634  1.0000
  H   H1549     1.0  0.35467  0.93727  0.99404  1.0000
  H   H1550     1.0  0.60818  0.96310  0.88660  1.0000
  C   C978      1.0  0.36613  0.95244  0.85243  1.0000
  S   S386      1.0  0.41416  0.00612  0.78328  1.0000
  H   H1551     1.0  0.63429  0.99720  0.85144  1.0000
  H   H1552     1.0  0.36618  0.90624  0.85804  1.0000
  H   H1553     1.0  0.57745  0.98263  0.88344  1.0000
  H   H1554     1.0  0.38934  0.94476  0.95985  1.0000
  H   H1555     1.0  0.37403  0.91927  0.95423  1.0000
  H   H1556     1.0  0.37521  0.94829  0.84079  1.0000
  H   H1557     1.0  0.43048  0.82920  0.75412  1.0000
  C   C979      1.0  0.58995  0.99999  0.88254  1.0000
  H   H1558     1.0  0.41418  0.85016  0.75042  1.0000
  H   H1559     1.0  0.66452  0.88939  0.82592  1.0000
  H   H1560     1.0  0.66470  0.87088  0.77012  1.0000
  C   C980      1.0  0.66485  0.87508  0.78222  1.0000
  S   S387      1.0  0.66416  0.53304  0.82700  1.0000
  C   C981      1.0  0.66454  0.88536  0.81376  1.0000
  H   H1561     1.0  0.35584  0.93134  0.89560  1.0000
  H   H1562     1.0  0.33604  0.93953  0.88395  1.0000
  H   H1563     1.0  0.64617  0.58022  0.79439  1.0000
  S   S388      1.0  0.62409  0.61896  0.75216  1.0000
  C   C982      1.0  0.39696  0.79022  0.75570  1.0000
  H   H1564     1.0  0.33510  0.99123  0.89379  1.0000
  H   H1565     1.0  0.66524  0.58136  0.80806  1.0000
  H   H1566     1.0  0.66163  0.60081  0.76313  1.0000
  C   C983      1.0  0.80565  0.14510  0.06657  1.0000
  H   H1567     1.0  0.93832  0.11175  0.04713  1.0000
  C   C984      1.0  0.72809  0.07487  0.18891  1.0000
  H   H1568     1.0  0.82065  0.15866  0.05670  1.0000
  H   H1569     1.0  0.90527  0.24682  0.15524  1.0000
  N   N98       1.0  0.80838  0.12087  0.06837  1.0000
  C   C985      1.0  0.70682  0.01438  0.22844  1.0000
  C   C986      1.0  0.73381  0.08151  0.20314  1.0000
  H   H1570     1.0  0.84552  0.13278  0.06384  1.0000
  Fe  Fe199     1.0  0.99328  0.19555  0.06030  1.0000
  H   H1571     1.0  0.81195  0.09682  0.05270  1.0000
  H   H1572     1.0  0.72083  0.07025  0.08348  1.0000
  C   C987      1.0  0.69301  0.07596  0.21610  1.0000
  H   H1573     1.0  0.78913  0.00898  0.11735  1.0000
  S   S389      1.0  0.79065  0.05920  0.23652  1.0000
  C   C988      1.0  0.95918  0.29098  0.22669  1.0000
  C   C989      1.0  0.68723  0.06886  0.20204  1.0000
  H   H1574     1.0  0.98890  0.32201  0.21643  1.0000
  H   H1575     1.0  0.91775  0.26403  0.11565  1.0000
  H   H1576     1.0  0.96139  0.12081  0.05671  1.0000
  S   S390      1.0  0.95150  0.30423  0.17212  1.0000
  C   C990      1.0  0.72609  0.05656  0.09115  1.0000
  H   H1577     1.0  0.70848  0.02121  0.19503  1.0000
  C   C991      1.0  0.69238  0.48947  0.24447  1.0000
  C   C992      1.0  0.95745  0.11601  0.04507  1.0000
  H   H1578     1.0  0.82516  0.12750  0.04151  1.0000
  Fe  Fe200     1.0  0.79082  0.04814  0.05556  1.0000
  S   S391      1.0  0.81590  0.05176  0.07169  1.0000
  S   S392      1.0  0.75968  0.06142  0.06197  1.0000
  Fe  Fe201     1.0  0.84292  0.06768  0.04650  1.0000
  S   S393      1.0  0.86838  0.10387  0.04174  1.0000
  S   S394      1.0  0.96387  0.28601  0.24709  1.0000
  S   S395      1.0  0.81752  0.06608  0.03046  1.0000
  C   C993      1.0  0.80991  0.11495  0.05175  1.0000
  Fe  Fe202     1.0  0.97430  0.20204  0.09545  1.0000
  S   S396      1.0  0.97270  0.16474  0.10851  1.0000
  S   S397      1.0  0.96411  0.22343  0.11386  1.0000
  S   S398      1.0  0.82502  0.01550  0.00684  1.0000
  C   C994      1.0  0.71625  0.08221  0.21668  1.0000
  Fe  Fe203     1.0  0.95858  0.15384  0.08751  1.0000
  S   S399      1.0  0.93012  0.11934  0.09331  1.0000
  H   H1579     1.0  0.79393  0.11512  0.04743  1.0000
  S   S400      1.0  0.95690  0.19052  0.07586  1.0000
  C   C995      1.0  0.88458  0.10813  0.05666  1.0000
  C   C996      1.0  0.89858  0.13107  0.05507  1.0000
  C   C997      1.0  0.91223  0.13486  0.06650  1.0000
  C   C998      1.0  0.91199  0.11567  0.07954  1.0000
  C   C999      1.0  0.89758  0.09284  0.08135  1.0000
  C   C1000     1.0  0.88389  0.08905  0.06995  1.0000
  H   H1580     1.0  0.89899  0.14592  0.04489  1.0000
  H   H1581     1.0  0.92310  0.15255  0.06514  1.0000
  H   H1582     1.0  0.89732  0.07795  0.09144  1.0000
  H   H1583     1.0  0.87314  0.07131  0.07127  1.0000
  C   C1001     1.0  0.95422  0.29888  0.19319  1.0000
  C   C1002     1.0  0.93844  0.27968  0.20625  1.0000
  C   C1003     1.0  0.94107  0.27556  0.22301  1.0000
  H   H1584     1.0  0.76511  0.02462  0.08767  1.0000
  C   C1004     1.0  0.97478  0.31017  0.21366  1.0000
  C   C1005     1.0  0.97257  0.31378  0.19692  1.0000
  H   H1585     1.0  0.92424  0.26801  0.20345  1.0000
  H   H1586     1.0  0.88892  0.28073  0.15384  1.0000
  H   H1587     1.0  0.91528  0.29845  0.15623  1.0000
  C   C1006     1.0  0.84399  0.03874  0.24702  1.0000
  C   C1007     1.0  0.99518  0.13921  0.02635  1.0000
  C   C1008     1.0  0.98410  0.25132  0.11062  1.0000
  Fe  Fe204     1.0  0.98281  0.33361  0.15537  1.0000
  C   C1009     1.0  0.75112  0.03088  0.09351  1.0000
  H   H1588     1.0  0.82945  0.12442  0.08606  1.0000
  H   H1589     1.0  0.99670  0.29350  0.13202  1.0000
  H   H1590     1.0  0.97152  0.25281  0.13661  1.0000
  H   H1591     1.0  0.67948  0.07649  0.22662  1.0000
  H   H1592     1.0  0.96223  0.09931  0.04444  1.0000
  C   C1010     1.0  0.73965  0.02120  0.11095  1.0000
  S   S401      1.0  0.66865  0.06167  0.15221  1.0000
  C   C1011     1.0  0.70480  0.06839  0.18841  1.0000
  H   H1593     1.0  0.70047  0.06307  0.17747  1.0000
  H   H1594     1.0  0.74164  0.07446  0.17837  1.0000
  S   S402      1.0  0.99968  0.42064  0.12620  1.0000
  H   H1595     1.0  0.97169  0.14350  0.00243  1.0000
  H   H1596     1.0  0.96204  0.17259  0.16259  1.0000
  C   C1012     1.0  0.74444  0.04862  0.08360  1.0000
  C   C1013     1.0  0.99789  0.28514  0.12161  1.0000
  C   C1014     1.0  0.71473  0.04703  0.10872  1.0000
  Fe  Fe205     1.0  0.82048  0.02941  0.03041  1.0000
  C   C1015     1.0  0.96259  0.12913  0.01452  1.0000
  H   H1597     1.0  0.83255  0.10201  0.07493  1.0000
  H   H1598     1.0  0.93236  0.26427  0.15686  1.0000
  Fe  Fe206     1.0  0.76528  0.07939  0.23138  1.0000
  H   H1599     1.0  0.93182  0.24923  0.14008  1.0000
  H   H1600     1.0  0.95356  0.30180  0.13616  1.0000
  H   H1601     1.0  0.78621  0.10737  0.09422  1.0000
  H   H1602     1.0  0.85805  0.03800  0.23641  1.0000
  N   N99       1.0  0.96989  0.13551  0.02932  1.0000
  H   H1603     1.0  0.70081  0.05345  0.11461  1.0000
  C   C1016     1.0  0.82985  0.12001  0.07358  1.0000
  H   H1604     1.0  0.94355  0.12625  0.01636  1.0000
  S   S403      1.0  0.98652  0.35094  0.12782  1.0000
  H   H1605     1.0  0.72059  0.08778  0.22754  1.0000
  H   H1606     1.0  0.97416  0.17308  0.01994  1.0000
  H   H1607     1.0  0.96740  0.18133  0.13967  1.0000
  H   H1608     1.0  0.89032  0.26086  0.13012  1.0000
  H   H1609     1.0  0.90448  0.30897  0.13850  1.0000
  H   H1610     1.0  0.78954  0.08494  0.08316  1.0000
  H   H1611     1.0  0.80445  0.15019  0.07888  1.0000
  H   H1612     1.0  0.77164  0.10336  0.07781  1.0000
  H   H1613     1.0  0.78961  0.14631  0.06262  1.0000
  H   H1614     1.0  0.77460  0.03073  0.15617  1.0000
  C   C1017     1.0  0.97291  0.18651  0.15070  1.0000
  C   C1018     1.0  0.97744  0.18049  0.24532  1.0000
  H   H1615     1.0  0.95353  0.28925  0.11820  1.0000
  H   H1616     1.0  0.99564  0.40849  0.21425  1.0000
  S   S404      1.0  0.76278  0.08783  0.20418  1.0000
  H   H1617     1.0  0.80892  0.03160  0.12267  1.0000
  H   H1618     1.0  0.92894  0.26070  0.23311  1.0000
  H   H1619     1.0  0.96873  0.20354  0.15124  1.0000
  H   H1620     1.0  0.94229  0.31419  0.11916  1.0000
  H   H1621     1.0  0.83480  0.05101  0.24133  1.0000
  C   C1019     1.0  0.78810  0.10344  0.08150  1.0000
  N   N100      1.0  0.92008  0.28063  0.13622  1.0000
  C   C1020     1.0  0.90797  0.27333  0.12363  1.0000
  C   C1021     1.0  0.92250  0.25929  0.14759  1.0000
  C   C1022     1.0  0.90655  0.29270  0.14662  1.0000
  C   C1023     1.0  0.94336  0.29718  0.12703  1.0000
  H   H1622     1.0  0.90605  0.28903  0.11474  1.0000
  H   H1623     1.0  0.96649  0.11241  0.01263  1.0000
  H   H1624     1.0  0.70646  0.03266  0.22241  1.0000
  H   H1625     1.0  0.80471  0.03180  0.15330  1.0000
  H   H1626     1.0  0.99463  0.18188  0.17585  1.0000
  S   S405      1.0  0.84871  0.03263  0.04403  1.0000
  H   H1627     1.0  0.76986  0.02066  0.22614  1.0000
  H   H1628     1.0  0.80726  0.01591  0.23811  1.0000
  C   C1024     1.0  0.72177  0.02956  0.11864  1.0000
  H   H1629     1.0  0.98522  0.32806  0.18694  1.0000
  S   S406      1.0  0.99389  0.15808  0.07086  1.0000
  C   C1025     1.0  0.98340  0.26213  0.12415  1.0000
  C   C1026     1.0  0.98716  0.18001  0.22850  1.0000
  S   S407      1.0  0.99846  0.36799  0.16089  1.0000
  H   H1630     1.0  0.97615  0.17728  0.22001  1.0000
  H   H1631     1.0  0.70016  0.47322  0.22383  1.0000
  H   H1632     1.0  0.96898  0.16279  0.04266  1.0000
  H   H1633     1.0  0.98949  0.46067  0.13737  1.0000
  H   H1634     1.0  0.99540  0.23606  0.24109  1.0000
  C   C1027     1.0  0.68797  0.48086  0.23058  1.0000
  H   H1635     1.0  0.78271  0.00849  0.16987  1.0000
  C   C1028     1.0  0.96436  0.15775  0.03131  1.0000
  Fe  Fe207     1.0  0.67592  0.02679  0.15097  1.0000
  H   H1636     1.0  0.99623  0.27808  0.20108  1.0000
  H   H1637     1.0  0.94555  0.15594  0.03302  1.0000
  C   C1029     1.0  0.79073  0.01983  0.12673  1.0000
  S   S408      1.0  0.79123  0.01114  0.05417  1.0000
  H   H1638     1.0  0.99931  0.16144  0.13586  1.0000
  S   S409      1.0  0.70905  0.01818  0.14075  1.0000
  Fe  Fe208     1.0  0.81911  0.01655  0.06788  1.0000
  H   H1639     1.0  0.67045  0.01507  0.21525  1.0000
  H   H1640     1.0  0.77904  0.03144  0.12555  1.0000
  H   H1641     1.0  0.97887  0.25210  0.23041  1.0000
  H   H1642     1.0  0.98654  0.22807  0.22315  1.0000
  H   H1643     1.0  0.72533  0.01512  0.22729  1.0000
  C   C1030     1.0  0.99296  0.24339  0.22828  1.0000
  C   C1031     1.0  0.78683  0.01960  0.15644  1.0000
  H   H1644     1.0  0.69793  0.01009  0.24234  1.0000
  N   N101      1.0  0.99792  0.18921  0.14871  1.0000
  H   H1645     1.0  0.99209  0.15152  0.15890  1.0000
  C   C1032     1.0  0.66797  0.48236  0.22527  1.0000
  H   H1646     1.0  0.76681  0.08796  0.32852  1.0000
  N   N102      1.0  0.97424  0.19504  0.33049  1.0000
  H   H1647     1.0  0.99649  0.17729  0.31793  1.0000
  H   H1648     1.0  0.87334  0.11130  0.27000  1.0000
  S   S410      1.0  0.93596  0.21592  0.25719  1.0000
  C   C1033     1.0  0.76114  0.17939  0.44741  1.0000
  H   H1649     1.0  0.98384  0.16373  0.34052  1.0000
  S   S411      1.0  0.77829  0.09982  0.47028  1.0000
  H   H1650     1.0  0.97910  0.40767  0.36472  1.0000
  H   H1651     1.0  0.95945  0.18298  0.35784  1.0000
  S   S412      1.0  0.98196  0.35359  0.36919  1.0000
  H   H1652     1.0  0.85784  0.19073  0.47469  1.0000
  C   C1034     1.0  0.80969  0.01682  0.27013  1.0000
  H   H1653     1.0  0.95997  0.27696  0.36485  1.0000
  S   S413      1.0  0.78185  0.03672  0.46685  1.0000
  Fe  Fe209     1.0  0.74691  0.07628  0.26884  1.0000
  H   H1654     1.0  0.92417  0.37883  0.39925  1.0000
  S   S414      1.0  0.72482  0.09004  0.28747  1.0000
  H   H1655     1.0  0.88276  0.20812  0.49177  1.0000
  H   H1656     1.0  0.94304  0.22647  0.43173  1.0000
  H   H1657     1.0  0.96293  0.42901  0.36215  1.0000
  C   C1035     1.0  0.98091  0.26765  0.44295  1.0000
  H   H1658     1.0  0.81733  0.13248  0.25394  1.0000
  S   S415      1.0  0.76970  0.05458  0.27727  1.0000
  Fe  Fe210     1.0  0.94338  0.25019  0.26484  1.0000
  Fe  Fe211     1.0  0.74405  0.09135  0.48946  1.0000
  H   H1659     1.0  0.67939  0.50512  0.26430  1.0000
  Fe  Fe212     1.0  0.92635  0.22590  0.30319  1.0000
  S   S416      1.0  0.91678  0.18921  0.29898  1.0000
  S   S417      1.0  0.92315  0.23046  0.33010  1.0000
  Fe  Fe213     1.0  0.95073  0.20224  0.27859  1.0000
  Fe  Fe214     1.0  0.90254  0.20578  0.27806  1.0000
  S   S418      1.0  0.86735  0.19090  0.27385  1.0000
  S   S419      1.0  0.90905  0.24152  0.28413  1.0000
  H   H1660     1.0  0.74721  0.10080  0.31911  1.0000
  S   S420      1.0  0.93341  0.33139  0.41091  1.0000
  C   C1036     1.0  0.92424  0.31686  0.46858  1.0000
  C   C1037     1.0  0.94050  0.30862  0.45868  1.0000
  C   C1038     1.0  0.94377  0.31344  0.44083  1.0000
  C   C1039     1.0  0.93021  0.32575  0.43304  1.0000
  C   C1040     1.0  0.91390  0.33378  0.44298  1.0000
  C   C1041     1.0  0.91120  0.32968  0.46067  1.0000
  H   H1661     1.0  0.95065  0.29883  0.46479  1.0000
  H   H1662     1.0  0.95637  0.30732  0.43309  1.0000
  C   C1042     1.0  0.70439  0.09634  0.42907  1.0000
  H   H1663     1.0  0.89864  0.33605  0.46831  1.0000
  C   C1043     1.0  0.94326  0.25702  0.34947  1.0000
  H   H1664     1.0  0.92979  0.24477  0.36036  1.0000
  H   H1665     1.0  0.90339  0.34326  0.43700  1.0000
  S   S421      1.0  0.73489  0.05368  0.25199  1.0000
  H   H1666     1.0  0.81724  0.02519  0.27934  1.0000
  C   C1044     1.0  0.87198  0.14681  0.27089  1.0000
  C   C1045     1.0  0.85983  0.16376  0.26828  1.0000
  H   H1667     1.0  0.93677  0.24395  0.44644  1.0000
  H   H1668     1.0  0.96050  0.43932  0.39697  1.0000
  N   N103      1.0  0.97272  0.24501  0.43859  1.0000
  H   H1669     1.0  0.88710  0.15073  0.27573  1.0000
  S   S422      1.0  0.77543  0.10386  0.24760  1.0000
  Fe  Fe215     1.0  0.96873  0.33210  0.39657  1.0000
  H   H1670     1.0  0.96115  0.26938  0.30600  1.0000
  C   C1046     1.0  0.86412  0.12450  0.26766  1.0000
  S   S423      1.0  0.67716  0.02005  0.36159  1.0000
  C   C1047     1.0  0.72139  0.04012  0.46081  1.0000
  H   H1671     1.0  0.67207  0.08392  0.47039  1.0000
  H   H1672     1.0  0.93438  0.41593  0.40878  1.0000
  H   H1673     1.0  0.80322  0.20589  0.44737  1.0000
  Fe  Fe216     1.0  0.79415  0.11073  0.49082  1.0000
  H   H1674     1.0  0.75015  0.18805  0.45501  1.0000
  C   C1048     1.0  0.68886  0.02964  0.44899  1.0000
  S   S424      1.0  0.71825  0.48883  0.25018  1.0000
  Fe  Fe217     1.0  0.67185  0.06910  0.40551  1.0000
  C   C1049     1.0  0.68480  0.08867  0.44316  1.0000
  C   C1050     1.0  0.68731  0.08934  0.45959  1.0000
  H   H1675     1.0  0.95672  0.38573  0.41198  1.0000
  S   S425      1.0  0.71207  0.09834  0.48272  1.0000
  C   C1051     1.0  0.69095  0.03991  0.34119  1.0000
  C   C1052     1.0  0.70150  0.03138  0.32795  1.0000
  C   C1053     1.0  0.71185  0.04660  0.31136  1.0000
  C   C1054     1.0  0.71133  0.07033  0.30791  1.0000
  C   C1055     1.0  0.70055  0.07880  0.32108  1.0000
  C   C1056     1.0  0.69061  0.06370  0.33773  1.0000
  C   C1057     1.0  0.97177  0.42020  0.37090  1.0000
  H   H1676     1.0  0.72002  0.03991  0.30123  1.0000
  H   H1677     1.0  0.70017  0.09719  0.31844  1.0000
  H   H1678     1.0  0.68264  0.07052  0.34781  1.0000
  C   C1058     1.0  0.84023  0.15850  0.26202  1.0000
  C   C1059     1.0  0.72649  0.10413  0.43157  1.0000
  C   C1060     1.0  0.72903  0.10416  0.44807  1.0000
  C   C1061     1.0  0.70943  0.09702  0.46210  1.0000
  H   H1679     1.0  0.74168  0.11004  0.42071  1.0000
  H   H1680     1.0  0.74611  0.11008  0.44986  1.0000
  H   H1681     1.0  0.96409  0.20735  0.45046  1.0000
  H   H1682     1.0  0.70169  0.01294  0.33055  1.0000
  C   C1062     1.0  0.99005  0.34339  0.46787  1.0000
  H   H1683     1.0  0.77045  0.19236  0.43472  1.0000
  S   S426      1.0  0.96111  0.23742  0.28427  1.0000
  H   H1684     1.0  0.79937  0.02805  0.26496  1.0000
  C   C1063     1.0  0.79292  0.19235  0.45959  1.0000
  C   C1064     1.0  0.94362  0.25459  0.33287  1.0000
  N   N104      1.0  0.78326  0.11726  0.30585  1.0000
  C   C1065     1.0  0.80500  0.11033  0.30235  1.0000
  C   C1066     1.0  0.78574  0.13561  0.31545  1.0000
  C   C1067     1.0  0.76382  0.09609  0.31611  1.0000
  C   C1068     1.0  0.77844  0.12705  0.28947  1.0000
  H   H1685     1.0  0.80424  0.09743  0.29433  1.0000
  H   H1686     1.0  0.80865  0.10192  0.31441  1.0000
  H   H1687     1.0  0.82019  0.12610  0.29535  1.0000
  H   H1688     1.0  0.80036  0.15181  0.30802  1.0000
  H   H1689     1.0  0.76967  0.14135  0.31821  1.0000
  H   H1690     1.0  0.78929  0.12883  0.32793  1.0000
  H   H1691     1.0  0.75312  0.16197  0.48137  1.0000
  H   H1692     1.0  0.80415  0.15386  0.45248  1.0000
  H   H1693     1.0  0.78080  0.14462  0.44321  1.0000
  H   H1694     1.0  0.77706  0.11390  0.28169  1.0000
  H   H1695     1.0  0.79235  0.14347  0.28157  1.0000
  H   H1696     1.0  0.76168  0.13163  0.29164  1.0000
  C   C1069     1.0  0.94632  0.42484  0.39573  1.0000
  H   H1697     1.0  0.83096  0.17168  0.25979  1.0000
  S   S427      1.0  0.98235  0.30161  0.39195  1.0000
  C   C1070     1.0  0.93653  0.38883  0.38650  1.0000
  Fe  Fe218     1.0  0.77795  0.06272  0.48261  1.0000
  N   N105      1.0  0.70714  0.02116  0.45523  1.0000
  H   H1698     1.0  0.99174  0.30065  0.31055  1.0000
  H   H1699     1.0  0.67741  0.03467  0.45909  1.0000
  H   H1700     1.0  0.97239  0.22876  0.31676  1.0000
  S   S428      1.0  0.92025  0.31187  0.49079  1.0000
  N   N106      1.0  0.95575  0.40764  0.38808  1.0000
  H   H1701     1.0  0.73498  0.03412  0.46604  1.0000
  N   N107      1.0  0.77755  0.17159  0.45648  1.0000
  H   H1702     1.0  0.99300  0.35959  0.47270  1.0000
  H   H1703     1.0  0.73045  0.05630  0.44995  1.0000
  C   C1071     1.0  0.79179  0.16029  0.44590  1.0000
  S   S429      1.0  0.93059  0.24931  0.49075  1.0000
  C   C1072     1.0  0.72205  0.01519  0.44124  1.0000
  C   C1073     1.0  0.76432  0.15423  0.47309  1.0000
  H   H1704     1.0  0.98259  0.28326  0.43231  1.0000
  S   S430      1.0  0.67345  0.50015  0.38649  1.0000
  H   H1705     1.0  0.75278  0.13815  0.47128  1.0000
  H   H1706     1.0  0.94015  0.19119  0.32677  1.0000
  C   C1074     1.0  0.99154  0.18385  0.25640  1.0000
  H   H1707     1.0  0.93648  0.43341  0.38771  1.0000
  C   C1075     1.0  0.96096  0.27065  0.31887  1.0000
  H   H1708     1.0  0.80550  0.18684  0.46641  1.0000
  H   H1709     1.0  0.99196  0.25958  0.41205  1.0000
  S   S431      1.0  0.70180  0.09684  0.40819  1.0000
  C   C1076     1.0  0.96848  0.39665  0.39923  1.0000
  H   H1710     1.0  0.77616  0.14820  0.48038  1.0000
  C   C1077     1.0  0.97056  0.22482  0.45314  1.0000
  C   C1078     1.0  0.97800  0.29086  0.33802  1.0000
  C   C1079     1.0  0.97823  0.28848  0.32146  1.0000
  S   S432      1.0  0.67826  0.03369  0.40586  1.0000
  H   H1711     1.0  0.67758  0.01567  0.44489  1.0000
  H   H1712     1.0  0.69646  0.04558  0.43775  1.0000
  H   H1713     1.0  0.94512  0.16382  0.33639  1.0000
  C   C1080     1.0  0.96744  0.19982  0.34740  1.0000
  C   C1081     1.0  0.94985  0.24336  0.43507  1.0000
  H   H1714     1.0  0.96891  0.26858  0.45472  1.0000
  H   H1715     1.0  0.95781  0.17791  0.31386  1.0000
  C   C1082     1.0  0.85603  0.18084  0.48765  1.0000
  H   H1716     1.0  0.98251  0.41035  0.40135  1.0000
  Fe  Fe219     1.0  0.76084  0.03477  0.25803  1.0000
  H   H1717     1.0  0.69872  0.49246  0.35598  1.0000
  C   C1083     1.0  0.84416  0.11907  0.26179  1.0000
  C   C1084     1.0  0.98482  0.21792  0.31713  1.0000
  H   H1718     1.0  0.98421  0.22757  0.41949  1.0000
  C   C1085     1.0  0.96031  0.27521  0.35204  1.0000
  H   H1719     1.0  0.97685  0.38466  0.39329  1.0000
  H   H1720     1.0  0.90784  0.50583  0.26215  1.0000
  Fe  Fe220     1.0  0.79766  0.08069  0.25506  1.0000
  H   H1721     1.0  0.73019  0.03092  0.42988  1.0000
  C   C1086     1.0  0.83246  0.13629  0.25873  1.0000
  H   H1722     1.0  0.76117  0.08212  0.30905  1.0000
  H   H1723     1.0  0.74918  0.16393  0.44511  1.0000
  H   H1724     1.0  0.95838  0.22511  0.46509  1.0000
  S   S433      1.0  0.82205  0.14670  0.48196  1.0000
  H   H1725     1.0  0.78282  0.20119  0.46771  1.0000
  C   C1087     1.0  0.95345  0.18135  0.32672  1.0000
  H   H1726     1.0  0.95089  0.25845  0.42419  1.0000
  H   H1727     1.0  0.95443  0.21010  0.34764  1.0000
  H   H1728     1.0  0.99369  0.30032  0.46639  1.0000
  H   H1729     1.0  0.92657  0.39634  0.37809  1.0000
  S   S434      1.0  0.97971  0.18505  0.27733  1.0000
  H   H1730     1.0  0.98683  0.43412  0.37166  1.0000
  H   H1731     1.0  0.71064  0.04568  0.47100  1.0000
  H   H1732     1.0  0.94311  0.37540  0.38097  1.0000
  N   N108      1.0  0.82787  0.01479  0.25615  1.0000
  H   H1733     1.0  0.98211  0.34695  0.45701  1.0000
  H   H1734     1.0  0.80226  0.17298  0.43336  1.0000
  H   H1735     1.0  0.97684  0.32873  0.47833  1.0000
  H   H1736     1.0  0.85226  0.04735  0.25585  1.0000
  C   C1088     1.0  0.83955  0.15829  0.49465  1.0000
  S   S435      1.0  0.83350  0.09031  0.25922  1.0000
  H   H1737     1.0  0.98260  0.21057  0.35053  1.0000
  H   H1738     1.0  0.98760  0.22556  0.45604  1.0000
  H   H1739     1.0  0.66769  0.08283  0.44132  1.0000
  H   H1740     1.0  0.73633  0.00918  0.44542  1.0000
  C   C1089     1.0  0.87023  0.19074  0.49730  1.0000
  Fe  Fe221     1.0  0.99850  0.32483  0.36497  1.0000
  C   C1090     1.0  0.67643  0.49906  0.25329  1.0000
  C   C1091     1.0  0.98968  0.24441  0.42323  1.0000
  C   C1092     1.0  0.99123  0.18114  0.33059  1.0000
  H   H1741     1.0  0.99000  0.21505  0.30415  1.0000
  S   S436      1.0  0.99716  0.25357  0.48046  1.0000
  H   H1742     1.0  0.95896  0.17789  0.24979  1.0000
  S   S437      1.0  0.99899  0.35039  0.40472  1.0000
  H   H1743     1.0  0.99838  0.26968  0.44532  1.0000
  C   C1093     1.0  0.69262  0.50784  0.35226  1.0000
  Fe  Fe222     1.0  0.76134  0.06752  0.51835  1.0000
  C   C1094     1.0  0.97975  0.45439  0.57772  1.0000
  S   S438      1.0  0.75091  0.04619  0.54592  1.0000
  C   C1095     1.0  0.83739  0.14572  0.51144  1.0000
  Fe  Fe223     1.0  0.92910  0.27937  0.50297  1.0000
  H   H1744     1.0  0.96962  0.47958  0.60066  1.0000
  C   C1096     1.0  0.68168  0.02794  0.55105  1.0000
  H   H1745     1.0  0.71187  0.05542  0.53418  1.0000
  H   H1746     1.0  0.97355  0.34564  0.54723  1.0000
  C   C1097     1.0  0.71284  0.01084  0.56678  1.0000
  H   H1747     1.0  0.99923  0.47892  0.59700  1.0000
  Fe  Fe224     1.0  0.91345  0.22565  0.51753  1.0000
  S   S439      1.0  0.90921  0.25579  0.52927  1.0000
  S   S440      1.0  0.88558  0.18980  0.52677  1.0000
  H   H1748     1.0  0.95105  0.48204  0.57679  1.0000
  Fe  Fe225     1.0  0.94441  0.25774  0.53371  1.0000
  S   S441      1.0  0.95403  0.25832  0.55869  1.0000
  C   C1098     1.0  0.70557  0.03960  0.54488  1.0000
  S   S442      1.0  0.94739  0.22590  0.52391  1.0000
  H   H1749     1.0  0.96816  0.48647  0.55528  1.0000
  H   H1750     1.0  0.89624  0.15695  0.59653  1.0000
  N   N109      1.0  0.90470  0.18463  0.57314  1.0000
  C   C1099     1.0  0.90581  0.16813  0.56208  1.0000
  S   S443      1.0  0.99583  0.35839  0.57234  1.0000
  H   H1751     1.0  0.87730  0.19605  0.56449  1.0000
  H   H1752     1.0  0.93612  0.18195  0.58005  1.0000
  H   H1753     1.0  0.66966  0.03477  0.54500  1.0000
  C   C1100     1.0  0.89512  0.20353  0.56563  1.0000
  H   H1754     1.0  0.84977  0.14571  0.53404  1.0000
  H   H1755     1.0  0.88835  0.15998  0.56056  1.0000
  H   H1756     1.0  0.88828  0.18341  0.59904  1.0000
  C   C1101     1.0  0.97759  0.28717  0.57530  1.0000
  C   C1102     1.0  0.96684  0.28625  0.56190  1.0000
  C   C1103     1.0  0.96589  0.30749  0.55160  1.0000
  H   H1757     1.0  0.87159  0.16295  0.58993  1.0000
  C   C1104     1.0  0.72115  0.03121  0.55288  1.0000
  H   H1758     1.0  0.99279  0.44680  0.58266  1.0000
  H   H1759     1.0  0.95752  0.30701  0.54133  1.0000
  C   C1105     1.0  0.86808  0.17815  0.51408  1.0000
  H   H1760     1.0  0.99268  0.50628  0.58931  1.0000
  H   H1761     1.0  0.90596  0.21341  0.55250  1.0000
  H   H1762     1.0  0.89458  0.21681  0.57328  1.0000
  H   H1763     1.0  0.82480  0.12835  0.51699  1.0000
  C   C1106     1.0  0.85159  0.15561  0.52108  1.0000
  C   C1107     1.0  0.88953  0.17136  0.59045  1.0000
  H   H1764     1.0  0.91714  0.17763  0.54890  1.0000
  H   H1765     1.0  0.94021  0.20572  0.56147  1.0000
  H   H1766     1.0  0.92821  0.20859  0.58226  1.0000
  C   C1108     1.0  0.92830  0.19558  0.57434  1.0000
  H   H1767     1.0  0.91279  0.15347  0.56734  1.0000
  N   N110      1.0  0.68230  0.02349  0.61585  1.0000
  H   H1768     1.0  0.70913  0.04046  0.62606  1.0000
  H   H1769     1.0  0.97838  0.27080  0.58334  1.0000
  H   H1770     1.0  0.67161  0.01043  0.64340  1.0000
  C   C1109     1.0  0.70069  0.04458  0.61557  1.0000
  C   C1110     1.0  0.97495  0.32937  0.55500  1.0000
  S   S444      1.0  0.96372  0.28414  0.50848  1.0000
  H   H1771     1.0  0.71451  0.05081  0.60318  1.0000
  C   C1111     1.0  0.98705  0.30916  0.57852  1.0000
  S   S445      1.0  0.74258  0.05350  0.50044  1.0000
  H   H1772     1.0  0.99497  0.30965  0.58902  1.0000
  H   H1773     1.0  0.69356  0.05974  0.61715  1.0000
  C   C1112     1.0  0.98543  0.33032  0.56851  1.0000
  C   C1113     1.0  0.96878  0.49007  0.56788  1.0000
  H   H1774     1.0  0.97877  0.44914  0.56568  1.0000
  C   C1114     1.0  0.67167  0.02967  0.60169  1.0000
  H   H1775     1.0  0.96261  0.44559  0.58730  1.0000
  H   H1776     1.0  0.68485  0.03609  0.58899  1.0000
  N   N111      1.0  0.98618  0.48061  0.57476  1.0000
  C   C1115     1.0  0.98694  0.48663  0.59115  1.0000
  S   S446      1.0  0.75944  0.10492  0.50925  1.0000
  H   H1777     1.0  0.77407  0.01740  0.50317  1.0000
  S   S447      1.0  0.79717  0.07397  0.50133  1.0000
  H   H1778     1.0  0.70692  0.00936  0.60173  1.0000
  H   H1779     1.0  0.68591  0.50758  0.57612  1.0000
  Fe  Fe226     1.0  0.96391  0.25224  0.49838  1.0000
  H   H1780     1.0  0.99938  0.25826  0.51412  1.0000
  H   H1781     1.0  0.96921  0.11742  0.78441  1.0000
  Fe  Fe227     1.0  0.80945  0.02368  0.80326  1.0000
  C   C1116     1.0  0.93983  0.14533  0.78589  1.0000
  S   S448      1.0  0.89834  0.05188  0.79745  1.0000
  S   S449      1.0  0.78210  0.04292  0.80361  1.0000
  S   S450      1.0  0.98242  0.17252  0.84999  1.0000
  H   H1782     1.0  0.86546  0.02494  0.85707  1.0000
  C   C1117     1.0  0.90742  0.07196  0.80947  1.0000
  C   C1118     1.0  0.89176  0.08043  0.81966  1.0000
  C   C1119     1.0  0.89987  0.09689  0.82861  1.0000
  C   C1120     1.0  0.92368  0.10515  0.82741  1.0000
  C   C1121     1.0  0.93926  0.09619  0.81760  1.0000
  C   C1122     1.0  0.93116  0.07976  0.80862  1.0000
  H   H1783     1.0  0.87345  0.07464  0.82042  1.0000
  H   H1784     1.0  0.88766  0.10361  0.83627  1.0000
  H   H1785     1.0  0.94337  0.07305  0.80095  1.0000
  C   C1123     1.0  0.97696  0.13707  0.77973  1.0000
  S   S451      1.0  0.84035  0.03204  0.78044  1.0000
  Fe  Fe228     1.0  0.86101  0.03066  0.80015  1.0000
  C   C1124     1.0  0.75441  0.02804  0.81775  1.0000
  C   C1125     1.0  0.74163  0.04156  0.82527  1.0000
  H   H1786     1.0  0.92966  0.12619  0.79081  1.0000
  C   C1126     1.0  0.79491  0.03835  0.95653  1.0000
  H   H1787     1.0  0.74914  0.06062  0.82266  1.0000
  S   S452      1.0  0.83062  0.02570  0.82232  1.0000
  C   C1127     1.0  0.86867  0.01580  0.84674  1.0000
  H   H1788     1.0  0.78338  0.04974  0.95930  1.0000
  C   C1128     1.0  0.71928  0.03059  0.83624  1.0000
  Fe  Fe229     1.0  0.99549  0.20433  0.82697  1.0000
  H   H1789     1.0  0.80532  0.03794  0.96611  1.0000
  H   H1790     1.0  0.95754  0.10197  0.81693  1.0000
  S   S453      1.0  0.97987  0.18429  0.81019  1.0000
  H   H1791     1.0  0.70971  0.04127  0.84209  1.0000
  H   H1792     1.0  0.87435  0.02957  0.83423  1.0000
  N   N112      1.0  0.96124  0.14886  0.77235  1.0000
  H   H1793     1.0  0.99385  0.14057  0.77011  1.0000
  H   H1794     1.0  0.94614  0.11886  0.76368  1.0000
  Fe  Fe230     1.0  0.96990  0.15152  0.83208  1.0000
  H   H1795     1.0  0.99058  0.47567  0.87672  1.0000
  S   S454      1.0  0.99490  0.24253  0.82301  1.0000
  H   H1796     1.0  0.99593  0.46632  0.84105  1.0000
  H   H1797     1.0  0.90622  0.02941  0.85783  1.0000
  H   H1798     1.0  0.94379  0.15148  0.79709  1.0000
  H   H1799     1.0  0.98103  0.14367  0.79073  1.0000
  C   C1129     1.0  0.95513  0.13836  0.75861  1.0000
  H   H1800     1.0  0.92821  0.15522  0.78105  1.0000
  S   S455      1.0  0.93313  0.12677  0.83822  1.0000
  H   H1801     1.0  0.75565  0.02623  0.94678  1.0000
  H   H1802     1.0  0.91501  0.03360  0.83507  1.0000
  C   C1130     1.0  0.90828  0.01981  0.84766  1.0000
  H   H1803     1.0  0.80725  0.04726  0.94362  1.0000
  H   H1804     1.0  0.96191  0.18420  0.75928  1.0000
  H   H1805     1.0  0.98911  0.44405  0.86109  1.0000
  H   H1806     1.0  0.99727  0.49785  0.85665  1.0000
  C   C1131     1.0  0.97307  0.17466  0.76514  1.0000
  H   H1807     1.0  0.97782  0.18308  0.77521  1.0000
  H   H1808     1.0  0.98955  0.17796  0.75512  1.0000
  H   H1809     1.0  0.92184  0.01064  0.84913  1.0000
  H   H1810     1.0  0.94327  0.14682  0.75275  1.0000
  H   H1811     1.0  0.77935  0.02319  0.93123  1.0000
  H   H1812     1.0  0.97090  0.14064  0.74822  1.0000
  C   C1132     1.0  0.76781  0.01532  0.94453  1.0000
  N   N113      1.0  0.78137  0.01404  0.95733  1.0000
  H   H1813     1.0  0.75230  0.01254  0.97766  1.0000
  H   H1814     1.0  0.79695  0.00847  0.88533  1.0000
  H   H1815     1.0  0.77680  0.99421  0.02668  1.0000
  C   C1133     1.0  0.73898  0.63101  0.21446  1.0000
  H   H1816     1.0  0.66974  0.91467  0.14105  1.0000
  S   S456      1.0  0.70985  0.70418  0.19281  1.0000
  H   H1817     1.0  0.69036  0.93541  0.12235  1.0000
  C   C1134     1.0  0.74292  0.67746  0.01000  1.0000
  H   H1818     1.0  0.68328  0.96917  0.15566  1.0000
  H   H1819     1.0  0.89545  0.55191  0.23028  1.0000
  C   C1135     1.0  0.78713  0.55375  0.09328  1.0000
  Fe  Fe231     1.0  0.71939  0.69510  0.16780  1.0000
  S   S457      1.0  0.75673  0.69985  0.15521  1.0000
  S   S458      1.0  0.79024  0.68621  0.00596  1.0000
  C   C1136     1.0  0.78096  0.98405  0.01768  1.0000
  H   H1820     1.0  0.78436  0.74834  0.14740  1.0000
  Fe  Fe232     1.0  0.75649  0.64463  0.06971  1.0000
  S   S459      1.0  0.75579  0.67945  0.05374  1.0000
  S   S460      1.0  0.72273  0.61591  0.08227  1.0000
  Fe  Fe233     1.0  0.80894  0.65940  0.06208  1.0000
  S   S461      1.0  0.81308  0.69572  0.04544  1.0000
  S   S462      1.0  0.83730  0.64303  0.06716  1.0000
  Fe  Fe234     1.0  0.78261  0.69561  0.06588  1.0000
  S   S463      1.0  0.77721  0.72728  0.07483  1.0000
  Fe  Fe235     1.0  0.78590  0.67669  0.03454  1.0000
  H   H1821     1.0  0.74893  0.56751  0.09262  1.0000
  S   S464      1.0  0.78070  0.66087  0.08365  1.0000
  S   S465      1.0  0.78431  0.64025  0.04937  1.0000
  Fe  Fe236     1.0  0.96334  0.70124  0.06740  1.0000
  C   C1137     1.0  0.76941  0.99407  0.21222  1.0000
  S   S466      1.0  0.92975  0.71128  0.07308  1.0000
  H   H1822     1.0  0.68692  0.96751  0.24270  1.0000
  C   C1138     1.0  0.98851  0.54418  0.21351  1.0000
  H   H1823     1.0  0.78728  0.77750  0.13465  1.0000
  S   S467      1.0  0.69558  0.71237  0.15621  1.0000
  S   S468      1.0  0.96605  0.66981  0.05724  1.0000
  Fe  Fe237     1.0  0.73405  0.87399  0.19283  1.0000
  S   S469      1.0  0.75842  0.90720  0.17343  1.0000
  S   S470      1.0  0.74244  0.83883  0.19953  1.0000
  Fe  Fe238     1.0  0.69593  0.89749  0.20117  1.0000
  S   S471      1.0  0.71671  0.93228  0.18231  1.0000
  H   H1824     1.0  0.68966  0.53592  0.21433  1.0000
  Fe  Fe239     1.0  0.72683  0.91046  0.16477  1.0000
  S   S472      1.0  0.72444  0.92238  0.13785  1.0000
  Fe  Fe240     1.0  0.74636  0.92647  0.19266  1.0000
  S   S473      1.0  0.76954  0.96086  0.19407  1.0000
  S   S474      1.0  0.70333  0.87608  0.18261  1.0000
  S   S475      1.0  0.72484  0.89298  0.21307  1.0000
  H   H1825     1.0  0.80335  0.77388  0.15044  1.0000
  H   H1826     1.0  0.68283  0.63596  0.13199  1.0000
  C   C1139     1.0  0.75129  0.93968  0.12385  1.0000
  C   C1140     1.0  0.75221  0.95889  0.11054  1.0000
  C   C1141     1.0  0.77370  0.97365  0.09981  1.0000
  C   C1142     1.0  0.79425  0.96891  0.10207  1.0000
  C   C1143     1.0  0.79329  0.94939  0.11514  1.0000
  C   C1144     1.0  0.77183  0.93494  0.12615  1.0000
  H   H1827     1.0  0.73636  0.96270  0.10876  1.0000
  H   H1828     1.0  0.96546  0.58861  0.23547  1.0000
  H   H1829     1.0  0.80917  0.94560  0.11689  1.0000
  H   H1830     1.0  0.77117  0.91986  0.13621  1.0000
  C   C1145     1.0  0.76344  0.96969  0.21314  1.0000
  N   N114      1.0  0.66971  0.95123  0.13830  1.0000
  H   H1831     1.0  0.80415  0.60266  0.05921  1.0000
  H   H1832     1.0  0.67204  0.79032  0.21403  1.0000
  H   H1833     1.0  0.82197  0.58753  0.06875  1.0000
  C   C1146     1.0  0.72349  0.67840  0.00367  1.0000
  H   H1834     1.0  0.70617  0.66994  0.01210  1.0000
  C   C1147     1.0  0.81690  0.00439  0.24403  1.0000
  H   H1835     1.0  0.98080  0.59556  0.12522  1.0000
  H   H1836     1.0  0.75924  0.56716  0.18276  1.0000
  C   C1148     1.0  0.98708  0.54220  0.23090  1.0000
  H   H1837     1.0  0.78679  0.80162  0.16448  1.0000
  H   H1838     1.0  0.70438  0.72825  0.99786  1.0000
  C   C1149     1.0  0.86300  0.66277  0.06804  1.0000
  C   C1150     1.0  0.88329  0.65555  0.06634  1.0000
  C   C1151     1.0  0.90394  0.67065  0.06731  1.0000
  C   C1152     1.0  0.90441  0.69286  0.07041  1.0000
  C   C1153     1.0  0.88402  0.70001  0.07225  1.0000
  C   C1154     1.0  0.86342  0.68513  0.07089  1.0000
  H   H1839     1.0  0.88315  0.63838  0.06401  1.0000
  H   H1840     1.0  0.91940  0.66494  0.06575  1.0000
  H   H1841     1.0  0.88417  0.71717  0.07466  1.0000
  H   H1842     1.0  0.84783  0.69086  0.07225  1.0000
  N   N115      1.0  0.78487  0.00450  0.14442  1.0000
  H   H1843     1.0  0.79702  0.97778  0.15860  1.0000
  S   S476      1.0  0.98497  0.56592  0.18203  1.0000
  H   H1844     1.0  0.75943  0.56174  0.07240  1.0000
  H   H1845     1.0  0.72044  0.68933  0.08519  1.0000
  H   H1846     1.0  0.77129  0.80589  0.14839  1.0000
  H   H1847     1.0  0.79765  0.94081  0.02993  1.0000
  C   C1155     1.0  0.97255  0.57770  0.21217  1.0000
  C   C1156     1.0  0.80421  0.58507  0.06688  1.0000
  H   H1848     1.0  0.96720  0.59165  0.20486  1.0000
  C   C1157     1.0  0.76344  0.70876  0.13279  1.0000
  C   C1158     1.0  0.78041  0.70122  0.12305  1.0000
  C   C1159     1.0  0.78525  0.70744  0.10511  1.0000
  C   C1160     1.0  0.77353  0.72171  0.09693  1.0000
  C   C1161     1.0  0.75738  0.73019  0.10662  1.0000
  C   C1162     1.0  0.75205  0.72338  0.12454  1.0000
  H   H1849     1.0  0.78947  0.69014  0.12938  1.0000
  H   H1850     1.0  0.79812  0.70131  0.09760  1.0000
  H   H1851     1.0  0.74839  0.74131  0.10025  1.0000
  H   H1852     1.0  0.73918  0.72958  0.13185  1.0000
  H   H1853     1.0  0.80829  0.59809  0.09520  1.0000
  C   C1163     1.0  0.72000  0.63997  0.21337  1.0000
  H   H1854     1.0  0.75864  0.97710  0.14034  1.0000
  H   H1855     1.0  0.72075  0.65263  0.20174  1.0000
  H   H1856     1.0  0.75414  0.63661  0.20359  1.0000
  C   C1164     1.0  0.69712  0.77710  0.18583  1.0000
  C   C1165     1.0  0.70957  0.77239  0.19788  1.0000
  C   C1166     1.0  0.72386  0.79144  0.20184  1.0000
  C   C1167     1.0  0.72594  0.81514  0.19360  1.0000
  C   C1168     1.0  0.71427  0.81966  0.18104  1.0000
  C   C1169     1.0  0.69965  0.80074  0.17736  1.0000
  H   H1857     1.0  0.70749  0.75415  0.20460  1.0000
  H   H1858     1.0  0.73291  0.78781  0.21156  1.0000
  H   H1859     1.0  0.71658  0.83775  0.17404  1.0000
  Fe  Fe241     1.0  0.98531  0.66207  0.07692  1.0000
  C   C1170     1.0  0.70971  0.56199  0.13374  1.0000
  C   C1171     1.0  0.72982  0.58149  0.12790  1.0000
  C   C1172     1.0  0.73402  0.59848  0.11218  1.0000
  C   C1173     1.0  0.71821  0.59580  0.10222  1.0000
  C   C1174     1.0  0.69823  0.57636  0.10809  1.0000
  C   C1175     1.0  0.69407  0.55951  0.12372  1.0000
  H   H1860     1.0  0.74199  0.58357  0.13562  1.0000
  H   H1861     1.0  0.74940  0.61358  0.10779  1.0000
  H   H1862     1.0  0.68601  0.57411  0.10040  1.0000
  H   H1863     1.0  0.70219  0.52130  0.19951  1.0000
  H   H1864     1.0  0.76123  0.59171  0.07359  1.0000
  H   H1865     1.0  0.72234  0.53817  0.22739  1.0000
  C   C1176     1.0  0.68574  0.95500  0.14921  1.0000
  C   C1177     1.0  0.75647  0.98529  0.24324  1.0000
  H   H1866     1.0  0.74806  0.99925  0.14862  1.0000
  C   C1178     1.0  0.68469  0.64244  0.11802  1.0000
  H   H1867     1.0  0.71343  0.57541  0.21611  1.0000
  N   N116      1.0  0.70376  0.66483  0.11013  1.0000
  H   H1868     1.0  0.68095  0.82295  0.23699  1.0000
  H   H1869     1.0  0.81908  0.92672  0.03494  1.0000
  H   H1870     1.0  0.80013  0.97827  0.13649  1.0000
  H   H1871     1.0  0.69025  0.80444  0.16788  1.0000
  C   C1179     1.0  0.76370  0.96462  0.01680  1.0000
  H   H1872     1.0  0.74053  0.66807  0.02319  1.0000
  N   N117      1.0  0.91310  0.64189  0.11706  1.0000
  C   C1180     1.0  0.93161  0.64080  0.12587  1.0000
  C   C1181     1.0  0.91123  0.66652  0.11302  1.0000
  C   C1182     1.0  0.89073  0.62553  0.12832  1.0000
  C   C1183     1.0  0.91884  0.63468  0.10100  1.0000
  H   H1873     1.0  0.93377  0.62253  0.12886  1.0000
  H   H1874     1.0  0.92794  0.64610  0.13806  1.0000
  H   H1875     1.0  0.94873  0.65288  0.11765  1.0000
  H   H1876     1.0  0.90656  0.67255  0.12479  1.0000
  H   H1877     1.0  0.92792  0.67939  0.10472  1.0000
  H   H1878     1.0  0.89786  0.66819  0.10593  1.0000
  H   H1879     1.0  0.87641  0.62613  0.12204  1.0000
  H   H1880     1.0  0.88592  0.63035  0.14062  1.0000
  H   H1881     1.0  0.89152  0.60675  0.13145  1.0000
  H   H1882     1.0  0.90481  0.63422  0.09438  1.0000
  H   H1883     1.0  0.92172  0.61671  0.10339  1.0000
  H   H1884     1.0  0.93507  0.64733  0.09191  1.0000
  H   H1885     1.0  0.68775  0.62801  0.11198  1.0000
  H   H1886     1.0  0.71791  0.58685  0.19335  1.0000
  S   S477      1.0  0.82125  0.98728  0.08885  1.0000
  C   C1184     1.0  0.67511  0.97316  0.12428  1.0000
  C   C1185     1.0  0.76846  0.95216  0.00447  1.0000
  Fe  Fe242     1.0  0.68371  0.71853  0.18204  1.0000
  C   C1186     1.0  0.69615  0.97274  0.22880  1.0000
  S   S478      1.0  0.74617  0.92866  0.00318  1.0000
  H   H1887     1.0  0.74896  0.93414  0.22999  1.0000
  H   H1888     1.0  0.73505  0.52309  0.21312  1.0000
  H   H1889     1.0  0.68302  0.93843  0.15938  1.0000
  H   H1890     1.0  0.69322  0.97789  0.11605  1.0000
  H   H1891     1.0  0.67450  0.59888  0.21187  1.0000
  H   H1892     1.0  0.74224  0.58838  0.20232  1.0000
  C   C1187     1.0  0.70849  0.00312  0.20189  1.0000
  N   N118      1.0  0.80482  0.94284  0.05406  1.0000
  C   C1188     1.0  0.81150  0.92836  0.06794  1.0000
  C   C1189     1.0  0.78239  0.94689  0.06123  1.0000
  C   C1190     1.0  0.80251  0.93018  0.04063  1.0000
  C   C1191     1.0  0.82290  0.96600  0.04651  1.0000
  H   H1893     1.0  0.82842  0.92503  0.06303  1.0000
  H   H1894     1.0  0.79824  0.91075  0.07401  1.0000
  H   H1895     1.0  0.81335  0.93758  0.07825  1.0000
  H   H1896     1.0  0.77668  0.95760  0.05113  1.0000
  H   H1897     1.0  0.76839  0.92978  0.06725  1.0000
  H   H1898     1.0  0.78365  0.95671  0.07120  1.0000
  H   H1899     1.0  0.71427  0.97194  0.22780  1.0000
  H   H1900     1.0  0.78882  0.91272  0.04579  1.0000
  C   C1192     1.0  0.70592  0.74714  0.99810  1.0000
  H   H1901     1.0  0.83996  0.96373  0.04058  1.0000
  H   H1902     1.0  0.82546  0.97585  0.05633  1.0000
  H   H1903     1.0  0.81818  0.97768  0.03633  1.0000
  S   S479      1.0  0.98056  0.69205  0.08832  1.0000
  N   N119      1.0  0.76694  0.76921  0.16083  1.0000
  C   C1193     1.0  0.74487  0.76042  0.15659  1.0000
  C   C1194     1.0  0.76599  0.75463  0.17788  1.0000
  C   C1195     1.0  0.77045  0.79443  0.16109  1.0000
  C   C1196     1.0  0.78636  0.76722  0.14776  1.0000
  H   H1904     1.0  0.72984  0.76196  0.16597  1.0000
  H   H1905     1.0  0.74147  0.74128  0.15684  1.0000
  H   H1906     1.0  0.74503  0.77044  0.14362  1.0000
  H   H1907     1.0  0.76349  0.73548  0.17802  1.0000
  H   H1908     1.0  0.78228  0.76078  0.18162  1.0000
  H   H1909     1.0  0.75131  0.75542  0.18802  1.0000
  H   H1910     1.0  0.75595  0.79654  0.17067  1.0000
  Fe  Fe243     1.0  0.68265  0.66884  0.20047  1.0000
  S   S480      1.0  0.97448  0.62678  0.09653  1.0000
  H   H1911     1.0  0.80439  0.55513  0.09589  1.0000
  H   H1912     1.0  0.78398  0.53993  0.08616  1.0000
  H   H1913     1.0  0.74641  0.95966  0.02534  1.0000
  H   H1914     1.0  0.80160  0.57224  0.05895  1.0000
  C   C1197     1.0  0.76557  0.00182  0.22716  1.0000
  H   H1915     1.0  0.82997  0.00215  0.23342  1.0000
  H   H1916     1.0  0.71709  0.75147  0.00669  1.0000
  S   S481      1.0  0.70435  0.54071  0.15341  1.0000
  H   H1917     1.0  0.70054  0.99028  0.19525  1.0000
  H   H1918     1.0  0.75600  0.97691  0.16236  1.0000
  C   C1198     1.0  0.97152  0.57597  0.22951  1.0000
  C   C1199     1.0  0.70586  0.67269  0.09157  1.0000
  H   H1919     1.0  0.68966  0.67627  0.08921  1.0000
  C   C1200     1.0  0.73405  0.54102  0.21446  1.0000
  H   H1920     1.0  0.69498  0.54796  0.19150  1.0000
  C   C1201     1.0  0.69880  0.68352  0.11833  1.0000
  H   H1921     1.0  0.67896  0.54431  0.12778  1.0000
  H   H1922     1.0  0.99497  0.53177  0.20741  1.0000
  H   H1923     1.0  0.69358  0.83081  0.21431  1.0000
  C   C1202     1.0  0.98141  0.56203  0.20409  1.0000
  H   H1924     1.0  0.67374  0.98871  0.12940  1.0000
  H   H1925     1.0  0.77371  0.54713  0.10587  1.0000
  C   C1203     1.0  0.80108  0.98977  0.14546  1.0000
  H   H1926     1.0  0.75159  0.55151  0.21445  1.0000
  C   C1204     1.0  0.80325  0.99071  0.00653  1.0000
  C   C1205     1.0  0.67824  0.83041  0.22434  1.0000
  H   H1927     1.0  0.70933  0.65887  0.08501  1.0000
  C   C1206     1.0  0.70200  0.53909  0.20160  1.0000
  C   C1207     1.0  0.69970  0.61659  0.24245  1.0000
  N   N120      1.0  0.72549  0.55340  0.20078  1.0000
  C   C1208     1.0  0.71879  0.60786  0.24359  1.0000
  H   H1928     1.0  0.81939  0.00101  0.14215  1.0000
  S   S482      1.0  0.67707  0.75417  0.18180  1.0000
  C   C1209     1.0  0.76298  0.57434  0.08037  1.0000
  H   H1929     1.0  0.70420  0.96064  0.14153  1.0000
  H   H1930     1.0  0.78905  0.61224  0.08660  1.0000
  C   C1210     1.0  0.72463  0.57703  0.20321  1.0000
  C   C1211     1.0  0.67252  0.93127  0.13087  1.0000
  C   C1212     1.0  0.79048  0.59473  0.09337  1.0000
  H   H1931     1.0  0.77787  0.58882  0.10626  1.0000
  C   C1213     1.0  0.97883  0.55822  0.23889  1.0000
  C   C1214     1.0  0.74131  0.55649  0.18384  1.0000
  H   H1932     1.0  0.74218  0.53894  0.18158  1.0000
  C   C1215     1.0  0.67137  0.99713  0.22170  1.0000
  C   C1216     1.0  0.99800  0.61590  0.09907  1.0000
  H   H1933     1.0  0.73526  0.56572  0.17325  1.0000
  H   H1934     1.0  0.67827  0.84923  0.22349  1.0000
  S   S483      1.0  0.69434  0.65848  0.17627  1.0000
  H   H1935     1.0  0.77432  0.98871  0.08982  1.0000
  H   H1936     1.0  0.99265  0.52835  0.23813  1.0000
  C   C1217     1.0  0.90496  0.54073  0.23676  1.0000
  H   H1937     1.0  0.72990  0.64661  0.10669  1.0000
  H   H1938     1.0  0.68775  0.95899  0.22299  1.0000
  C   C1218     1.0  0.70022  0.63256  0.22731  1.0000
  N   N121      1.0  0.78619  0.57698  0.08346  1.0000
  Fe  Fe244     1.0  0.66939  0.67644  0.16707  1.0000
  S   S484      1.0  0.99671  0.72584  0.04910  1.0000
  C   C1219     1.0  0.73829  0.61467  0.22950  1.0000
  C   C1220     1.0  0.76534  0.68817  0.99910  1.0000
  N   N122      1.0  0.69570  0.99683  0.22021  1.0000
  H   H1939     1.0  0.68826  0.74804  0.00403  1.0000
  S   S485      1.0  0.76123  0.60182  0.23008  1.0000
  C   C1221     1.0  0.75350  0.95302  0.22916  1.0000
  H   H1940     1.0  0.69769  0.67842  0.13227  1.0000
  C   C1222     1.0  0.76083  0.98877  0.14912  1.0000
  H   H1941     1.0  0.68194  0.68662  0.11715  1.0000
  S   S486      1.0  0.67570  0.64232  0.22573  1.0000
  H   H1942     1.0  0.72507  0.65521  0.12646  1.0000
  H   H1943     1.0  0.74057  0.67717  0.10657  1.0000
  H   H1944     1.0  0.67509  0.93719  0.19593  1.0000
  C   C1223     1.0  0.72578  0.66074  0.11261  1.0000
  C   C1224     1.0  0.99647  0.60066  0.11481  1.0000
  H   H1945     1.0  0.71252  0.70079  0.11240  1.0000
  H   H1946     1.0  0.92385  0.54879  0.23026  1.0000
  H   H1947     1.0  0.72694  0.00317  0.20034  1.0000
  H   H1948     1.0  0.89985  0.52277  0.23447  1.0000
  C   C1225     1.0  0.75030  0.96083  0.24421  1.0000
  H   H1949     1.0  0.66879  0.82615  0.19456  1.0000
  H   H1950     1.0  0.77706  0.00711  0.19992  1.0000
  H   H1951     1.0  0.74463  0.00717  0.11845  1.0000
  H   H1952     1.0  0.66769  0.64498  0.11669  1.0000
  Fe  Fe245     1.0  0.69407  0.90422  0.47399  1.0000
  H   H1953     1.0  0.69313  0.95870  0.41950  1.0000
  S   S487      1.0  0.69730  0.92279  0.44678  1.0000
  H   H1954     1.0  0.97807  0.62826  0.33688  1.0000
  S   S488      1.0  0.66963  0.86775  0.48712  1.0000
  H   H1955     1.0  0.98871  0.58214  0.42713  1.0000
  Fe  Fe246     1.0  0.76779  0.53862  0.27929  1.0000
  C   C1226     1.0  0.71517  0.53220  0.45039  1.0000
  H   H1956     1.0  0.75884  0.90141  0.42431  1.0000
  Fe  Fe247     1.0  0.68030  0.72095  0.46367  1.0000
  Fe  Fe248     1.0  0.72004  0.54580  0.28862  1.0000
  Fe  Fe249     1.0  0.92458  0.60086  0.28394  1.0000
  S   S489      1.0  0.93293  0.56756  0.29570  1.0000
  S   S490      1.0  0.89201  0.60691  0.27743  1.0000
  Fe  Fe250     1.0  0.97439  0.63195  0.27647  1.0000
  Fe  Fe251     1.0  0.96515  0.58120  0.27364  1.0000
  Fe  Fe252     1.0  0.95447  0.59040  0.30853  1.0000
  H   H1957     1.0  0.92598  0.57206  0.25176  1.0000
  S   S491      1.0  0.94309  0.62262  0.29877  1.0000
  S   S492      1.0  0.75588  0.57142  0.27938  1.0000
  H   H1958     1.0  0.68564  0.62938  0.44896  1.0000
  C   C1227     1.0  0.96301  0.57169  0.47592  1.0000
  H   H1959     1.0  0.68667  0.51602  0.44133  1.0000
  H   H1960     1.0  0.74897  0.86718  0.41176  1.0000
  C   C1228     1.0  0.90339  0.53204  0.46859  1.0000
  H   H1961     1.0  0.77268  0.52462  0.32911  1.0000
  H   H1962     1.0  0.72500  0.58163  0.43752  1.0000
  H   H1963     1.0  0.85495  0.62954  0.48688  1.0000
  C   C1229     1.0  0.84083  0.99920  0.26348  1.0000
  H   H1964     1.0  0.68234  0.56557  0.45133  1.0000
  C   C1230     1.0  0.73045  0.86385  0.41866  1.0000
  H   H1965     1.0  0.86224  0.53802  0.46607  1.0000
  H   H1966     1.0  0.91436  0.57319  0.43056  1.0000
  S   S493      1.0  0.75354  0.99491  0.26215  1.0000
  H   H1967     1.0  0.90726  0.51832  0.43948  1.0000
  H   H1968     1.0  0.73095  0.83795  0.44904  1.0000
  S   S494      1.0  0.67086  0.75487  0.45512  1.0000
  S   S495      1.0  0.79521  0.52968  0.29194  1.0000
  C   C1231     1.0  0.98407  0.59852  0.44800  1.0000
  C   C1232     1.0  0.69969  0.62621  0.43960  1.0000
  H   H1969     1.0  0.74319  0.94790  0.25661  1.0000
  H   H1970     1.0  0.79718  0.99912  0.27739  1.0000
  S   S496      1.0  0.75113  0.55468  0.46113  1.0000
  H   H1971     1.0  0.71592  0.64047  0.43786  1.0000
  H   H1972     1.0  0.90363  0.56298  0.27146  1.0000
  S   S497      1.0  0.74149  0.67860  0.44786  1.0000
  S   S498      1.0  0.96839  0.53169  0.44239  1.0000
  S   S499      1.0  0.69339  0.55329  0.30833  1.0000
  S   S500      1.0  0.71527  0.54762  0.26227  1.0000
  C   C1233     1.0  0.72228  0.53792  0.46442  1.0000
  C   C1234     1.0  0.67541  0.51513  0.46796  1.0000
  C   C1235     1.0  0.90712  0.56342  0.25764  1.0000
  H   H1973     1.0  0.75384  0.53292  0.31667  1.0000
  H   H1974     1.0  0.77507  0.57496  0.34968  1.0000
  C   C1236     1.0  0.70349  0.86636  0.44349  1.0000
  H   H1975     1.0  0.88829  0.53358  0.43118  1.0000
  H   H1976     1.0  0.74452  0.95100  0.47866  1.0000
  C   C1237     1.0  0.87778  0.55254  0.45763  1.0000
  H   H1977     1.0  0.70136  0.87155  0.45575  1.0000
  Fe  Fe253     1.0  0.68433  0.68936  0.49577  1.0000
  C   C1238     1.0  0.77195  0.63712  0.47481  1.0000
  C   C1239     1.0  0.76375  0.64816  0.46164  1.0000
  C   C1240     1.0  0.75410  0.66678  0.46347  1.0000
  C   C1241     1.0  0.75347  0.67498  0.47820  1.0000
  H   H1978     1.0  0.79177  0.59066  0.31795  1.0000
  H   H1979     1.0  0.77867  0.62229  0.47349  1.0000
  H   H1980     1.0  0.76436  0.64185  0.45024  1.0000
  C   C1242     1.0  0.67992  0.95685  0.43101  1.0000
  H   H1981     1.0  0.73723  0.86207  0.45867  1.0000
  H   H1982     1.0  0.93208  0.53181  0.25729  1.0000
  S   S501      1.0  0.71079  0.71757  0.47400  1.0000
  S   S502      1.0  0.68700  0.65932  0.48398  1.0000
  H   H1983     1.0  0.92396  0.57643  0.44932  1.0000
  S   S503      1.0  0.83956  0.55259  0.49545  1.0000
  H   H1984     1.0  0.75803  0.86110  0.44024  1.0000
  C   C1243     1.0  0.68322  0.77681  0.46447  1.0000
  H   H1985     1.0  0.75076  0.58727  0.33048  1.0000
  H   H1986     1.0  0.87069  0.52611  0.27757  1.0000
  C   C1244     1.0  0.97757  0.57522  0.34360  1.0000
  H   H1987     1.0  0.73000  0.55851  0.34028  1.0000
  H   H1988     1.0  0.66994  0.51572  0.49447  1.0000
  Fe  Fe254     1.0  0.71077  0.68800  0.46116  1.0000
  H   H1989     1.0  0.98360  0.62483  0.31559  1.0000
  C   C1245     1.0  0.68036  0.80915  0.47781  1.0000
  C   C1246     1.0  0.91306  0.52439  0.26335  1.0000
  H   H1990     1.0  0.88815  0.51749  0.47736  1.0000
  S   S504      1.0  0.95288  0.57902  0.33679  1.0000
  H   H1991     1.0  0.95552  0.56870  0.48941  1.0000
  S   S505      1.0  0.79697  0.58402  0.48190  1.0000
  C   C1247     1.0  0.97056  0.55600  0.45120  1.0000
  S   S506      1.0  0.68516  0.91946  0.49619  1.0000
  H   H1992     1.0  0.88847  0.56958  0.49192  1.0000
  H   H1993     1.0  0.72239  0.87387  0.40986  1.0000
  C   C1248     1.0  0.68093  0.58390  0.44677  1.0000
  Fe  Fe255     1.0  0.73063  0.51718  0.26303  1.0000
  H   H1994     1.0  0.71429  0.76596  0.46404  1.0000
  H   H1995     1.0  0.99444  0.56374  0.38063  1.0000
  H   H1996     1.0  0.69530  0.62859  0.42707  1.0000
  C   C1249     1.0  0.75098  0.96544  0.48401  1.0000
  S   S507      1.0  0.71255  0.82784  0.49399  1.0000
  C   C1250     1.0  0.86526  0.58507  0.28177  1.0000
  C   C1251     1.0  0.84876  0.59046  0.27335  1.0000
  C   C1252     1.0  0.82729  0.57353  0.27624  1.0000
  C   C1253     1.0  0.82215  0.55112  0.28768  1.0000
  C   C1254     1.0  0.83854  0.54575  0.29626  1.0000
  C   C1255     1.0  0.86010  0.56267  0.29329  1.0000
  H   H1997     1.0  0.76296  0.99213  0.45966  1.0000
  H   H1998     1.0  0.81472  0.57786  0.26963  1.0000
  H   H1999     1.0  0.87259  0.55850  0.30003  1.0000
  S   S508      1.0  0.73192  0.51284  0.29042  1.0000
  C   C1256     1.0  0.72219  0.59940  0.43328  1.0000
  H   H2000     1.0  0.71850  0.59614  0.25550  1.0000
  C   C1257     1.0  0.75830  0.53305  0.32904  1.0000
  S   S509      1.0  0.98064  0.61879  0.47465  1.0000
  C   C1258     1.0  0.98487  0.63831  0.32308  1.0000
  H   H2001     1.0  0.70631  0.51274  0.32512  1.0000
  H   H2002     1.0  0.67700  0.58538  0.43408  1.0000
  H   H2003     1.0  0.93331  0.55687  0.43742  1.0000
  H   H2004     1.0  0.69479  0.87681  0.43553  1.0000
  C   C1259     1.0  0.70603  0.53153  0.48044  1.0000
  S   S510      1.0  0.72527  0.89576  0.48067  1.0000
  H   H2005     1.0  0.95213  0.53441  0.47684  1.0000
  C   C1260     1.0  0.68005  0.51592  0.36489  1.0000
  C   C1261     1.0  0.91824  0.56339  0.44208  1.0000
  H   H2006     1.0  0.70986  0.58180  0.46729  1.0000
  H   H2007     1.0  0.91796  0.52414  0.46543  1.0000
  C   C1262     1.0  0.76983  0.55675  0.34783  1.0000
  S   S511      1.0  0.68287  0.69392  0.44855  1.0000
  C   C1263     1.0  0.73915  0.85750  0.44614  1.0000
  C   C1264     1.0  0.76133  0.98871  0.47328  1.0000
  S   S512      1.0  0.97781  0.55538  0.26059  1.0000
  C   C1265     1.0  0.68257  0.52019  0.48219  1.0000
  N   N123      1.0  0.72832  0.87118  0.43480  1.0000
  H   H2008     1.0  0.99862  0.68224  0.32702  1.0000
  N   N124      1.0  0.89794  0.54342  0.45287  1.0000
  C   C1266     1.0  0.70455  0.77762  0.46810  1.0000
  S   S513      1.0  0.99502  0.67049  0.26537  1.0000
  N   N125      1.0  0.89997  0.53922  0.25530  1.0000
  C   C1267     1.0  0.74008  0.89697  0.43095  1.0000
  C   C1268     1.0  0.89237  0.52561  0.44319  1.0000
  H   H2009     1.0  0.75417  0.54605  0.35850  1.0000
  H   H2010     1.0  0.90857  0.54513  0.47592  1.0000
  H   H2011     1.0  0.72774  0.53676  0.43805  1.0000
  N   N126      1.0  0.70245  0.60223  0.44557  1.0000
  C   C1269     1.0  0.71355  0.79375  0.47683  1.0000
  H   H2012     1.0  0.73874  0.90310  0.44286  1.0000
  H   H2013     1.0  0.80106  0.56429  0.31782  1.0000
  C   C1270     1.0  0.68868  0.53885  0.32998  1.0000
  H   H2014     1.0  0.71147  0.53569  0.49136  1.0000
  C   C1271     1.0  0.74599  0.56846  0.32973  1.0000
  C   C1272     1.0  0.67200  0.53563  0.36006  1.0000
  H   H2015     1.0  0.71925  0.60113  0.42030  1.0000
  H   H2016     1.0  0.66987  0.56220  0.33890  1.0000
  H   H2017     1.0  0.86849  0.51054  0.26134  1.0000
  C   C1273     1.0  0.69694  0.51928  0.33482  1.0000
  C   C1274     1.0  0.87480  0.52843  0.26346  1.0000
  H   H2018     1.0  0.73000  0.79406  0.47972  1.0000
  H   H2019     1.0  0.84923  0.00655  0.27273  1.0000
  H   H2020     1.0  0.95992  0.56767  0.37037  1.0000
  H   H2021     1.0  0.67074  0.82098  0.48180  1.0000
  H   H2022     1.0  0.74617  0.68951  0.47961  1.0000
  S   S514      1.0  0.98737  0.60160  0.28725  1.0000
  H   H2023     1.0  0.85475  0.99729  0.25328  1.0000
  Fe  Fe256     1.0  0.75205  0.57050  0.25310  1.0000
  H   H2024     1.0  0.97295  0.64901  0.31998  1.0000
  C   C1275     1.0  0.96085  0.55231  0.46873  1.0000
  H   H2025     1.0  0.68548  0.98501  0.46602  1.0000
  H   H2026     1.0  0.72165  0.84447  0.42116  1.0000
  H   H2027     1.0  0.70972  0.99282  0.47483  1.0000
  H   H2028     1.0  0.78348  0.57241  0.30425  1.0000
  H   H2029     1.0  0.74127  0.56851  0.31742  1.0000
  H   H2030     1.0  0.83451  0.52848  0.30527  1.0000
  C   C1276     1.0  0.78625  0.57192  0.31718  1.0000
  H   H2031     1.0  0.73868  0.61305  0.43204  1.0000
  Fe  Fe257     1.0  0.76308  0.55739  0.48479  1.0000
  S   S515      1.0  0.95533  0.61266  0.26085  1.0000
  C   C1277     1.0  0.97619  0.56999  0.36119  1.0000
  C   C1278     1.0  0.99573  0.56776  0.36703  1.0000
  H   H2032     1.0  0.87284  0.56088  0.44615  1.0000
  H   H2033     1.0  0.99326  0.61638  0.43998  1.0000
  H   H2034     1.0  0.68465  0.61115  0.25339  1.0000
  N   N127      1.0  0.76509  0.55756  0.33094  1.0000
  C   C1279     1.0  0.97508  0.59474  0.46565  1.0000
  S   S516      1.0  0.76748  0.54013  0.25197  1.0000
  C   C1280     1.0  0.70703  0.59947  0.46262  1.0000
  H   H2035     1.0  0.78407  0.54850  0.34918  1.0000
  C   C1281     1.0  0.67779  0.94002  0.44620  1.0000
  H   H2036     1.0  0.71187  0.00064  0.43693  1.0000
  C   C1282     1.0  0.70136  0.80931  0.48192  1.0000
  H   H2037     1.0  0.85264  0.60783  0.26448  1.0000
  H   H2038     1.0  0.88147  0.56623  0.46478  1.0000
  C   C1283     1.0  0.77155  0.64541  0.48948  1.0000
  H   H2039     1.0  0.91031  0.52349  0.27725  1.0000
  H   H2040     1.0  0.69393  0.84713  0.44652  1.0000
  C   C1284     1.0  0.69185  0.52070  0.45218  1.0000
  C   C1285     1.0  0.76959  0.00752  0.48017  1.0000
  H   H2041     1.0  0.89762  0.57526  0.25182  1.0000
  C   C1286     1.0  0.67623  0.54701  0.34262  1.0000
  H   H2042     1.0  0.66651  0.98405  0.41886  1.0000
  C   C1287     1.0  0.98183  0.57914  0.44078  1.0000
  H   H2043     1.0  0.72289  0.61337  0.46219  1.0000
  H   H2044     1.0  0.69230  0.60105  0.47230  1.0000
  C   C1288     1.0  0.67135  0.79297  0.46900  1.0000
  C   C1289     1.0  0.76274  0.66470  0.49100  1.0000
  H   H2045     1.0  0.86443  0.53983  0.25836  1.0000
  C   C1290     1.0  0.69632  0.99967  0.46985  1.0000
  C   C1291     1.0  0.99864  0.57802  0.33186  1.0000
  H   H2046     1.0  0.82913  0.98100  0.27045  1.0000
  H   H2047     1.0  0.87709  0.51031  0.45096  1.0000
  H   H2048     1.0  0.80405  0.98662  0.25061  1.0000
  H   H2049     1.0  0.73203  0.90787  0.42268  1.0000
  H   H2050     1.0  0.74294  0.52142  0.33955  1.0000
  Fe  Fe258     1.0  0.70016  0.86019  0.49561  1.0000
  H   H2051     1.0  0.68485  0.00354  0.48060  1.0000
  H   H2052     1.0  0.85782  0.66624  0.49719  1.0000
  H   H2053     1.0  0.82445  0.62006  0.49743  1.0000
  H   H2054     1.0  0.96982  0.56210  0.57391  1.0000
  Fe  Fe259     1.0  0.77771  0.59311  0.50454  1.0000
  S   S517      1.0  0.68618  0.68790  0.52269  1.0000
  H   H2055     1.0  0.70843  0.61119  0.61885  1.0000
  S   S518      1.0  0.73075  0.89473  0.70645  1.0000
  H   H2056     1.0  0.70028  0.60336  0.55586  1.0000
  H   H2057     1.0  0.77897  0.93873  0.69102  1.0000
  S   S519      1.0  0.76313  0.94670  0.72417  1.0000
  Fe  Fe260     1.0  0.69407  0.88347  0.72292  1.0000
  S   S520      1.0  0.74329  0.56901  0.50581  1.0000
  C   C1292     1.0  0.69848  0.56696  0.63851  1.0000
  H   H2058     1.0  0.67620  0.66803  0.55900  1.0000
  C   C1293     1.0  0.67992  0.93802  0.67265  1.0000
  H   H2059     1.0  0.72024  0.58495  0.66012  1.0000
  C   C1294     1.0  0.71429  0.64143  0.52856  1.0000
  Fe  Fe261     1.0  0.75317  0.54159  0.52336  1.0000
  H   H2060     1.0  0.70759  0.76149  0.53336  1.0000
  H   H2061     1.0  0.73320  0.64408  0.52715  1.0000
  H   H2062     1.0  0.68672  0.85231  0.69796  1.0000
  C   C1295     1.0  0.68663  0.83547  0.69417  1.0000
  S   S521      1.0  0.70782  0.69745  0.70276  1.0000
  S   S522      1.0  0.95097  0.62922  0.51733  1.0000
  H   H2063     1.0  0.68234  0.77013  0.74435  1.0000
  H   H2064     1.0  0.73034  0.70734  0.73298  1.0000
  C   C1296     1.0  0.68052  0.92167  0.68733  1.0000
  S   S523      1.0  0.89580  0.58031  0.54790  1.0000
  Fe  Fe262     1.0  0.97209  0.60964  0.50341  1.0000
  H   H2065     1.0  0.72113  0.73371  0.73091  1.0000
  H   H2066     1.0  0.87391  0.63744  0.52576  1.0000
  H   H2067     1.0  0.82954  0.59733  0.53287  1.0000
  C   C1297     1.0  0.70419  0.56181  0.58353  1.0000
  N   N128      1.0  0.67421  0.75199  0.52823  1.0000
  H   H2068     1.0  0.79994  0.94722  0.67057  1.0000
  H   H2069     1.0  0.83423  0.93911  0.70254  1.0000
  C   C1298     1.0  0.73231  0.55694  0.56018  1.0000
  C   C1299     1.0  0.72587  0.57028  0.57147  1.0000
  C   C1300     1.0  0.89202  0.57351  0.51660  1.0000
  H   H2070     1.0  0.82478  0.54925  0.53181  1.0000
  H   H2071     1.0  0.74855  0.56408  0.55039  1.0000
  H   H2072     1.0  0.73724  0.58767  0.57030  1.0000
  H   H2073     1.0  0.73035  0.61340  0.51026  1.0000
  H   H2074     1.0  0.77493  0.65630  0.74735  1.0000
  S   S524      1.0  0.95983  0.59973  0.55244  1.0000
  Fe  Fe263     1.0  0.97824  0.63361  0.53165  1.0000
  C   C1301     1.0  0.70678  0.60007  0.54318  1.0000
  S   S525      1.0  0.67751  0.67593  0.74338  1.0000
  H   H2075     1.0  0.67753  0.59978  0.62702  1.0000
  H   H2076     1.0  0.78460  0.98948  0.73229  1.0000
  S   S526      1.0  0.68296  0.66556  0.67029  1.0000
  H   H2077     1.0  0.67632  0.78062  0.54049  1.0000
  H   H2078     1.0  0.70460  0.98145  0.54333  1.0000
  H   H2079     1.0  0.70803  0.77116  0.51129  1.0000
  H   H2080     1.0  0.69416  0.95413  0.66676  1.0000
  C   C1302     1.0  0.85614  0.56231  0.53904  1.0000
  H   H2081     1.0  0.91072  0.58057  0.51224  1.0000
  H   H2082     1.0  0.70317  0.95922  0.51346  1.0000
  N   N129      1.0  0.68087  0.95236  0.53871  1.0000
  S   S527      1.0  0.78625  0.56684  0.52391  1.0000
  H   H2083     1.0  0.79102  0.73723  0.73231  1.0000
  H   H2084     1.0  0.81109  0.61595  0.52880  1.0000
  H   H2085     1.0  0.72573  0.60213  0.54113  1.0000
  H   H2086     1.0  0.83164  0.95971  0.68430  1.0000
  N   N130      1.0  0.69650  0.58819  0.64458  1.0000
  S   S528      1.0  0.68203  0.63987  0.71838  1.0000
  Fe  Fe264     1.0  0.71414  0.90770  0.50418  1.0000
  H   H2087     1.0  0.67333  0.62603  0.52208  1.0000
  H   H2088     1.0  0.82743  0.65573  0.50819  1.0000
  H   H2089     1.0  0.84713  0.56031  0.55221  1.0000
  H   H2090     1.0  0.76192  0.72693  0.70659  1.0000
  H   H2091     1.0  0.66979  0.91706  0.55589  1.0000
  H   H2092     1.0  0.69515  0.92521  0.69274  1.0000
  C   C1303     1.0  0.72993  0.80731  0.71338  1.0000
  C   C1304     1.0  0.71290  0.79832  0.72904  1.0000
  H   H2093     1.0  0.83208  0.62352  0.54052  1.0000
  C   C1305     1.0  0.87937  0.56729  0.50507  1.0000
  C   C1306     1.0  0.71414  0.77132  0.70509  1.0000
  C   C1307     1.0  0.73091  0.79349  0.70156  1.0000
  C   C1308     1.0  0.69634  0.76307  0.72042  1.0000
  H   H2094     1.0  0.69871  0.82761  0.70016  1.0000
  H   H2095     1.0  0.71428  0.76120  0.69563  1.0000
  H   H2096     1.0  0.74407  0.80033  0.68940  1.0000
  H   H2097     1.0  0.84207  0.60081  0.50199  1.0000
  H   H2098     1.0  0.80761  0.89809  0.71311  1.0000
  S   S529      1.0  0.69490  0.58035  0.59555  1.0000
  H   H2099     1.0  0.78037  0.91748  0.67864  1.0000
  C   C1309     1.0  0.76414  0.74394  0.71049  1.0000
  N   N131      1.0  0.84647  0.63031  0.51333  1.0000
  C   C1310     1.0  0.86995  0.63020  0.51498  1.0000
  S   S530      1.0  0.72448  0.51856  0.54659  1.0000
  C   C1311     1.0  0.98823  0.56102  0.59340  1.0000
  S   S531      1.0  0.69574  0.84783  0.73685  1.0000
  S   S532      1.0  0.67254  0.73808  0.72394  1.0000
  H   H2100     1.0  0.87166  0.61180  0.51758  1.0000
  H   H2101     1.0  0.67311  0.53239  0.59482  1.0000
  C   C1312     1.0  0.76017  0.76214  0.73411  1.0000
  C   C1313     1.0  0.79113  0.93229  0.68235  1.0000
  C   C1314     1.0  0.69383  0.60637  0.63064  1.0000
  H   H2102     1.0  0.67008  0.51279  0.55152  1.0000
  N   N132      1.0  0.70239  0.61665  0.52916  1.0000
  H   H2103     1.0  0.71603  0.95713  0.54035  1.0000
  S   S533      1.0  0.77045  0.52774  0.50231  1.0000
  C   C1315     1.0  0.68762  0.96359  0.52004  1.0000
  H   H2104     1.0  0.74867  0.77210  0.72915  1.0000
  C   C1316     1.0  0.69675  0.52530  0.57454  1.0000
  H   H2105     1.0  0.70049  0.55279  0.64866  1.0000
  C   C1317     1.0  0.98556  0.56009  0.57710  1.0000
  N   N133      1.0  0.80804  0.92439  0.69082  1.0000
  C   C1318     1.0  0.70003  0.96166  0.54598  1.0000
  H   H2106     1.0  0.69201  0.98339  0.51721  1.0000
  H   H2107     1.0  0.84847  0.66365  0.51978  1.0000
  C   C1319     1.0  0.78175  0.95189  0.73750  1.0000
  H   H2108     1.0  0.78282  0.91555  0.74510  1.0000
  H   H2109     1.0  0.75323  0.75379  0.70456  1.0000
  C   C1320     1.0  0.71764  0.59818  0.64962  1.0000
  H   H2110     1.0  0.83345  0.93041  0.66696  1.0000
  H   H2111     1.0  0.67218  0.65582  0.63996  1.0000
  C   C1321     1.0  0.68899  0.99904  0.57282  1.0000
  Fe  Fe265     1.0  0.68091  0.66934  0.69722  1.0000
  H   H2112     1.0  0.67339  0.95735  0.51417  1.0000
  S   S534      1.0  0.74591  0.87573  0.74172  1.0000
  C   C1322     1.0  0.69600  0.77648  0.73244  1.0000
  S   S535      1.0  0.73731  0.66123  0.73317  1.0000
  H   H2113     1.0  0.69974  0.99791  0.62463  1.0000
  C   C1323     1.0  0.71765  0.53453  0.56158  1.0000
  C   C1324     1.0  0.67605  0.92621  0.54192  1.0000
  C   C1325     1.0  0.67716  0.61338  0.53226  1.0000
  H   H2114     1.0  0.67422  0.59689  0.66457  1.0000
  H   H2115     1.0  0.67082  0.73796  0.55506  1.0000
  Fe  Fe266     1.0  0.74021  0.90943  0.72794  1.0000
  C   C1326     1.0  0.69969  0.75638  0.52322  1.0000
  H   H2116     1.0  0.69398  0.84036  0.68001  1.0000
  H   H2117     1.0  0.81396  0.90067  0.67515  1.0000
  C   C1327     1.0  0.74969  0.96084  0.50154  1.0000
  S   S536      1.0  0.78015  0.63043  0.50653  1.0000
  H   H2118     1.0  0.67937  0.98798  0.61320  1.0000
  H   H2119     1.0  0.97473  0.56425  0.60257  1.0000
  Fe  Fe267     1.0  0.98056  0.58262  0.53573  1.0000
  Fe  Fe268     1.0  0.67736  0.70296  0.72012  1.0000
  H   H2120     1.0  0.83681  0.91001  0.68491  1.0000
  H   H2121     1.0  0.69321  0.62302  0.63450  1.0000
  H   H2122     1.0  0.67591  0.78878  0.51851  1.0000
  H   H2123     1.0  0.69536  0.95407  0.56013  1.0000
  H   H2124     1.0  0.78375  0.91059  0.71562  1.0000
  C   C1328     1.0  0.85506  0.55883  0.51044  1.0000
  H   H2125     1.0  0.69182  0.92112  0.53668  1.0000
  C   C1329     1.0  0.71150  0.61173  0.51265  1.0000
  H   H2126     1.0  0.69820  0.58112  0.54410  1.0000
  H   H2127     1.0  0.67721  0.56738  0.67025  1.0000
  C   C1330     1.0  0.67603  0.58132  0.65953  1.0000
  C   C1331     1.0  0.75807  0.97962  0.50838  1.0000
  H   H2128     1.0  0.76264  0.67139  0.50221  1.0000
  S   S537      1.0  0.73700  0.93189  0.51521  1.0000
  H   H2129     1.0  0.75719  0.97618  0.52191  1.0000
  S   S538      1.0  0.69183  0.87129  0.52004  1.0000
  C   C1332     1.0  0.68966  0.53921  0.58521  1.0000
  S   S539      1.0  0.74904  0.83629  0.70815  1.0000
  Fe  Fe269     1.0  0.73305  0.86005  0.72180  1.0000
  Fe  Fe270     1.0  0.70586  0.66834  0.72559  1.0000
  H   H2130     1.0  0.71264  0.80824  0.73858  1.0000
  H   H2131     1.0  0.68280  0.98336  0.58347  1.0000
  C   C1333     1.0  0.84348  0.55624  0.52747  1.0000
  S   S540      1.0  0.95375  0.57351  0.52162  1.0000
  Fe  Fe271     1.0  0.93454  0.59364  0.53656  1.0000
  C   C1334     1.0  0.88043  0.57106  0.53361  1.0000
  H   H2132     1.0  0.88365  0.64094  0.50305  1.0000
  H   H2133     1.0  0.71249  0.65446  0.51753  1.0000
  C   C1335     1.0  0.82169  0.94454  0.69571  1.0000
  H   H2134     1.0  0.71653  0.61421  0.65432  1.0000
  H   H2135     1.0  0.77167  0.70956  0.73261  1.0000
  C   C1336     1.0  0.78998  0.97510  0.73904  1.0000
  H   H2136     1.0  0.70938  0.62455  0.50167  1.0000
  H   H2137     1.0  0.97289  0.50977  0.56588  1.0000
  H   H2138     1.0  0.71362  0.57153  0.62710  1.0000
  C   C1337     1.0  0.78898  0.93349  0.74615  1.0000
  H   H2139     1.0  0.68280  0.55917  0.63453  1.0000
  H   H2140     1.0  0.78465  0.88918  0.70329  1.0000
  H   H2141     1.0  0.70700  0.64623  0.54044  1.0000
  H   H2142     1.0  0.66797  0.71602  0.54316  1.0000
  H   H2143     1.0  0.70263  0.59335  0.51248  1.0000
  C   C1338     1.0  0.82902  0.61618  0.52960  1.0000
  H   H2144     1.0  0.81023  0.95148  0.70449  1.0000
  C   C1339     1.0  0.79549  0.90465  0.70637  1.0000
  C   C1340     1.0  0.84181  0.61974  0.49928  1.0000
  S   S541      1.0  0.70323  0.90120  0.74301  1.0000
  C   C1341     1.0  0.82378  0.91602  0.67892  1.0000
  H   H2145     1.0  0.73341  0.60371  0.63859  1.0000
  H   H2146     1.0  0.70444  0.74022  0.52084  1.0000
  C   C1342     1.0  0.73297  0.72471  0.73626  1.0000
  H   H2147     1.0  0.67179  0.75858  0.50221  1.0000
  C   C1343     1.0  0.66874  0.77412  0.53060  1.0000
  C   C1344     1.0  0.84502  0.65511  0.50946  1.0000
  C   C1345     1.0  0.69258  0.00389  0.61371  1.0000
  N   N134      1.0  0.75747  0.73931  0.72937  1.0000
  H   H2148     1.0  0.67521  0.78784  0.69992  1.0000
  H   H2149     1.0  0.78260  0.75473  0.70480  1.0000
  H   H2150     1.0  0.67012  0.80064  0.67997  1.0000
  H   H2151     1.0  0.66970  0.61653  0.54478  1.0000
  H   H2152     1.0  0.72496  0.00410  0.57277  1.0000
  Fe  Fe272     1.0  0.80288  0.55552  0.50132  1.0000
  S   S542      1.0  0.99219  0.66705  0.53922  1.0000
  H   H2153     1.0  0.66765  0.59498  0.53258  1.0000
  H   H2154     1.0  0.77832  0.77392  0.72882  1.0000
  H   H2155     1.0  0.66850  0.72804  0.51235  1.0000
  C   C1346     1.0  0.77251  0.72635  0.73663  1.0000
  C   C1347     1.0  0.67333  0.00780  0.56515  1.0000
  C   C1348     1.0  0.76766  0.00298  0.49777  1.0000
  Fe  Fe273     1.0  0.75774  0.89087  0.95279  1.0000
  Fe  Fe274     1.0  0.76616  0.94407  0.93913  1.0000
  S   S543      1.0  0.73536  0.94453  0.95874  1.0000
  S   S544      1.0  0.78537  0.97910  0.91979  1.0000
  Fe  Fe275     1.0  0.74769  0.92097  0.97733  1.0000
  S   S545      1.0  0.68150  0.90789  0.94941  1.0000
  Fe  Fe276     1.0  0.71718  0.91113  0.95317  1.0000
  S   S546      1.0  0.78013  0.92286  0.95800  1.0000
  S   S547      1.0  0.74712  0.91257  0.93191  1.0000
  C   C1349     1.0  0.76107  0.82062  0.93596  1.0000
  H   H2156     1.0  0.80888  0.99988  0.85728  1.0000
  Fe  Fe277     1.0  0.83258  0.99204  0.78640  1.0000
  C   C1350     1.0  0.72048  0.66942  0.84065  1.0000
  S   S548      1.0  0.77854  0.71610  0.90106  1.0000
  S   S549      1.0  0.81870  0.95779  0.84879  1.0000
  C   C1351     1.0  0.71815  0.53919  0.88665  1.0000
  Fe  Fe278     1.0  0.82448  0.98655  0.82483  1.0000
  C   C1352     1.0  0.80657  0.98655  0.86897  1.0000
  C   C1353     1.0  0.67680  0.89794  0.93152  1.0000
  H   H2157     1.0  0.91986  0.59020  0.80672  1.0000
  C   C1354     1.0  0.71063  0.57714  0.88641  1.0000
  H   H2158     1.0  0.81160  0.99785  0.75035  1.0000
  Fe  Fe279     1.0  0.79006  0.63570  0.84453  1.0000
  S   S550      1.0  0.81235  0.61532  0.83281  1.0000
  S   S551      1.0  0.77324  0.62542  0.87278  1.0000
  Fe  Fe280     1.0  0.78497  0.66121  0.81008  1.0000
  S   S552      1.0  0.80707  0.64282  0.79565  1.0000
  S   S553      1.0  0.76251  0.68269  0.80001  1.0000
  Fe  Fe281     1.0  0.78718  0.60995  0.81685  1.0000
  S   S554      1.0  0.77285  0.57388  0.81289  1.0000
  Fe  Fe282     1.0  0.83019  0.65033  0.81297  1.0000
  S   S555      1.0  0.86902  0.66269  0.80093  1.0000
  S   S556      1.0  0.76377  0.62784  0.83010  1.0000
  S   S557      1.0  0.80944  0.67143  0.82591  1.0000
  C   C1355     1.0  0.72449  0.91914  0.77874  1.0000
  Fe  Fe283     1.0  0.70824  0.86639  0.75544  1.0000
  C   C1356     1.0  0.76331  0.66228  0.75611  1.0000
  H   H2159     1.0  0.67871  0.60245  0.91369  1.0000
  H   H2160     1.0  0.82552  0.98265  0.98609  1.0000
  S   S558      1.0  0.99449  0.69352  0.80325  1.0000
  Fe  Fe284     1.0  0.97905  0.68844  0.83132  1.0000
  S   S559      1.0  0.94209  0.68725  0.84330  1.0000
  C   C1357     1.0  0.70382  0.56809  0.82400  1.0000
  H   H2161     1.0  0.69255  0.93715  0.79512  1.0000
  C   C1358     1.0  0.74452  0.00335  0.82108  1.0000
  C   C1359     1.0  0.75469  0.67546  0.78200  1.0000
  C   C1360     1.0  0.76919  0.66715  0.77079  1.0000
  H   H2162     1.0  0.73264  0.98911  0.86742  1.0000
  H   H2163     1.0  0.73294  0.91929  0.89289  1.0000
  H   H2164     1.0  0.75384  0.94512  0.89386  1.0000
  C   C1361     1.0  0.73403  0.67858  0.77855  1.0000
  H   H2165     1.0  0.78537  0.66516  0.77309  1.0000
  H   H2166     1.0  0.76120  0.67439  0.84916  1.0000
  H   H2167     1.0  0.70301  0.95415  0.86678  1.0000
  H   H2168     1.0  0.72266  0.68491  0.78722  1.0000
  C   C1362     1.0  0.92163  0.68260  0.83127  1.0000
  C   C1363     1.0  0.89777  0.67470  0.83964  1.0000
  C   C1364     1.0  0.88127  0.66898  0.83046  1.0000
  C   C1365     1.0  0.88862  0.67141  0.81283  1.0000
  C   C1366     1.0  0.91240  0.68005  0.80442  1.0000
  C   C1367     1.0  0.92884  0.68553  0.81360  1.0000
  H   H2169     1.0  0.89204  0.67252  0.85331  1.0000
  H   H2170     1.0  0.86293  0.66245  0.83703  1.0000
  H   H2171     1.0  0.91813  0.68232  0.79073  1.0000
  H   H2172     1.0  0.94705  0.69216  0.80694  1.0000
  H   H2173     1.0  0.80681  0.71393  0.92353  1.0000
  H   H2174     1.0  0.73531  0.59592  0.81949  1.0000
  H   H2175     1.0  0.73175  0.97888  0.77044  1.0000
  C   C1368     1.0  0.80820  0.97776  0.99460  1.0000
  H   H2176     1.0  0.70746  0.76852  0.95636  1.0000
  C   C1369     1.0  0.73572  0.93828  0.89314  1.0000
  C   C1370     1.0  0.77772  0.69063  0.89352  1.0000
  C   C1371     1.0  0.76047  0.66919  0.90209  1.0000
  C   C1372     1.0  0.75976  0.64897  0.89599  1.0000
  C   C1373     1.0  0.77606  0.65022  0.88107  1.0000
  C   C1374     1.0  0.79375  0.67143  0.87265  1.0000
  C   C1375     1.0  0.79472  0.69158  0.87899  1.0000
  H   H2177     1.0  0.74779  0.66789  0.91357  1.0000
  H   H2178     1.0  0.74619  0.63251  0.90263  1.0000
  H   H2179     1.0  0.80675  0.67229  0.86132  1.0000
  H   H2180     1.0  0.72647  0.85701  0.94066  1.0000
  C   C1376     1.0  0.69179  0.55153  0.87117  1.0000
  S   S560      1.0  0.69738  0.85132  0.78399  1.0000
  H   H2181     1.0  0.69274  0.57912  0.82695  1.0000
  C   C1377     1.0  0.70876  0.53085  0.81914  1.0000
  H   H2182     1.0  0.72388  0.93849  0.90528  1.0000
  C   C1378     1.0  0.79585  0.97383  0.90006  1.0000
  C   C1379     1.0  0.79929  0.95170  0.89944  1.0000
  C   C1380     1.0  0.80648  0.94703  0.88358  1.0000
  C   C1381     1.0  0.81006  0.96440  0.86835  1.0000
  H   H2183     1.0  0.70369  0.53005  0.89850  1.0000
  H   H2184     1.0  0.75588  0.70281  0.84334  1.0000
  H   H2185     1.0  0.79649  0.93815  0.91118  1.0000
  H   H2186     1.0  0.80911  0.92984  0.88314  1.0000
  N   N135      1.0  0.88606  0.00278  0.84859  1.0000
  C   C1382     1.0  0.72173  0.99242  0.83171  1.0000
  C   C1383     1.0  0.79745  0.99967  0.95359  1.0000
  H   H2187     1.0  0.77744  0.81851  0.93790  1.0000
  H   H2188     1.0  0.80170  0.71277  0.94577  1.0000
  H   H2189     1.0  0.72715  0.72101  0.75047  1.0000
  H   H2190     1.0  0.71400  0.97353  0.83400  1.0000
  C   C1384     1.0  0.73901  0.76142  0.97331  1.0000
  H   H2191     1.0  0.90092  0.58197  0.82809  1.0000
  C   C1385     1.0  0.72643  0.68974  0.98641  1.0000
  H   H2192     1.0  0.86089  0.97147  0.86626  1.0000
  H   H2193     1.0  0.70002  0.87202  0.90180  1.0000
  H   H2194     1.0  0.76722  0.72134  0.75093  1.0000
  H   H2195     1.0  0.69249  0.68025  0.86557  1.0000
  H   H2196     1.0  0.67207  0.62801  0.76862  1.0000
  N   N136      1.0  0.71336  0.55979  0.87625  1.0000
  H   H2197     1.0  0.67663  0.54253  0.88259  1.0000
  H   H2198     1.0  0.72687  0.58443  0.88994  1.0000
  H   H2199     1.0  0.70375  0.92453  0.87622  1.0000
  H   H2200     1.0  0.85184  0.00346  0.84724  1.0000
  S   S561      1.0  0.67494  0.92918  0.84330  1.0000
  H   H2201     1.0  0.79470  0.94892  0.98407  1.0000
  H   H2202     1.0  0.99490  0.58272  0.79996  1.0000
  H   H2203     1.0  0.72939  0.58646  0.85241  1.0000
  C   C1386     1.0  0.67667  0.61179  0.76628  1.0000
  C   C1387     1.0  0.75117  0.94860  0.78681  1.0000
  N   N137      1.0  0.71572  0.76348  0.98064  1.0000
  C   C1388     1.0  0.75026  0.68564  0.85350  1.0000
  S   S562      1.0  0.70196  0.69064  0.97862  1.0000
  H   H2204     1.0  0.72388  0.97914  0.89047  1.0000
  H   H2205     1.0  0.95305  0.62770  0.79693  1.0000
  C   C1389     1.0  0.73249  0.84250  0.93735  1.0000
  H   H2206     1.0  0.70257  0.82835  0.92885  1.0000
  H   H2207     1.0  0.74403  0.52898  0.81285  1.0000
  C   C1390     1.0  0.71763  0.78834  0.98142  1.0000
  N   N138      1.0  0.72849  0.94244  0.78285  1.0000
  H   H2208     1.0  0.69898  0.62993  0.78756  1.0000
  H   H2209     1.0  0.75417  0.99291  0.81506  1.0000
  C   C1391     1.0  0.71894  0.65045  0.86977  1.0000
  C   C1392     1.0  0.68724  0.57659  0.77791  1.0000
  H   H2210     1.0  0.68274  0.75865  0.97469  1.0000
  C   C1393     1.0  0.79079  0.95870  0.99342  1.0000
  H   H2211     1.0  0.73437  0.54487  0.89061  1.0000
  H   H2212     1.0  0.72029  0.52580  0.87932  1.0000
  N   N139      1.0  0.72528  0.67357  0.85675  1.0000
  H   H2213     1.0  0.72540  0.68646  0.83042  1.0000
  H   H2214     1.0  0.78785  0.98079  0.95507  1.0000
  S   S563      1.0  0.70827  0.78586  0.91966  1.0000
  H   H2215     1.0  0.72461  0.80100  0.96839  1.0000
  C   C1394     1.0  0.73563  0.97771  0.87875  1.0000
  H   H2216     1.0  0.71116  0.82382  0.89015  1.0000
  H   H2217     1.0  0.70586  0.88346  0.92807  1.0000
  H   H2218     1.0  0.71147  0.95688  0.76472  1.0000
  H   H2219     1.0  0.68746  0.56670  0.86354  1.0000
  S   S564      1.0  0.71532  0.68305  0.93116  1.0000
  H   H2220     1.0  0.70737  0.91383  0.77596  1.0000
  S   S565      1.0  0.68276  0.71811  0.93836  1.0000
  H   H2221     1.0  0.80882  0.00676  0.94021  1.0000
  H   H2222     1.0  0.68509  0.64341  0.91761  1.0000
  H   H2223     1.0  0.71191  0.67557  0.76154  1.0000
  H   H2224     1.0  0.70040  0.64047  0.87204  1.0000
  H   H2225     1.0  0.75173  0.93519  0.79814  1.0000
  C   C1395     1.0  0.81295  0.96161  0.75756  1.0000
  C   C1396     1.0  0.69173  0.88695  0.92312  1.0000
  C   C1397     1.0  0.70916  0.00611  0.83936  1.0000
  S   S566      1.0  0.72099  0.73206  0.90122  1.0000
  H   H2226     1.0  0.68074  0.82294  0.85562  1.0000
  H   H2227     1.0  0.89032  0.97432  0.86720  1.0000
  H   H2228     1.0  0.71263  0.95817  0.80160  1.0000
  C   C1398     1.0  0.70037  0.75694  0.96972  1.0000
  C   C1399     1.0  0.67706  0.87012  0.80844  1.0000
  H   H2229     1.0  0.71428  0.69180  0.87548  1.0000
  C   C1400     1.0  0.87765  0.98456  0.86530  1.0000
  C   C1401     1.0  0.67103  0.61476  0.90703  1.0000
  H   H2230     1.0  0.72466  0.90465  0.78956  1.0000
  C   C1402     1.0  0.67777  0.86561  0.79241  1.0000
  H   H2231     1.0  0.74941  0.57868  0.86396  1.0000
  Fe  Fe285     1.0  0.70883  0.70460  0.94996  1.0000
  C   C1403     1.0  0.69418  0.54476  0.82344  1.0000
  C   C1404     1.0  0.74887  0.70063  0.97563  1.0000
  H   H2232     1.0  0.73606  0.55872  0.85294  1.0000
  H   H2233     1.0  0.73807  0.74298  0.97235  1.0000
  H   H2234     1.0  0.75732  0.99722  0.94492  1.0000
  N   N140      1.0  0.92937  0.61374  0.82218  1.0000
  C   C1405     1.0  0.91770  0.62297  0.83577  1.0000
  C   C1406     1.0  0.91168  0.59738  0.81706  1.0000
  C   C1407     1.0  0.94496  0.60086  0.82869  1.0000
  C   C1408     1.0  0.94313  0.63386  0.80715  1.0000
  H   H2235     1.0  0.90546  0.63234  0.83134  1.0000
  H   H2236     1.0  0.93044  0.63595  0.83965  1.0000
  H   H2237     1.0  0.90747  0.60839  0.84747  1.0000
  H   H2238     1.0  0.69468  0.94248  0.88968  1.0000
  H   H2239     1.0  0.89962  0.60666  0.81214  1.0000
  H   H2240     1.0  0.95860  0.61286  0.83251  1.0000
  H   H2241     1.0  0.95419  0.59377  0.81872  1.0000
  H   H2242     1.0  0.93527  0.58560  0.84009  1.0000
  H   H2243     1.0  0.75512  0.96638  0.78953  1.0000
  H   H2244     1.0  0.93181  0.64335  0.80144  1.0000
  S   S567      1.0  0.72626  0.88714  0.97378  1.0000
  N   N141      1.0  0.80148  0.67917  0.94012  1.0000
  C   C1409     1.0  0.77593  0.67180  0.94342  1.0000
  C   C1410     1.0  0.81196  0.67068  0.92563  1.0000
  C   C1411     1.0  0.80783  0.66873  0.95569  1.0000
  C   C1412     1.0  0.81023  0.70549  0.93570  1.0000
  H   H2245     1.0  0.76729  0.67600  0.95513  1.0000
  H   H2246     1.0  0.76891  0.65227  0.94526  1.0000
  H   H2247     1.0  0.77038  0.68112  0.93262  1.0000
  H   H2248     1.0  0.83124  0.67606  0.92267  1.0000
  H   H2249     1.0  0.80580  0.65090  0.92841  1.0000
  H   H2250     1.0  0.80735  0.67824  0.91375  1.0000
  H   H2251     1.0  0.80117  0.64891  0.95955  1.0000
  H   H2252     1.0  0.80044  0.67507  0.96682  1.0000
  H   H2253     1.0  0.82699  0.67367  0.95367  1.0000
  H   H2254     1.0  0.82930  0.71161  0.93397  1.0000
  C   C1413     1.0  0.72802  0.57758  0.81995  1.0000
  S   S568      1.0  0.77023  0.85913  0.94918  1.0000
  C   C1414     1.0  0.74261  0.56338  0.81630  1.0000
  H   H2255     1.0  0.80835  0.70803  0.87243  1.0000
  C   C1415     1.0  0.74742  0.95159  0.86219  1.0000
  C   C1416     1.0  0.70298  0.82963  0.87980  1.0000
  C   C1417     1.0  0.80487  0.93845  0.75587  1.0000
  H   H2256     1.0  0.70175  0.66048  0.84257  1.0000
  Fe  Fe286     1.0  0.71340  0.74910  0.92273  1.0000
  H   H2257     1.0  0.95592  0.64713  0.81072  1.0000
  H   H2258     1.0  0.75381  0.98547  0.87904  1.0000
  H   H2259     1.0  0.75138  0.70952  0.96237  1.0000
  H   H2260     1.0  0.87302  0.97783  0.83505  1.0000
  Fe  Fe287     1.0  0.74342  0.71641  0.91561  1.0000
  H   H2261     1.0  0.69827  0.73820  0.96904  1.0000
  H   H2262     1.0  0.70880  0.92666  0.80916  1.0000
  C   C1418     1.0  0.70718  0.94305  0.87761  1.0000
  C   C1419     1.0  0.79976  0.99138  0.88484  1.0000
  H   H2263     1.0  0.75350  0.78969  0.92620  1.0000
  H   H2264     1.0  0.76591  0.95864  0.86203  1.0000
  H   H2265     1.0  0.69636  0.56885  0.89847  1.0000
  S   S569      1.0  0.73885  0.73673  0.93549  1.0000
  H   H2266     1.0  0.74708  0.77358  0.96020  1.0000
  C   C1420     1.0  0.75356  0.83972  0.94003  1.0000
  C   C1421     1.0  0.74747  0.80422  0.92943  1.0000
  H   H2267     1.0  0.78551  0.70900  0.97385  1.0000
  H   H2268     1.0  0.81092  0.92429  0.76217  1.0000
  H   H2269     1.0  0.74487  0.93294  0.86116  1.0000
  N   N142      1.0  0.68204  0.59838  0.78134  1.0000
  C   C1422     1.0  0.73288  0.54001  0.81583  1.0000
  C   C1423     1.0  0.70983  0.94107  0.79786  1.0000
  C   C1424     1.0  0.71144  0.68871  0.86313  1.0000
  C   C1425     1.0  0.72629  0.80685  0.92694  1.0000
  C   C1426     1.0  0.71895  0.82619  0.93072  1.0000
  N   N143      1.0  0.73148  0.95266  0.87792  1.0000
  H   H2270     1.0  0.71599  0.70645  0.85377  1.0000
  S   S570      1.0  0.85598  0.99133  0.80390  1.0000
  H   H2271     1.0  0.67219  0.56472  0.77539  1.0000
  H   H2272     1.0  0.72138  0.65301  0.88230  1.0000
  C   C1427     1.0  0.76820  0.70008  0.98204  1.0000
  H   H2273     1.0  0.72955  0.79414  0.98920  1.0000
  H   H2274     1.0  0.69335  0.53877  0.86318  1.0000
  H   H2275     1.0  0.73060  0.65799  0.83553  1.0000
  C   C1428     1.0  0.88948  0.99098  0.83458  1.0000
  H   H2276     1.0  0.75555  0.75917  0.74830  1.0000
  S   S571      1.0  0.80050  0.98399  0.80787  1.0000
  H   H2277     1.0  0.70618  0.59250  0.87913  1.0000
  H   H2278     1.0  0.72980  0.63898  0.86575  1.0000
  C   C1429     1.0  0.74283  0.66561  0.75253  1.0000
  Fe  Fe288     1.0  0.69242  0.69972  0.91785  1.0000
  C   C1430     1.0  0.68820  0.88019  0.90835  1.0000
  H   H2279     1.0  0.73803  0.91963  0.76727  1.0000
  C   C1431     1.0  0.72796  0.67337  0.76396  1.0000
  H   H2280     1.0  0.74202  0.96219  0.75630  1.0000
  N   N144      1.0  0.68001  0.81275  0.88230  1.0000
  C   C1432     1.0  0.72842  0.96095  0.76795  1.0000
  S   S572      1.0  0.83389  0.96731  0.76902  1.0000
  H   H2281     1.0  0.74484  0.96236  0.85044  1.0000
  H   H2282     1.0  0.75576  0.98395  0.97609  1.0000
  H   H2283     1.0  0.77496  0.00266  0.98468  1.0000
  S   S573      1.0  0.98943  0.65534  0.84011  1.0000
  H   H2284     1.0  0.76553  0.94927  0.77589  1.0000
  H   H2285     1.0  0.70729  0.60393  0.79572  1.0000
  H   H2286     1.0  0.75434  0.68963  0.86529  1.0000
  H   H2287     1.0  0.71515  0.83115  0.86735  1.0000
  H   H2288     1.0  0.70044  0.79055  0.98710  1.0000
  C   C1433     1.0  0.73293  0.57139  0.86073  1.0000
  H   H2289     1.0  0.66728  0.83927  0.86855  1.0000
  C   C1434     1.0  0.70243  0.61351  0.78466  1.0000
  H   H2290     1.0  0.70139  0.51285  0.81853  1.0000
  H   H2291     1.0  0.68700  0.86269  0.81635  1.0000
  H   H2292     1.0  0.75101  0.76590  0.98133  1.0000
  H   H2293     1.0  0.67215  0.80468  0.90983  1.0000
  H   H2294     1.0  0.70149  0.84780  0.87999  1.0000
  H   H2295     1.0  0.71791  0.61909  0.77339  1.0000
  S   S574      1.0  0.68098  0.99337  0.85321  1.0000
  H   H2296     1.0  0.90272  0.98119  0.83537  1.0000
  H   H2297     1.0  0.69130  0.56603  0.78908  1.0000
  H   H2298     1.0  0.69174  0.61774  0.75467  1.0000
  H   H2299     1.0  0.69415  0.78955  0.86921  1.0000
  H   H2300     1.0  0.69060  0.78187  0.89187  1.0000
  H   H2301     1.0  0.80899  0.99956  0.96228  1.0000
  C   C1435     1.0  0.76537  0.00282  0.97467  1.0000
  H   H2302     1.0  0.87455  0.99279  0.87617  1.0000
  H   H2303     1.0  0.70244  0.58103  0.76658  1.0000
  H   H2304     1.0  0.89533  0.00420  0.82175  1.0000
  C   C1436     1.0  0.68270  0.78895  0.88173  1.0000
  C   C1437     1.0  0.80521  0.97988  0.74930  1.0000
  C   C1438     1.0  0.66978  0.88455  0.90192  1.0000
  C   C1439     1.0  0.67467  0.63796  0.90928  1.0000
  S   S575      1.0  0.66690  0.87847  0.88244  1.0000
  S   S576      1.0  0.66817  0.68312  0.90346  1.0000
  C   C1440     1.0  0.66960  0.82137  0.86852  1.0000
