data_image0
_chemical_formula_structural       HCH2CHCH2CH3CHNHCH5FeS2FeSFe2S2C2H2CH2SHSH2NC2HC2HCSC6H5SH2CFeCH2SC4H3NCHCH2C2H2C2FeCS3FeHFeHCH3C2H5CH4CHNH4CHCHCSNC2H2C4HSCHFeH4C3H2S2FeSFeHFeH2C2HSC2HCSHC2HFeC2SFeH2CNSH4FeCSH8SHSC2NC6H2CHCH5CHCH3FeHCFeSFeSFeS2H2CH2CHNHCHNCH5CH2CH2SFeSC4H2CNSHCHCHFeHCFeH4CH2SH3CHCH2CS2HCHFeSHCSHCHNHC4H2C2H3CH2CH6CHC2H5CH3CNC2FeS2H3NH2CH2CH2CHCHCHC3H2CSH2CH2CHCFeSCH2SHFe2SHSC2SFeHSH2CHNH2CH2C2H4SH2C2HC2H3NCH2CS2FeSC2HSFeCH2CH2CH5CH6C2HCH2C2H2CH4SFeS2CFe2SFeSHCHSH2C3H4CNH4CHCNH3SC2HCHNH2CH3SH2SCHSCHCHCHSC4HSH2SCH3CH2S2HC3H2CH3C2SHCH2C2H5NCSFeSFeSFe2S3CHSH3CHCH12C5HCNC2HFeS2FeSCHCFeSCS2H2CH4CH3CSCH5FeHCNC2SHCH4CHCH4C6H3SH3SCFe2S2C2HFeS2FeS2C2HCH3CH3CHNH2S2C6H5CH7CHC2NCSHCHCH5CHC3H5NCH2CH2C2H2CH3CHC2FeH5CSC6H7FeHN2HC2SCSFeS2FeCHCFeS2C2HCH4CHCH2SH3CH2C2H2CH2C2NCSCH2CH3CFeS2CHNSHCHCH2SFeHCH2CHCH3CH2CSHCFeS2FeSC3H4C2H4NCHCHCHCH2CHCH4C2FeS2FeSFe2S3HSNHCH5CHC2H2C2H5C2H3C2HCH2C2HSHCNSHCHCH2SFeCH3C3H6FeHCSHCHNH2C2HSHC2H2CHCH3CH2NCHSH2C2H3CH3CHCH2S2CSC2H2FeH2S2HCFeCHSHC3H2CH4NHCH2CH2S2FeS2Fe3SHCSHSCHNHCH2CHCH3CHCH2NCH9CH2SH3CHFeSC2H2CH4CHNCH3SHCFeSC4H2S2H2CFeS2CFeSC2HSH2CHCHC2SH5C2NSHCHCH2CHSHC2HCH2CNSH3CHNHCH2CSH4CH2FeSFe2CSCSH6C2NC2H7CH10C2HCHCHSCHC2HSFeS2CSFe2CHCH2CH2CHCH2SCFeCSHC3HCH4NH4NCH2CH3CHCSFeS2Fe2CH5CHSHSHC2HC3FeH4CSHCH2CS2CFeCHFeSCH5CSH3CNCHC2HSCFeCSHCH2CHCH4C2HCS2HCSFe2H2CHFeHSCHNHCSC4H2C2H6FeCH3CHS2HCS2FeCFeCH2CFeSC3H2CHSCH3C2H5CHC3NH3SC5H2NC2H5CH2CHFeH2CHC2H2FeHCFeHS2CS3HCSHNHFeCSH2CH5CH3
_chemical_formula_sum              "H768 C480 N48 Fe96 S192"
_cell_length_a       56.5321
_cell_length_b       56.5273
_cell_length_c       42.2051
_cell_angle_alpha    90.2101
_cell_angle_beta     90.2142
_cell_angle_gamma    120.003

_space_group_name_H-M_alt    "P 1"
_space_group_IT_number       1

loop_
  _space_group_symop_operation_xyz
  'x, y, z'

loop_
  _atom_site_type_symbol
  _atom_site_label
  _atom_site_symmetry_multiplicity
  _atom_site_fract_x
  _atom_site_fract_y
  _atom_site_fract_z
  _atom_site_occupancy
  H   H1        1.0  0.22745  0.03791  0.21861  1.0000
  C   C1        1.0  0.23807  0.03573  0.23967  1.0000
  H   H2        1.0  0.22265  0.01806  0.25354  1.0000
  H   H3        1.0  0.21938  0.07047  0.25030  1.0000
  C   C2        1.0  0.00829  0.31321  0.20933  1.0000
  H   H4        1.0  0.01597  0.25835  0.23222  1.0000
  C   C3        1.0  0.00615  0.30428  0.24087  1.0000
  H   H5        1.0  0.05391  0.30431  0.21658  1.0000
  H   H6        1.0  0.02337  0.23177  0.24193  1.0000
  C   C4        1.0  0.02977  0.25012  0.22684  1.0000
  H   H7        1.0  0.02611  0.24312  0.20171  1.0000
  H   H8        1.0  0.99357  0.29986  0.19181  1.0000
  H   H9        1.0  0.07061  0.24083  0.24142  1.0000
  C   C5        1.0  0.06649  0.29459  0.21178  1.0000
  H   H10       1.0  0.08822  0.31065  0.21535  1.0000
  N   N1        1.0  0.05869  0.27087  0.23263  1.0000
  H   H11       1.0  0.06359  0.28858  0.18629  1.0000
  C   C6        1.0  0.07609  0.25880  0.22595  1.0000
  H   H12       1.0  0.07376  0.25165  0.20092  1.0000
  H   H13       1.0  0.20319  0.31760  0.24076  1.0000
  H   H14       1.0  0.09805  0.27382  0.23020  1.0000
  H   H15       1.0  0.00930  0.42102  0.15695  1.0000
  H   H16       1.0  0.99595  0.36336  0.20925  1.0000
  Fe  Fe1       1.0  0.06053  0.38978  0.13670  1.0000
  S   S1        1.0  0.08617  0.38963  0.09598  1.0000
  S   S2        1.0  0.02970  0.34997  0.16073  1.0000
  Fe  Fe2       1.0  0.07900  0.45121  0.12839  1.0000
  S   S3        1.0  0.10654  0.45541  0.08778  1.0000
  Fe  Fe3       1.0  0.07141  0.41498  0.07042  1.0000
  Fe  Fe4       1.0  0.11923  0.42958  0.11647  1.0000
  S   S4        1.0  0.04362  0.41220  0.10942  1.0000
  S   S5        1.0  0.09396  0.42833  0.15867  1.0000
  C   C7        1.0  0.04779  0.35654  0.22327  1.0000
  C   C8        1.0  0.02904  0.33938  0.20037  1.0000
  H   H17       1.0  0.06406  0.37660  0.21671  1.0000
  H   H18       1.0  0.04977  0.43479  0.19121  1.0000
  C   C9        1.0  0.03785  0.41493  0.20366  1.0000
  H   H19       1.0  0.04172  0.39985  0.19127  1.0000
  H   H20       1.0  0.00883  0.36432  0.04771  1.0000
  S   S6        1.0  0.06544  0.48051  0.14864  1.0000
  H   H21       1.0  0.04632  0.41757  0.22808  1.0000
  S   S7        1.0  0.05672  0.41048  0.01902  1.0000
  H   H22       1.0  0.00134  0.38164  0.24579  1.0000
  H   H23       1.0  0.01545  0.44676  0.20683  1.0000
  N   N2        1.0  0.00840  0.40580  0.20381  1.0000
  C   C10       1.0  0.00277  0.36875  0.02516  1.0000
  C   C11       1.0  0.02193  0.39065  0.00710  1.0000
  H   H24       1.0  0.01189  0.43045  0.24437  1.0000
  C   C12       1.0  0.00425  0.42685  0.21948  1.0000
  C   C13       1.0  0.99815  0.40179  0.17083  1.0000
  H   H25       1.0  0.00084  0.38584  0.15842  1.0000
  C   C14       1.0  0.99355  0.37969  0.22109  1.0000
  S   S8        1.0  0.16296  0.44029  0.13054  1.0000
  C   C15       1.0  0.22513  0.41434  0.09855  1.0000
  C   C16       1.0  0.22716  0.42613  0.12841  1.0000
  C   C17       1.0  0.20782  0.43364  0.13778  1.0000
  C   C18       1.0  0.18570  0.42880  0.11796  1.0000
  C   C19       1.0  0.18324  0.41633  0.08846  1.0000
  C   C20       1.0  0.20296  0.40940  0.07877  1.0000
  H   H26       1.0  0.20991  0.44318  0.16068  1.0000
  H   H27       1.0  0.16649  0.41257  0.07283  1.0000
  H   H28       1.0  0.20107  0.40029  0.05564  1.0000
  H   H29       1.0  0.03624  0.16195  0.38600  1.0000
  H   H30       1.0  0.22967  0.33315  0.32317  1.0000
  S   S9        1.0  0.23482  0.06872  0.35560  1.0000
  H   H31       1.0  0.21450  0.12008  0.47682  1.0000
  H   H32       1.0  0.18918  0.13766  0.40389  1.0000
  C   C21       1.0  0.21806  0.08763  0.34868  1.0000
  Fe  Fe5       1.0  0.21503  0.02232  0.35578  1.0000
  C   C22       1.0  0.22135  0.13221  0.34232  1.0000
  H   H33       1.0  0.17740  0.05295  0.34545  1.0000
  H   H34       1.0  0.15535  0.08105  0.33683  1.0000
  S   S10       1.0  0.17632  0.13896  0.33455  1.0000
  C   C23       1.0  0.19300  0.11964  0.33876  1.0000
  C   C24       1.0  0.17731  0.09096  0.33964  1.0000
  C   C25       1.0  0.18975  0.07499  0.34456  1.0000
  C   C26       1.0  0.19672  0.12756  0.42049  1.0000
  H   H35       1.0  0.20179  0.11420  0.40602  1.0000
  H   H36       1.0  0.17948  0.11404  0.43618  1.0000
  H   H37       1.0  0.21507  0.05108  0.28553  1.0000
  N   N3        1.0  0.22067  0.14787  0.43888  1.0000
  C   C27       1.0  0.23379  0.11627  0.34731  1.0000
  H   H38       1.0  0.19590  0.15187  0.47478  1.0000
  C   C28       1.0  0.23858  0.00260  0.47112  1.0000
  H   H39       1.0  0.23369  0.15422  0.34133  1.0000
  H   H40       1.0  0.23783  0.01291  0.44991  1.0000
  C   C29       1.0  0.23052  0.06758  0.27032  1.0000
  C   C30       1.0  0.23051  0.13361  0.45977  1.0000
  H   H41       1.0  0.23650  0.12067  0.44581  1.0000
  H   H42       1.0  0.23989  0.08659  0.28498  1.0000
  C   C31       1.0  0.01557  0.24024  0.49914  1.0000
  C   C32       1.0  0.00189  0.23485  0.46983  1.0000
  Fe  Fe6       1.0  0.00275  0.23939  0.38551  1.0000
  C   C33       1.0  0.02452  0.32166  0.26391  1.0000
  S   S11       1.0  0.02182  0.31198  0.30421  1.0000
  S   S12       1.0  0.03433  0.26181  0.34838  1.0000
  S   S13       1.0  0.02124  0.24804  0.43504  1.0000
  Fe  Fe7       1.0  0.00334  0.26852  0.32297  1.0000
  H   H43       1.0  0.04904  0.28850  0.27218  1.0000
  Fe  Fe8       1.0  0.01615  0.22198  0.32269  1.0000
  H   H44       1.0  0.03762  0.25244  0.49997  1.0000
  C   C34       1.0  0.21667  0.32234  0.26190  1.0000
  H   H45       1.0  0.01356  0.16558  0.43440  1.0000
  H   H46       1.0  0.05797  0.16665  0.43909  1.0000
  H   H47       1.0  0.18562  0.32932  0.30478  1.0000
  C   C35       1.0  0.22071  0.31132  0.31615  1.0000
  C   C36       1.0  0.06232  0.27986  0.26610  1.0000
  H   H48       1.0  0.17763  0.26935  0.25878  1.0000
  H   H49       1.0  0.01261  0.19417  0.41758  1.0000
  H   H50       1.0  0.05691  0.26255  0.28246  1.0000
  H   H51       1.0  0.08374  0.29589  0.27136  1.0000
  H   H52       1.0  0.18055  0.26133  0.29918  1.0000
  C   C37       1.0  0.19178  0.27550  0.27945  1.0000
  H   H53       1.0  0.16737  0.29460  0.31812  1.0000
  H   H54       1.0  0.07872  0.25596  0.33776  1.0000
  H   H55       1.0  0.06761  0.19076  0.37295  1.0000
  H   H56       1.0  0.16386  0.30231  0.27775  1.0000
  C   C38       1.0  0.17866  0.30782  0.29767  1.0000
  H   H57       1.0  0.02779  0.19761  0.45559  1.0000
  N   N4        1.0  0.20196  0.30426  0.28876  1.0000
  H   H58       1.0  0.05584  0.23415  0.39703  1.0000
  H   H59       1.0  0.03611  0.19088  0.36893  1.0000
  H   H60       1.0  0.08876  0.19580  0.42529  1.0000
  H   H61       1.0  0.08771  0.23522  0.40398  1.0000
  C   C39       1.0  0.04781  0.18464  0.38478  1.0000
  H   H62       1.0  0.06869  0.23771  0.43656  1.0000
  C   C40       1.0  0.06848  0.18922  0.43622  1.0000
  H   H63       1.0  0.07220  0.19863  0.46025  1.0000
  C   C41       1.0  0.06678  0.22739  0.41339  1.0000
  S   S14       1.0  0.04342  0.20808  0.29966  1.0000
  N   N5        1.0  0.05208  0.19734  0.41653  1.0000
  C   C42       1.0  0.08896  0.24453  0.33380  1.0000
  C   C43       1.0  0.11672  0.21574  0.32367  1.0000
  H   H64       1.0  0.12724  0.20439  0.31996  1.0000
  H   H65       1.0  0.08172  0.18854  0.29493  1.0000
  C   C44       1.0  0.07672  0.22087  0.31514  1.0000
  C   C45       1.0  0.09096  0.20682  0.30952  1.0000
  C   C46       1.0  0.12835  0.23890  0.34326  1.0000
  C   C47       1.0  0.02537  0.18816  0.43172  1.0000
  H   H66       1.0  0.12367  0.27165  0.36254  1.0000
  S   S15       1.0  0.15952  0.25022  0.36347  1.0000
  C   C48       1.0  0.11463  0.25352  0.34771  1.0000
  H   H67       1.0  0.20993  0.29873  0.33720  1.0000
  Fe  Fe9       1.0  0.18687  0.23226  0.35499  1.0000
  H   H68       1.0  0.20884  0.27199  0.27285  1.0000
  H   H69       1.0  0.23431  0.32005  0.25462  1.0000
  H   H70       1.0  0.20989  0.26569  0.50177  1.0000
  H   H71       1.0  0.22494  0.34425  0.26812  1.0000
  C   C49       1.0  0.22216  0.25595  0.50044  1.0000
  C   C50       1.0  0.21282  0.16462  0.45832  1.0000
  C   C51       1.0  0.22941  0.25041  0.47055  1.0000
  H   H72       1.0  0.20619  0.17641  0.44322  1.0000
  H   H73       1.0  0.22252  0.25564  0.44913  1.0000
  S   S16       1.0  0.23172  0.26320  0.35832  1.0000
  S   S17       1.0  0.19013  0.21319  0.30990  1.0000
  Fe  Fe10      1.0  0.19766  0.18513  0.34086  1.0000
  S   S18       1.0  0.18971  0.20146  0.38580  1.0000
  Fe  Fe11      1.0  0.23472  0.23069  0.38579  1.0000
  H   H74       1.0  0.23574  0.17638  0.40037  1.0000
  Fe  Fe12      1.0  0.23533  0.24279  0.31422  1.0000
  H   H75       1.0  0.23034  0.17978  0.47290  1.0000
  H   H76       1.0  0.23792  0.30773  0.31075  1.0000
  C   C52       1.0  0.24268  0.16575  0.41695  1.0000
  C   C53       1.0  0.04531  0.34780  0.25495  1.0000
  H   H77       1.0  0.05963  0.36138  0.27264  1.0000
  S   S19       1.0  0.19448  0.99647  0.31296  1.0000
  C   C54       1.0  0.18899  0.06561  0.65613  1.0000
  C   C55       1.0  0.21030  0.07474  0.63435  1.0000
  H   H78       1.0  0.16410  0.07674  0.68396  1.0000
  C   C56       1.0  0.19385  0.11102  0.65683  1.0000
  S   S20       1.0  0.17415  0.03239  0.67185  1.0000
  H   H79       1.0  0.18745  0.12496  0.66552  1.0000
  C   C57       1.0  0.21550  0.12023  0.63544  1.0000
  C   C58       1.0  0.18062  0.08373  0.66714  1.0000
  H   H80       1.0  0.21677  0.06092  0.62548  1.0000
  Fe  Fe13      1.0  0.19369  0.00769  0.65703  1.0000
  C   C59       1.0  0.22356  0.10197  0.62416  1.0000
  C   C60       1.0  0.21742  0.03797  0.73789  1.0000
  S   S21       1.0  0.23910  0.02736  0.65368  1.0000
  Fe  Fe14      1.0  0.23057  0.00041  0.61073  1.0000
  H   H81       1.0  0.21750  0.02819  0.71510  1.0000
  H   H82       1.0  0.21792  0.08215  0.71411  1.0000
  C   C61       1.0  0.23764  0.08223  0.71314  1.0000
  N   N6        1.0  0.24017  0.06651  0.73953  1.0000
  S   S22       1.0  0.23348  0.15440  0.62270  1.0000
  H   H83       1.0  0.23823  0.07334  0.68979  1.0000
  H   H84       1.0  0.24022  0.10897  0.60752  1.0000
  H   H85       1.0  0.19717  0.03676  0.73942  1.0000
  H   H86       1.0  0.01160  0.23452  0.54991  1.0000
  Fe  Fe15      1.0  0.01792  0.22297  0.65774  1.0000
  C   C62       1.0  0.00089  0.23015  0.52744  1.0000
  S   S23       1.0  0.00243  0.24795  0.63265  1.0000
  H   H87       1.0  0.07562  0.16201  0.67549  1.0000
  H   H88       1.0  0.14675  0.25181  0.60308  1.0000
  H   H89       1.0  0.13483  0.24829  0.53290  1.0000
  H   H90       1.0  0.10982  0.23658  0.56388  1.0000
  H   H91       1.0  0.16752  0.23119  0.52969  1.0000
  H   H92       1.0  0.17230  0.26243  0.57281  1.0000
  H   H93       1.0  0.16650  0.20760  0.55835  1.0000
  H   H94       1.0  0.10673  0.21368  0.53242  1.0000
  S   S24       1.0  0.06430  0.24227  0.65880  1.0000
  H   H95       1.0  0.04803  0.18495  0.67007  1.0000
  S   S25       1.0  0.13318  0.18148  0.67201  1.0000
  C   C63       1.0  0.12162  0.23044  0.54808  1.0000
  C   C64       1.0  0.07005  0.19671  0.66813  1.0000
  N   N7        1.0  0.13812  0.22174  0.56669  1.0000
  C   C65       1.0  0.12719  0.22685  0.66322  1.0000
  C   C66       1.0  0.08576  0.18378  0.67126  1.0000
  C   C67       1.0  0.08289  0.22484  0.66276  1.0000
  C   C68       1.0  0.11435  0.19873  0.66862  1.0000
  C   C69       1.0  0.11992  0.19816  0.58662  1.0000
  C   C70       1.0  0.15349  0.21383  0.54499  1.0000
  H   H96       1.0  0.10568  0.18013  0.57205  1.0000
  H   H97       1.0  0.13967  0.19649  0.52931  1.0000
  C   C71       1.0  0.11153  0.23981  0.66043  1.0000
  H   H98       1.0  0.14915  0.23866  0.66109  1.0000
  C   C72       1.0  0.15750  0.24464  0.58710  1.0000
  H   H99       1.0  0.13180  0.19177  0.60199  1.0000
  H   H100      1.0  0.16980  0.23858  0.60211  1.0000
  H   H101      1.0  0.12162  0.26161  0.65641  1.0000
  H   H102      1.0  0.10725  0.20310  0.60245  1.0000
  H   H103      1.0  0.20211  0.25275  0.72621  1.0000
  C   C73       1.0  0.17700  0.20253  0.75195  1.0000
  H   H104      1.0  0.16597  0.19023  0.73060  1.0000
  C   C74       1.0  0.17970  0.24317  0.73007  1.0000
  H   H105      1.0  0.16927  0.23183  0.70809  1.0000
  H   H106      1.0  0.17499  0.25993  0.73311  1.0000
  H   H107      1.0  0.12952  0.20097  0.74051  1.0000
  Fe  Fe16      1.0  0.17765  0.19923  0.65770  1.0000
  H   H108      1.0  0.19926  0.21082  0.74809  1.0000
  C   C75       1.0  0.23101  0.24934  0.52850  1.0000
  Fe  Fe17      1.0  0.23675  0.23422  0.68112  1.0000
  S   S26       1.0  0.22190  0.25716  0.56562  1.0000
  Fe  Fe18      1.0  0.22166  0.23462  0.61026  1.0000
  S   S27       1.0  0.20595  0.18943  0.68503  1.0000
  Fe  Fe19      1.0  0.22141  0.18526  0.63775  1.0000
  S   S28       1.0  0.18994  0.19022  0.61068  1.0000
  S   S29       1.0  0.20735  0.24401  0.65592  1.0000
  H   H109      1.0  0.21885  0.02523  0.75702  1.0000
  H   H110      1.0  0.21941  0.07876  0.77247  1.0000
  C   C76       1.0  0.23906  0.07884  0.77002  1.0000
  H   H111      1.0  0.24081  0.06734  0.79040  1.0000
  H   H112      1.0  0.02906  0.31633  0.89747  1.0000
  C   C77       1.0  0.00706  0.33010  0.94560  1.0000
  H   H113      1.0  0.01443  0.31596  0.95273  1.0000
  N   N8        1.0  0.99881  0.32655  0.91184  1.0000
  H   H114      1.0  0.17082  0.18829  0.77233  1.0000
  C   C78       1.0  0.18571  0.24034  0.78619  1.0000
  H   H115      1.0  0.18173  0.25741  0.79104  1.0000
  N   N9        1.0  0.17085  0.22472  0.75760  1.0000
  C   C79       1.0  0.14110  0.21284  0.76192  1.0000
  H   H116      1.0  0.13563  0.22899  0.76594  1.0000
  H   H117      1.0  0.13358  0.19869  0.78242  1.0000
  H   H118      1.0  0.17964  0.22709  0.80750  1.0000
  H   H119      1.0  0.20824  0.24945  0.78329  1.0000
  H   H120      1.0  0.01625  0.32846  0.86615  1.0000
  C   C80       1.0  0.01365  0.39602  0.97780  1.0000
  H   H121      1.0  0.02368  0.35136  0.95089  1.0000
  H   H122      1.0  0.02822  0.41309  0.96382  1.0000
  C   C81       1.0  0.02203  0.33103  0.89176  1.0000
  H   H123      1.0  0.03970  0.35205  0.89509  1.0000
  H   H124      1.0  0.00660  0.36783  0.90875  1.0000
  S   S30       1.0  0.04372  0.61804  0.13542  1.0000
  Fe  Fe20      1.0  0.08854  0.63324  0.13029  1.0000
  S   S31       1.0  0.11122  0.60897  0.12974  1.0000
  C   C82       1.0  0.09755  0.57297  0.13412  1.0000
  C   C83       1.0  0.07308  0.55643  0.15010  1.0000
  C   C84       1.0  0.06359  0.52827  0.15411  1.0000
  C   C85       1.0  0.07813  0.51606  0.14185  1.0000
  H   H125      1.0  0.06180  0.56544  0.16013  1.0000
  H   H126      1.0  0.04496  0.51589  0.16711  1.0000
  C   C86       1.0  0.99860  0.61839  0.02223  1.0000
  N   N10       1.0  0.03888  0.55379  0.05689  1.0000
  S   S32       1.0  0.02107  0.61646  0.05047  1.0000
  H   H127      1.0  0.08019  0.58551  0.06689  1.0000
  C   C87       1.0  0.05875  0.57938  0.07305  1.0000
  H   H128      1.0  0.05553  0.59659  0.06659  1.0000
  C   C88       1.0  0.01108  0.54519  0.06843  1.0000
  H   H129      1.0  0.00539  0.56109  0.06374  1.0000
  Fe  Fe21      1.0  0.04853  0.64283  0.09143  1.0000
  H   H130      1.0  0.06671  0.53820  0.05586  1.0000
  C   C89       1.0  0.04571  0.53225  0.06382  1.0000
  Fe  Fe22      1.0  0.05533  0.65702  0.16266  1.0000
  H   H131      1.0  0.00953  0.54162  0.09446  1.0000
  H   H132      1.0  0.05686  0.57731  0.09920  1.0000
  H   H133      1.0  0.04495  0.52823  0.08971  1.0000
  H   H134      1.0  0.03127  0.51261  0.05188  1.0000
  C   C90       1.0  0.04001  0.55848  0.02236  1.0000
  H   H135      1.0  0.03478  0.57459  0.01654  1.0000
  H   H136      1.0  0.02532  0.53959  0.00930  1.0000
  S   S33       1.0  0.09348  0.65736  0.08597  1.0000
  H   H137      1.0  0.00385  0.65698  0.03793  1.0000
  H   H138      1.0  0.06079  0.56533  0.01294  1.0000
  H   H139      1.0  0.99549  0.52600  0.05661  1.0000
  C   C91       1.0  0.11201  0.56075  0.12170  1.0000
  H   H140      1.0  0.13100  0.57324  0.10937  1.0000
  C   C92       1.0  0.10229  0.53249  0.12526  1.0000
  H   H141      1.0  0.11380  0.52352  0.11576  1.0000
  H   H142      1.0  0.18131  0.65339  0.12764  1.0000
  C   C93       1.0  0.99737  0.70564  0.25063  1.0000
  S   S34       1.0  0.04345  0.66328  0.21256  1.0000
  S   S35       1.0  0.09992  0.66983  0.16134  1.0000
  H   H143      1.0  0.15345  0.66136  0.16693  1.0000
  C   C94       1.0  0.00751  0.68338  0.20689  1.0000
  H   H144      1.0  0.00345  0.67524  0.18298  1.0000
  Fe  Fe23      1.0  0.10154  0.69292  0.11761  1.0000
  S   S36       1.0  0.05678  0.68063  0.11928  1.0000
  H   H145      1.0  0.10559  0.79522  0.16743  1.0000
  C   C95       1.0  0.02636  0.68068  0.22586  1.0000
  S   S37       1.0  0.13330  0.73848  0.12327  1.0000
  H   H146      1.0  0.16955  0.73623  0.07457  1.0000
  C   C96       1.0  0.07495  0.76194  0.21439  1.0000
  H   H147      1.0  0.12760  0.79452  0.19786  1.0000
  N   N11       1.0  0.09042  0.75633  0.19023  1.0000
  H   H148      1.0  0.12514  0.77874  0.16006  1.0000
  C   C97       1.0  0.16818  0.76067  0.11294  1.0000
  C   C98       1.0  0.18102  0.75467  0.08845  1.0000
  C   C99       1.0  0.18327  0.78545  0.12970  1.0000
  C   C100      1.0  0.10148  0.73996  0.20443  1.0000
  H   H149      1.0  0.17367  0.79052  0.14857  1.0000
  H   H150      1.0  0.11275  0.73485  0.18663  1.0000
  C   C101      1.0  0.11318  0.78238  0.17844  1.0000
  C   C102      1.0  0.07204  0.74095  0.16355  1.0000
  H   H151      1.0  0.08337  0.73738  0.14434  1.0000
  H   H152      1.0  0.05534  0.72060  0.17128  1.0000
  H   H153      1.0  0.06245  0.75214  0.15297  1.0000
  C   C103      1.0  0.21082  0.80395  0.12230  1.0000
  H   H154      1.0  0.06654  0.77451  0.20462  1.0000
  H   H155      1.0  0.05734  0.74268  0.22328  1.0000
  C   C104      1.0  0.20863  0.77315  0.08112  1.0000
  H   H156      1.0  0.14761  0.66570  0.10971  1.0000
  H   H157      1.0  0.15279  0.69925  0.11730  1.0000
  H   H158      1.0  0.08490  0.72028  0.21388  1.0000
  H   H159      1.0  0.11580  0.75106  0.22432  1.0000
  H   H160      1.0  0.16026  0.69555  0.17438  1.0000
  H   H161      1.0  0.22209  0.82293  0.13539  1.0000
  C   C105      1.0  0.22372  0.79796  0.09789  1.0000
  H   H162      1.0  0.08803  0.77311  0.23518  1.0000
  C   C106      1.0  0.16345  0.68767  0.11188  1.0000
  C   C107      1.0  0.16990  0.68326  0.16760  1.0000
  H   H163      1.0  0.19555  0.73418  0.14437  1.0000
  H   H164      1.0  0.17318  0.69449  0.08828  1.0000
  H   H165      1.0  0.21830  0.76847  0.06194  1.0000
  H   H166      1.0  0.21223  0.67832  0.14713  1.0000
  H   H167      1.0  0.20726  0.68157  0.10563  1.0000
  C   C108      1.0  0.19676  0.67562  0.12893  1.0000
  H   H168      1.0  0.18446  0.68566  0.18683  1.0000
  H   H169      1.0  0.21529  0.72881  0.11515  1.0000
  H   H170      1.0  0.22063  0.72538  0.15649  1.0000
  C   C109      1.0  0.20474  0.72131  0.13827  1.0000
  N   N12       1.0  0.18376  0.69200  0.13668  1.0000
  C   C110      1.0  0.00364  0.72666  0.49290  1.0000
  C   C111      1.0  0.02446  0.79875  0.45849  1.0000
  Fe  Fe24      1.0  0.01399  0.78589  0.35911  1.0000
  S   S38       1.0  0.00184  0.74140  0.35630  1.0000
  S   S39       1.0  0.05746  0.81388  0.37578  1.0000
  H   H171      1.0  0.02555  0.80045  0.43223  1.0000
  H   H172      1.0  0.00068  0.72017  0.44218  1.0000
  H   H173      1.0  0.01012  0.77698  0.46422  1.0000
  N   N13       1.0  0.05180  0.80838  0.47251  1.0000
  H   H174      1.0  0.01520  0.81086  0.46722  1.0000
  H   H175      1.0  0.02413  0.72984  0.49456  1.0000
  C   C112      1.0  0.06347  0.79212  0.45949  1.0000
  H   H176      1.0  0.06598  0.79443  0.43334  1.0000
  H   H177      1.0  0.05004  0.77000  0.46415  1.0000
  C   C113      1.0  0.03111  0.69116  0.25700  1.0000
  H   H178      1.0  0.02116  0.71210  0.29306  1.0000
  H   H179      1.0  0.08388  0.79844  0.46997  1.0000
  C   C114      1.0  0.01710  0.70402  0.26915  1.0000
  H   H180      1.0  0.04568  0.68925  0.27188  1.0000
  C   C115      1.0  0.13193  0.94317  0.50305  1.0000
  H   H181      1.0  0.11580  0.92160  0.49868  1.0000
  C   C116      1.0  0.06984  0.83747  0.46456  1.0000
  H   H182      1.0  0.07177  0.84045  0.43837  1.0000
  C   C117      1.0  0.07523  0.84864  0.36507  1.0000
  C   C118      1.0  0.06236  0.86059  0.34871  1.0000
  C   C119      1.0  0.07710  0.88852  0.34107  1.0000
  H   H183      1.0  0.04108  0.84838  0.34196  1.0000
  H   H184      1.0  0.06708  0.89770  0.32838  1.0000
  C   C120      1.0  0.10478  0.90458  0.34954  1.0000
  S   S40       1.0  0.12265  0.93955  0.33959  1.0000
  H   H185      1.0  0.06168  0.85037  0.47395  1.0000
  H   H186      1.0  0.23287  0.94269  0.49528  1.0000
  C   C121      1.0  0.11758  0.89260  0.36603  1.0000
  H   H187      1.0  0.13996  0.95275  0.47955  1.0000
  H   H188      1.0  0.13883  0.90481  0.37280  1.0000
  C   C122      1.0  0.23451  0.97612  0.46904  1.0000
  H   H189      1.0  0.11290  0.85559  0.38644  1.0000
  C   C123      1.0  0.23579  0.96309  0.49674  1.0000
  Fe  Fe25      1.0  0.22383  0.98070  0.31767  1.0000
  S   S41       1.0  0.19564  0.94562  0.34878  1.0000
  C   C124      1.0  0.10282  0.86474  0.37384  1.0000
  H   H190      1.0  0.17606  0.94001  0.48485  1.0000
  H   H191      1.0  0.23175  0.92727  0.28517  1.0000
  S   S42       1.0  0.22780  0.95870  0.43233  1.0000
  H   H192      1.0  0.09077  0.84537  0.47433  1.0000
  Fe  Fe26      1.0  0.16825  0.96376  0.34771  1.0000
  Fe  Fe27      1.0  0.21562  0.97474  0.38986  1.0000
  S   S43       1.0  0.18651  0.99091  0.39063  1.0000
  H   H193      1.0  0.15156  0.90863  0.50335  1.0000
  S   S44       1.0  0.99323  0.78579  0.31350  1.0000
  C   C125      1.0  0.99292  0.69550  0.21935  1.0000
  C   C126      1.0  0.99371  0.64031  0.02116  1.0000
  S   S45       1.0  0.01751  0.75929  0.64514  1.0000
  Fe  Fe28      1.0  0.00149  0.78825  0.64772  1.0000
  H   H194      1.0  0.01732  0.78164  0.70735  1.0000
  S   S46       1.0  0.00872  0.73627  0.55680  1.0000
  H   H195      1.0  0.06589  0.82195  0.62448  1.0000
  H   H196      1.0  0.02367  0.80929  0.73310  1.0000
  C   C127      1.0  0.02492  0.79027  0.73128  1.0000
  H   H197      1.0  0.01046  0.77516  0.74858  1.0000
  N   N14       1.0  0.05309  0.79569  0.73608  1.0000
  H   H198      1.0  0.03608  0.78339  0.51402  1.0000
  H   H199      1.0  0.04036  0.81685  0.51797  1.0000
  C   C128      1.0  0.04942  0.80517  0.50731  1.0000
  H   H200      1.0  0.06414  0.80669  0.68747  1.0000
  H   H201      1.0  0.03990  0.75458  0.75099  1.0000
  C   C129      1.0  0.05345  0.76980  0.73317  1.0000
  C   C130      1.0  0.07105  0.81509  0.71180  1.0000
  H   H202      1.0  0.04583  0.76012  0.70947  1.0000
  H   H203      1.0  0.09257  0.81984  0.71453  1.0000
  H   H204      1.0  0.06963  0.81224  0.51880  1.0000
  H   H205      1.0  0.07438  0.77299  0.73640  1.0000
  S   S47       1.0  0.02894  0.83276  0.66232  1.0000
  H   H206      1.0  0.07093  0.83472  0.71300  1.0000
  H   H207      1.0  0.12202  0.95392  0.51407  1.0000
  C   C131      1.0  0.06377  0.85319  0.65150  1.0000
  C   C132      1.0  0.07871  0.88028  0.66267  1.0000
  H   H208      1.0  0.06859  0.88852  0.67690  1.0000
  C   C133      1.0  0.07709  0.84277  0.63318  1.0000
  C   C134      1.0  0.10671  0.89681  0.65576  1.0000
  H   H209      1.0  0.11796  0.91758  0.66461  1.0000
  H   H210      1.0  0.13341  0.94251  0.56727  1.0000
  H   H211      1.0  0.12676  0.91006  0.55173  1.0000
  N   N15       1.0  0.15400  0.94482  0.52349  1.0000
  C   C135      1.0  0.14268  0.93194  0.55439  1.0000
  H   H212      1.0  0.15890  0.93264  0.57010  1.0000
  H   H213      1.0  0.19152  0.97577  0.54440  1.0000
  C   C136      1.0  0.17485  0.97380  0.52858  1.0000
  S   S48       1.0  0.22996  0.96634  0.63904  1.0000
  S   S49       1.0  0.18529  0.98363  0.61203  1.0000
  Fe  Fe29      1.0  0.18449  0.95057  0.64221  1.0000
  S   S50       1.0  0.15539  0.90596  0.62868  1.0000
  C   C137      1.0  0.12009  0.88630  0.63769  1.0000
  C   C138      1.0  0.10511  0.85925  0.62639  1.0000
  H   H214      1.0  0.11530  0.85092  0.61247  1.0000
  S   S51       1.0  0.18879  0.97314  0.68765  1.0000
  Fe  Fe30      1.0  0.23450  0.99201  0.68255  1.0000
  C   C139      1.0  0.24058  0.97621  0.52643  1.0000
  H   H215      1.0  0.16608  0.98547  0.53996  1.0000
  H   H216      1.0  0.18319  0.93107  0.52308  1.0000
  C   C140      1.0  0.16671  0.93048  0.50796  1.0000
  H   H217      1.0  0.18444  0.98409  0.50592  1.0000
  H   H218      1.0  0.24147  0.96599  0.54766  1.0000
  C   C141      1.0  0.06279  0.80757  0.76797  1.0000
  H   H219      1.0  0.04950  0.79341  0.78675  1.0000
  H   H220      1.0  0.06269  0.82712  0.77081  1.0000
  H   H221      1.0  0.08401  0.81190  0.77243  1.0000
  H   H222      1.0  0.28211  0.10314  0.25364  1.0000
  H   H223      1.0  0.28767  0.07945  0.23078  1.0000
  C   C142      1.0  0.27167  0.08378  0.23966  1.0000
  H   H224      1.0  0.26191  0.08741  0.21871  1.0000
  H   H225      1.0  0.25316  0.02995  0.23118  1.0000
  H   H226      1.0  0.38345  0.99884  0.06872  1.0000
  H   H227      1.0  0.43381  0.01128  0.03005  1.0000
  H   H228      1.0  0.34612  0.01641  0.03800  1.0000
  H   H229      1.0  0.41805  0.01977  0.08208  1.0000
  C   C143      1.0  0.40079  0.99840  0.08068  1.0000
  C   C144      1.0  0.34668  0.00290  0.02015  1.0000
  H   H230      1.0  0.45007  0.00161  0.08065  1.0000
  C   C145      1.0  0.26637  0.30084  0.22048  1.0000
  H   H231      1.0  0.25491  0.28354  0.20480  1.0000
  H   H232      1.0  0.30954  0.32099  0.15222  1.0000
  C   C146      1.0  0.27860  0.32756  0.20823  1.0000
  C   C147      1.0  0.26870  0.29628  0.25281  1.0000
  H   H233      1.0  0.32790  0.31266  0.20066  1.0000
  H   H234      1.0  0.34150  0.30276  0.14773  1.0000
  C   C148      1.0  0.35881  0.32420  0.14759  1.0000
  H   H235      1.0  0.37700  0.32425  0.15781  1.0000
  H   H236      1.0  0.27614  0.33067  0.18345  1.0000
  H   H237      1.0  0.33133  0.34760  0.12554  1.0000
  H   H238      1.0  0.25723  0.46772  0.07523  1.0000
  S   S52       1.0  0.29444  0.37480  0.11991  1.0000
  Fe  Fe31      1.0  0.28920  0.41076  0.10663  1.0000
  S   S53       1.0  0.30920  0.43483  0.15081  1.0000
  S   S54       1.0  0.31250  0.38405  0.21336  1.0000
  C   C149      1.0  0.29416  0.35008  0.22802  1.0000
  Fe  Fe32      1.0  0.31664  0.40014  0.16270  1.0000
  Fe  Fe33      1.0  0.34869  0.45343  0.12323  1.0000
  S   S55       1.0  0.35795  0.42110  0.13928  1.0000
  Fe  Fe34      1.0  0.33538  0.39726  0.09556  1.0000
  S   S56       1.0  0.32825  0.43077  0.07824  1.0000
  H   H239      1.0  0.31621  0.35710  0.02406  1.0000
  C   C150      1.0  0.33248  0.35358  0.01650  1.0000
  H   H240      1.0  0.29559  0.46065  0.06256  1.0000
  S   S57       1.0  0.25048  0.40705  0.08393  1.0000
  H   H241      1.0  0.28415  0.46160  0.11808  1.0000
  H   H242      1.0  0.32296  0.35618  0.16311  1.0000
  C   C151      1.0  0.32788  0.34173  0.15095  1.0000
  C   C152      1.0  0.29761  0.48415  0.11862  1.0000
  C   C153      1.0  0.30949  0.48320  0.06406  1.0000
  H   H243      1.0  0.31811  0.48862  0.12725  1.0000
  H   H244      1.0  0.31114  0.49153  0.03984  1.0000
  H   H245      1.0  0.33007  0.48683  0.07114  1.0000
  H   H246      1.0  0.28913  0.49241  0.13645  1.0000
  C   C154      1.0  0.27180  0.49012  0.07696  1.0000
  N   N16       1.0  0.29928  0.49581  0.08693  1.0000
  H   H247      1.0  0.24364  0.42960  0.14430  1.0000
  H   H248      1.0  0.41938  0.49183  0.14332  1.0000
  H   H249      1.0  0.36337  0.33060  0.12233  1.0000
  H   H250      1.0  0.34144  0.34746  0.21297  1.0000
  C   C155      1.0  0.34603  0.33355  0.19882  1.0000
  H   H251      1.0  0.37990  0.37853  0.13969  1.0000
  C   C156      1.0  0.37539  0.37078  0.16448  1.0000
  N   N17       1.0  0.35205  0.34254  0.16549  1.0000
  H   H252      1.0  0.39423  0.37215  0.17459  1.0000
  H   H253      1.0  0.37106  0.38501  0.17834  1.0000
  H   H254      1.0  0.36360  0.33335  0.21047  1.0000
  S   S58       1.0  0.35988  0.37960  0.07233  1.0000
  C   C157      1.0  0.35571  0.36244  0.03559  1.0000
  C   C158      1.0  0.37652  0.35744  0.02544  1.0000
  H   H255      1.0  0.39451  0.36407  0.04011  1.0000
  C   C159      1.0  0.24435  0.01608  0.50066  1.0000
  H   H256      1.0  0.29208  0.99690  0.35268  1.0000
  N   N18       1.0  0.25133  0.06101  0.25904  1.0000
  H   H257      1.0  0.24804  0.03678  0.50204  1.0000
  H   H258      1.0  0.25042  0.04005  0.30166  1.0000
  C   C160      1.0  0.26519  0.05702  0.28656  1.0000
  H   H259      1.0  0.28083  0.05170  0.27905  1.0000
  H   H260      1.0  0.27523  0.07556  0.30196  1.0000
  H   H261      1.0  0.25573  0.12621  0.35022  1.0000
  S   S59       1.0  0.24584  0.00826  0.35900  1.0000
  H   H262      1.0  0.24870  0.14841  0.47385  1.0000
  H   H263      1.0  0.24967  0.15397  0.40243  1.0000
  S   S60       1.0  0.25414  0.26213  0.26646  1.0000
  C   C161      1.0  0.25563  0.23291  0.49654  1.0000
  H   H264      1.0  0.26920  0.22462  0.49524  1.0000
  S   S61       1.0  0.25730  0.23317  0.43142  1.0000
  C   C162      1.0  0.28354  0.31882  0.27280  1.0000
  H   H265      1.0  0.28598  0.31566  0.29760  1.0000
  C   C163      1.0  0.24651  0.23920  0.46848  1.0000
  H   H266      1.0  0.26075  0.18196  0.42998  1.0000
  C   C164      1.0  0.29628  0.34552  0.26041  1.0000
  H   H267      1.0  0.30833  0.36277  0.27594  1.0000
  S   S62       1.0  0.24299  0.21298  0.34191  1.0000
  C   C165      1.0  0.31116  0.02083  0.72427  1.0000
  C   C166      1.0  0.28971  0.01602  0.74455  1.0000
  C   C167      1.0  0.26646  0.06694  0.73708  1.0000
  C   C168      1.0  0.33808  0.03232  0.73626  1.0000
  H   H268      1.0  0.26767  0.05723  0.71458  1.0000
  S   S63       1.0  0.25236  0.02050  0.56507  1.0000
  H   H269      1.0  0.30695  0.01516  0.69951  1.0000
  H   H270      1.0  0.28413  0.08811  0.73770  1.0000
  S   S64       1.0  0.25506  0.00004  0.73161  1.0000
  C   C169      1.0  0.24512  0.00287  0.52846  1.0000
  H   H271      1.0  0.25439  0.10389  0.71337  1.0000
  H   H272      1.0  0.35441  0.03543  0.72046  1.0000
  H   H273      1.0  0.48056  0.07894  0.73462  1.0000
  C   C170      1.0  0.49166  0.09869  0.74776  1.0000
  H   H274      1.0  0.45319  0.11353  0.74490  1.0000
  H   H275      1.0  0.43685  0.07701  0.74907  1.0000
  S   S65       1.0  0.25423  0.25509  0.72904  1.0000
  S   S66       1.0  0.25429  0.22958  0.63502  1.0000
  H   H276      1.0  0.25467  0.23249  0.54781  1.0000
  C   C171      1.0  0.24746  0.23740  0.52640  1.0000
  C   C172      1.0  0.28722  0.26583  0.74536  1.0000
  C   C173      1.0  0.30810  0.26588  0.72761  1.0000
  H   H277      1.0  0.30427  0.25894  0.70322  1.0000
  H   H278      1.0  0.35037  0.27611  0.72697  1.0000
  C   C174      1.0  0.33425  0.27562  0.74119  1.0000
  H   H279      1.0  0.26909  0.05535  0.75672  1.0000
  H   H280      1.0  0.31010  0.01124  0.86120  1.0000
  H   H281      1.0  0.27924  0.01995  0.79260  1.0000
  C   C175      1.0  0.29565  0.02348  0.77671  1.0000
  C   C176      1.0  0.32261  0.03545  0.78854  1.0000
  S   S67       1.0  0.38533  0.13737  0.89728  1.0000
  H   H282      1.0  0.32684  0.04135  0.81320  1.0000
  C   C177      1.0  0.34396  0.03955  0.76847  1.0000
  H   H283      1.0  0.25592  0.10040  0.77206  1.0000
  H   H284      1.0  0.32354  0.00324  0.89551  1.0000
  C   C178      1.0  0.44936  0.09686  0.76166  1.0000
  C   C179      1.0  0.49069  0.12609  0.79122  1.0000
  H   H285      1.0  0.34448  0.00803  0.82820  1.0000
  H   H286      1.0  0.43637  0.09746  0.78101  1.0000
  H   H287      1.0  0.48289  0.05462  0.86312  1.0000
  H   H288      1.0  0.36469  0.03458  0.98462  1.0000
  H   H289      1.0  0.45748  0.07810  0.81718  1.0000
  N   N19       1.0  0.47513  0.09971  0.77421  1.0000
  C   C180      1.0  0.46886  0.07714  0.79629  1.0000
  S   S68       1.0  0.36644  0.06429  0.87496  1.0000
  Fe  Fe35      1.0  0.40051  0.10712  0.88699  1.0000
  S   S69       1.0  0.42512  0.10997  0.84405  1.0000
  Fe  Fe36      1.0  0.39027  0.04934  0.90326  1.0000
  S   S70       1.0  0.41405  0.04889  0.86060  1.0000
  Fe  Fe37      1.0  0.44509  0.09176  0.87436  1.0000
  Fe  Fe38      1.0  0.39226  0.06671  0.83371  1.0000
  S   S71       1.0  0.37799  0.05279  0.78282  1.0000
  S   S72       1.0  0.42257  0.09179  0.91868  1.0000
  S   S73       1.0  0.37052  0.00761  0.92770  1.0000
  C   C181      1.0  0.35726  0.01329  0.98989  1.0000
  H   H290      1.0  0.47865  0.12770  0.81109  1.0000
  S   S74       1.0  0.49183  0.11049  0.87143  1.0000
  H   H291      1.0  0.45618  0.05680  0.78485  1.0000
  H   H292      1.0  0.48784  0.07824  0.80560  1.0000
  H   H293      1.0  0.35750  0.99917  0.86212  1.0000
  C   C182      1.0  0.35795  0.99605  0.96652  1.0000
  H   H294      1.0  0.27677  0.27524  0.79096  1.0000
  C   C183      1.0  0.29271  0.27511  0.77701  1.0000
  H   H295      1.0  0.34911  0.21113  0.76055  1.0000
  H   H296      1.0  0.36912  0.24742  0.76563  1.0000
  H   H297      1.0  0.38585  0.22785  0.76004  1.0000
  H   H298      1.0  0.39630  0.26706  0.81394  1.0000
  H   H299      1.0  0.39444  0.24555  0.84599  1.0000
  H   H300      1.0  0.36200  0.17180  0.90582  1.0000
  H   H301      1.0  0.38483  0.19714  0.80322  1.0000
  H   H302      1.0  0.34813  0.18038  0.80336  1.0000
  H   H303      1.0  0.36722  0.19473  0.83926  1.0000
  H   H304      1.0  0.34437  0.22194  0.84672  1.0000
  H   H305      1.0  0.32515  0.20800  0.81067  1.0000
  H   H306      1.0  0.34538  0.24425  0.81596  1.0000
  C   C184      1.0  0.31877  0.28457  0.79070  1.0000
  C   C185      1.0  0.40019  0.17365  0.89543  1.0000
  C   C186      1.0  0.38342  0.18515  0.90072  1.0000
  C   C187      1.0  0.39413  0.21372  0.90006  1.0000
  C   C188      1.0  0.34479  0.22456  0.82055  1.0000
  H   H307      1.0  0.38098  0.22210  0.90478  1.0000
  C   C189      1.0  0.36813  0.22774  0.77159  1.0000
  N   N20       1.0  0.36849  0.22426  0.80627  1.0000
  C   C190      1.0  0.39402  0.24686  0.81976  1.0000
  C   C191      1.0  0.42196  0.23132  0.89445  1.0000
  H   H308      1.0  0.41237  0.24670  0.81061  1.0000
  Fe  Fe39      1.0  0.38855  0.31057  0.83917  1.0000
  S   S75       1.0  0.37214  0.28071  0.87932  1.0000
  S   S76       1.0  0.37336  0.29780  0.78830  1.0000
  Fe  Fe40      1.0  0.41608  0.29341  0.88938  1.0000
  S   S77       1.0  0.43686  0.26766  0.89476  1.0000
  C   C192      1.0  0.33981  0.28518  0.77272  1.0000
  H   H309      1.0  0.32269  0.29186  0.81495  1.0000
  C   C193      1.0  0.36707  0.19796  0.81326  1.0000
  Fe  Fe41      1.0  0.37986  0.31731  0.90935  1.0000
  S   S78       1.0  0.43243  0.32189  0.84778  1.0000
  C   C194      1.0  0.43873  0.21986  0.88903  1.0000
  S   S79       1.0  0.42232  0.32733  0.92305  1.0000
  S   S80       1.0  0.34737  0.31844  0.94030  1.0000
  H   H310      1.0  0.47415  0.31890  0.93793  1.0000
  H   H311      1.0  0.48085  0.32351  0.88012  1.0000
  C   C195      1.0  0.42792  0.19124  0.88928  1.0000
  H   H312      1.0  0.46030  0.23317  0.88482  1.0000
  H   H313      1.0  0.44116  0.18281  0.88535  1.0000
  H   H314      1.0  0.35802  0.40246  0.91047  1.0000
  H   H315      1.0  0.31194  0.33281  0.97322  1.0000
  C   C196      1.0  0.33010  0.33977  0.98768  1.0000
  H   H316      1.0  0.39967  0.37468  0.94355  1.0000
  H   H317      1.0  0.48552  0.35727  0.88367  1.0000
  H   H318      1.0  0.39041  0.34013  0.98912  1.0000
  C   C197      1.0  0.35103  0.33501  0.97739  1.0000
  S   S81       1.0  0.39351  0.34628  0.86814  1.0000
  C   C198      1.0  0.49069  0.34061  0.94093  1.0000
  H   H319      1.0  0.48082  0.35342  0.94185  1.0000
  H   H320      1.0  0.40071  0.44746  0.91433  1.0000
  H   H321      1.0  0.35763  0.37227  0.92406  1.0000
  H   H322      1.0  0.43034  0.40707  0.94912  1.0000
  H   H323      1.0  0.37560  0.38854  0.88861  1.0000
  Fe  Fe42      1.0  0.43602  0.35497  0.88055  1.0000
  H   H324      1.0  0.43138  0.44945  0.92982  1.0000
  C   C199      1.0  0.37429  0.34392  0.99648  1.0000
  N   N21       1.0  0.39571  0.40953  0.93176  1.0000
  C   C200      1.0  0.41221  0.43628  0.91629  1.0000
  C   C201      1.0  0.41191  0.39562  0.93384  1.0000
  S   S82       1.0  0.46977  0.39899  0.89184  1.0000
  H   H325      1.0  0.41911  0.39353  0.91011  1.0000
  C   C202      1.0  0.37068  0.39254  0.91286  1.0000
  H   H326      1.0  0.37584  0.42406  0.96334  1.0000
  H   H327      1.0  0.41824  0.43381  0.89191  1.0000
  H   H328      1.0  0.40643  0.42604  0.97910  1.0000
  H   H329      1.0  0.37557  0.39383  0.97612  1.0000
  C   C203      1.0  0.38811  0.41364  0.96395  1.0000
  H   H330      1.0  0.32014  0.53520  0.06474  1.0000
  C   C204      1.0  0.31827  0.52562  0.08826  1.0000
  H   H331      1.0  0.31126  0.53572  0.10553  1.0000
  H   H332      1.0  0.33915  0.53034  0.09579  1.0000
  H   H333      1.0  0.27225  0.49898  0.05333  1.0000
  H   H334      1.0  0.26301  0.49856  0.09420  1.0000
  C   C205      1.0  0.41154  0.52199  0.12269  1.0000
  C   C206      1.0  0.42361  0.54964  0.11381  1.0000
  C   C207      1.0  0.45181  0.56803  0.11863  1.0000
  C   C208      1.0  0.46837  0.55908  0.13277  1.0000
  C   C209      1.0  0.45638  0.53137  0.14130  1.0000
  C   C210      1.0  0.42824  0.51293  0.13621  1.0000
  H   H335      1.0  0.41100  0.55701  0.10342  1.0000
  H   H336      1.0  0.46059  0.58924  0.11199  1.0000
  H   H337      1.0  0.46889  0.52415  0.15231  1.0000
  S   S83       1.0  0.37558  0.49992  0.11689  1.0000
  H   H338      1.0  0.47768  0.52935  0.04396  1.0000
  H   H339      1.0  0.48725  0.57620  0.03313  1.0000
  H   H340      1.0  0.49161  0.53966  0.08311  1.0000
  S   S84       1.0  0.25848  0.82052  0.08757  1.0000
  C   C211      1.0  0.25448  0.91704  0.25212  1.0000
  Fe  Fe43      1.0  0.28781  0.86344  0.10755  1.0000
  Fe  Fe44      1.0  0.30142  0.90330  0.16250  1.0000
  S   S85       1.0  0.28392  0.90346  0.21151  1.0000
  S   S86       1.0  0.27646  0.89563  0.11797  1.0000
  C   C212      1.0  0.27314  0.92589  0.22685  1.0000
  C   C213      1.0  0.28388  0.95268  0.21604  1.0000
  H   H341      1.0  0.29832  0.95982  0.19673  1.0000
  Fe  Fe45      1.0  0.31628  0.92534  0.09430  1.0000
  S   S87       1.0  0.31164  0.86991  0.15291  1.0000
  S   S88       1.0  0.34031  0.93517  0.13994  1.0000
  Fe  Fe46      1.0  0.34878  0.90138  0.12638  1.0000
  S   S89       1.0  0.32463  0.96368  0.06655  1.0000
  S   S90       1.0  0.32569  0.89261  0.08001  1.0000
  C   C214      1.0  0.33689  0.97527  0.02758  1.0000
  C   C215      1.0  0.27660  0.97053  0.23089  1.0000
  H   H342      1.0  0.36749  0.95077  0.05001  1.0000
  C   C216      1.0  0.33759  0.95804  0.00417  1.0000
  H   H343      1.0  0.32985  0.93668  0.00933  1.0000
  H   H344      1.0  0.28556  0.99136  0.22272  1.0000
  H   H345      1.0  0.37803  0.94501  0.08750  1.0000
  C   C217      1.0  0.38519  0.95224  0.06314  1.0000
  H   H346      1.0  0.39888  0.99015  0.01787  1.0000
  H   H347      1.0  0.39404  0.99110  0.10528  1.0000
  H   H348      1.0  0.47844  0.90923  0.20061  1.0000
  C   C218      1.0  0.41614  0.99009  0.03070  1.0000
  H   H349      1.0  0.48513  0.92219  0.11879  1.0000
  N   N22       1.0  0.40854  0.98042  0.06359  1.0000
  H   H350      1.0  0.39053  0.93761  0.05217  1.0000
  H   H351      1.0  0.43779  0.96685  0.06818  1.0000
  S   S91       1.0  0.47890  0.87182  0.14719  1.0000
  S   S92       1.0  0.39503  0.91580  0.12452  1.0000
  C   C219      1.0  0.45561  0.88383  0.13911  1.0000
  C   C220      1.0  0.42801  0.86764  0.14788  1.0000
  C   C221      1.0  0.40905  0.87674  0.14315  1.0000
  C   C222      1.0  0.41753  0.90242  0.12997  1.0000
  C   C223      1.0  0.44518  0.91868  0.12138  1.0000
  C   C224      1.0  0.46404  0.90943  0.12569  1.0000
  H   H352      1.0  0.42118  0.84783  0.15835  1.0000
  H   H353      1.0  0.38795  0.86397  0.14999  1.0000
  H   H354      1.0  0.45209  0.93859  0.11121  1.0000
  H   H355      1.0  0.42656  0.97356  0.10491  1.0000
  H   H356      1.0  0.42170  0.97670  0.01704  1.0000
  C   C225      1.0  0.43186  0.98075  0.08000  1.0000
  H   H357      1.0  0.29513  0.97074  0.30813  1.0000
  H   H358      1.0  0.24589  0.89629  0.26048  1.0000
  H   H359      1.0  0.32106  0.96715  0.32857  1.0000
  H   H360      1.0  0.27993  0.93717  0.40140  1.0000
  H   H361      1.0  0.28246  0.91802  0.36877  1.0000
  H   H362      1.0  0.29076  0.93746  0.31405  1.0000
  H   H363      1.0  0.31244  0.94811  0.38308  1.0000
  C   C226      1.0  0.24664  0.93467  0.26640  1.0000
  H   H364      1.0  0.25048  0.95535  0.33362  1.0000
  C   C227      1.0  0.29861  0.95790  0.32541  1.0000
  C   C228      1.0  0.29522  0.98352  0.36943  1.0000
  N   N23       1.0  0.28485  0.95589  0.35586  1.0000
  C   C229      1.0  0.25811  0.96173  0.25629  1.0000
  S   S93       1.0  0.25137  0.98580  0.27561  1.0000
  H   H365      1.0  0.24646  0.92219  0.34005  1.0000
  C   C230      1.0  0.25515  0.94307  0.35038  1.0000
  H   H366      1.0  0.28446  0.98278  0.39185  1.0000
  C   C231      1.0  0.29020  0.93905  0.37827  1.0000
  H   H367      1.0  0.31746  0.99362  0.37481  1.0000
  H   H368      1.0  0.24406  0.94125  0.37284  1.0000
  H   H369      1.0  0.48222  0.90128  0.25759  1.0000
  H   H370      1.0  0.29520  0.98027  0.81423  1.0000
  H   H371      1.0  0.34642  0.97732  0.82790  1.0000
  C   C232      1.0  0.29378  0.96391  0.83010  1.0000
  H   H372      1.0  0.27250  0.95251  0.83917  1.0000
  C   C233      1.0  0.34177  0.99062  0.84302  1.0000
  C   C234      1.0  0.31165  0.95304  0.87648  1.0000
  C   C235      1.0  0.30858  0.99410  0.87560  1.0000
  H   H373      1.0  0.29092  0.94111  0.88695  1.0000
  H   H374      1.0  0.31584  0.93865  0.86285  1.0000
  H   H375      1.0  0.34841  0.95481  0.95600  1.0000
  H   H376      1.0  0.28786  0.98327  0.88625  1.0000
  H   H377      1.0  0.29714  0.94961  0.81514  1.0000
  N   N24       1.0  0.31393  0.97541  0.85629  1.0000
  C   C236      1.0  0.34805  0.96839  0.97387  1.0000
  H   H378      1.0  0.32652  0.96111  0.89658  1.0000
  H   H379      1.0  0.72704  0.11601  0.02542  1.0000
  C   C237      1.0  0.74012  0.13113  0.00727  1.0000
  H   H380      1.0  0.74073  0.15073  0.01271  1.0000
  H   H381      1.0  0.66833  0.01446  0.00727  1.0000
  C   C238      1.0  0.64673  0.00701  0.00416  1.0000
  C   C239      1.0  0.73620  0.01705  0.46651  1.0000
  H   H382      1.0  0.57164  0.03045  0.73863  1.0000
  H   H383      1.0  0.57341  0.99953  0.73804  1.0000
  C   C240      1.0  0.58550  0.02200  0.74216  1.0000
  H   H384      1.0  0.49671  0.11541  0.73054  1.0000
  H   H385      1.0  0.60151  0.03077  0.72353  1.0000
  H   H386      1.0  0.71812  0.04403  0.70246  1.0000
  C   C241      1.0  0.71035  0.03973  0.72639  1.0000
  H   H387      1.0  0.70390  0.07425  0.72902  1.0000
  C   C242      1.0  0.70811  0.01695  0.74210  1.0000
  C   C243      1.0  0.70223  0.05682  0.74155  1.0000
  Fe  Fe47      1.0  0.73853  0.99683  0.67672  1.0000
  H   H388      1.0  0.56473  0.48041  0.74821  1.0000
  H   H389      1.0  0.51128  0.10088  0.75654  1.0000
  H   H390      1.0  0.49637  0.14373  0.77529  1.0000
  H   H391      1.0  0.56230  0.02540  0.79675  1.0000
  H   H392      1.0  0.60074  0.06793  0.77643  1.0000
  C   C244      1.0  0.57606  0.01663  0.79828  1.0000
  S   S94       1.0  0.57426  0.06355  0.85852  1.0000
  C   C245      1.0  0.51416  0.09654  0.87013  1.0000
  C   C246      1.0  0.50461  0.06870  0.86501  1.0000
  C   C247      1.0  0.52327  0.05904  0.86187  1.0000
  C   C248      1.0  0.55171  0.07683  0.86460  1.0000
  C   C249      1.0  0.56120  0.10458  0.87031  1.0000
  C   C250      1.0  0.54258  0.11434  0.87272  1.0000
  H   H393      1.0  0.51558  0.03753  0.85754  1.0000
  H   H394      1.0  0.58293  0.11864  0.87234  1.0000
  H   H395      1.0  0.55032  0.13591  0.87671  1.0000
  H   H396      1.0  0.58470  0.02108  0.82273  1.0000
  H   H397      1.0  0.50978  0.12842  0.80204  1.0000
  H   H398      1.0  0.70109  0.13632  0.97645  1.0000
  H   H399      1.0  0.63268  0.02530  0.75980  1.0000
  Fe  Fe48      1.0  0.61946  0.07916  0.87146  1.0000
  H   H400      1.0  0.63060  0.06815  0.76089  1.0000
  N   N25       1.0  0.72948  0.12139  0.97495  1.0000
  N   N26       1.0  0.59785  0.02845  0.77419  1.0000
  H   H401      1.0  0.62353  0.06389  0.80228  1.0000
  C   C251      1.0  0.61380  0.05841  0.77848  1.0000
  C   C252      1.0  0.61610  0.01689  0.77778  1.0000
  S   S95       1.0  0.63062  0.04598  0.86618  1.0000
  C   C253      1.0  0.63783  0.01690  0.97887  1.0000
  S   S96       1.0  0.64203  0.09408  0.91807  1.0000
  Fe  Fe49      1.0  0.65536  0.06304  0.91094  1.0000
  S   S97       1.0  0.65563  0.10980  0.84325  1.0000
  S   S98       1.0  0.69363  0.09170  0.88398  1.0000
  Fe  Fe50      1.0  0.67940  0.12207  0.88915  1.0000
  C   C254      1.0  0.69209  0.05164  0.77270  1.0000
  H   H402      1.0  0.68210  0.02455  0.81238  1.0000
  C   C255      1.0  0.68993  0.02893  0.78849  1.0000
  Fe  Fe51      1.0  0.66767  0.07726  0.83992  1.0000
  S   S99       1.0  0.68111  0.07337  0.78991  1.0000
  S   S100      1.0  0.66245  0.04131  0.95254  1.0000
  C   C256      1.0  0.60984  0.00707  0.97519  1.0000
  C   C257      1.0  0.70152  0.11707  0.97226  1.0000
  H   H403      1.0  0.60263  0.01446  0.95594  1.0000
  C   C258      1.0  0.69779  0.01167  0.77320  1.0000
  H   H404      1.0  0.69305  0.10982  0.94818  1.0000
  H   H405      1.0  0.68727  0.10133  0.98915  1.0000
  H   H406      1.0  0.62638  0.02193  0.80138  1.0000
  H   H407      1.0  0.72076  0.08734  0.94450  1.0000
  C   C259      1.0  0.72884  0.09532  0.96869  1.0000
  H   H408      1.0  0.73965  0.13541  0.92693  1.0000
  C   C260      1.0  0.74276  0.18771  0.89622  1.0000
  H   H409      1.0  0.71521  0.07917  0.98560  1.0000
  H   H410      1.0  0.50850  0.31017  0.91208  1.0000
  S   S101      1.0  0.70869  0.16496  0.90878  1.0000
  H   H411      1.0  0.74223  0.16307  0.85698  1.0000
  H   H412      1.0  0.50058  0.34245  0.96435  1.0000
  H   H413      1.0  0.52198  0.39150  0.91924  1.0000
  C   C261      1.0  0.56220  0.48980  0.77021  1.0000
  H   H414      1.0  0.50645  0.39595  0.84427  1.0000
  H   H415      1.0  0.53892  0.33806  0.89556  1.0000
  C   C262      1.0  0.52388  0.33229  0.91510  1.0000
  C   C263      1.0  0.49634  0.34539  0.88430  1.0000
  H   H416      1.0  0.51077  0.35223  0.86405  1.0000
  H   H417      1.0  0.53491  0.33459  0.93782  1.0000
  C   C264      1.0  0.51735  0.41531  0.85664  1.0000
  H   H418      1.0  0.54129  0.48707  0.76991  1.0000
  H   H419      1.0  0.56330  0.47791  0.79067  1.0000
  C   C265      1.0  0.51862  0.44752  0.89529  1.0000
  C   C266      1.0  0.55937  0.45957  0.86432  1.0000
  N   N27       1.0  0.51065  0.34918  0.91486  1.0000
  C   C267      1.0  0.54483  0.43398  0.84897  1.0000
  S   S102      1.0  0.59401  0.48224  0.85358  1.0000
  C   C268      1.0  0.54601  0.46626  0.88746  1.0000
  H   H420      1.0  0.54294  0.38199  0.94170  1.0000
  H   H421      1.0  0.50867  0.45292  0.91346  1.0000
  C   C269      1.0  0.50409  0.42191  0.88005  1.0000
  H   H422      1.0  0.55687  0.48579  0.89954  1.0000
  H   H423      1.0  0.55490  0.42860  0.83093  1.0000
  H   H424      1.0  0.54661  0.38572  0.89940  1.0000
  C   C270      1.0  0.53149  0.37833  0.91901  1.0000
  Fe  Fe52      1.0  0.53405  0.62622  0.12745  1.0000
  S   S103      1.0  0.52823  0.64752  0.08594  1.0000
  S   S104      1.0  0.57600  0.63459  0.11263  1.0000
  C   C271      1.0  0.60762  0.62303  0.02406  1.0000
  H   H425      1.0  0.60886  0.62702  0.04927  1.0000
  N   N28       1.0  0.51748  0.56533  0.04597  1.0000
  S   S105      1.0  0.50407  0.58132  0.14009  1.0000
  H   H426      1.0  0.55205  0.56342  0.06443  1.0000
  C   C272      1.0  0.54240  0.57638  0.06577  1.0000
  H   H427      1.0  0.53786  0.57779  0.09113  1.0000
  C   C273      1.0  0.50629  0.58399  0.04742  1.0000
  H   H428      1.0  0.52118  0.60462  0.03828  1.0000
  H   H429      1.0  0.55788  0.59723  0.05802  1.0000
  S   S106      1.0  0.57536  0.64749  0.01983  1.0000
  Fe  Fe53      1.0  0.57040  0.65643  0.07167  1.0000
  H   H430      1.0  0.50472  0.52362  0.05737  1.0000
  C   C274      1.0  0.49695  0.53823  0.05802  1.0000
  H   H431      1.0  0.53347  0.54946  0.01084  1.0000
  H   H432      1.0  0.50131  0.58669  0.07219  1.0000
  C   C275      1.0  0.62073  0.60962  0.01097  1.0000
  H   H433      1.0  0.68317  0.96010  0.49888  1.0000
  C   C276      1.0  0.52441  0.56293  0.01282  1.0000
  H   H434      1.0  0.63187  0.60329  0.02636  1.0000
  H   H435      1.0  0.68827  0.66058  0.23977  1.0000
  H   H436      1.0  0.73363  0.66253  0.24080  1.0000
  C   C277      1.0  0.54476  0.79367  0.12285  1.0000
  H   H437      1.0  0.53525  0.80410  0.13389  1.0000
  H   H438      1.0  0.51877  0.75533  0.14620  1.0000
  C   C278      1.0  0.53541  0.76593  0.12974  1.0000
  S   S107      1.0  0.55198  0.66414  0.15844  1.0000
  H   H439      1.0  0.60670  0.67357  0.22476  1.0000
  C   C279      1.0  0.56601  0.80764  0.10131  1.0000
  Fe  Fe54      1.0  0.59315  0.67440  0.13965  1.0000
  S   S108      1.0  0.59085  0.69718  0.09697  1.0000
  S   S109      1.0  0.63464  0.69848  0.16491  1.0000
  Fe  Fe55      1.0  0.54946  0.68636  0.11523  1.0000
  S   S110      1.0  0.53491  0.71695  0.12594  1.0000
  C   C280      1.0  0.62762  0.68891  0.23000  1.0000
  C   C281      1.0  0.64519  0.70371  0.20530  1.0000
  C   C282      1.0  0.59504  0.77330  0.18644  1.0000
  H   H440      1.0  0.57503  0.76429  0.17378  1.0000
  H   H441      1.0  0.59124  0.77610  0.21164  1.0000
  H   H442      1.0  0.60841  0.79382  0.17605  1.0000
  H   H443      1.0  0.58382  0.72913  0.22161  1.0000
  C   C283      1.0  0.56873  0.76585  0.09420  1.0000
  C   C284      1.0  0.57795  0.79354  0.08712  1.0000
  H   H444      1.0  0.59432  0.80404  0.07034  1.0000
  H   H445      1.0  0.56803  0.71884  0.18324  1.0000
  H   H446      1.0  0.62239  0.74043  0.14653  1.0000
  H   H447      1.0  0.64817  0.78805  0.19243  1.0000
  N   N29       1.0  0.60720  0.75555  0.18341  1.0000
  C   C285      1.0  0.61251  0.75308  0.14966  1.0000
  H   H448      1.0  0.62609  0.77335  0.13887  1.0000
  C   C286      1.0  0.54726  0.75178  0.11548  1.0000
  H   H449      1.0  0.64271  0.75435  0.19928  1.0000
  C   C287      1.0  0.58800  0.72821  0.19605  1.0000
  H   H450      1.0  0.59321  0.74318  0.13565  1.0000
  C   C288      1.0  0.63318  0.76743  0.20138  1.0000
  H   H451      1.0  0.57798  0.75531  0.08282  1.0000
  H   H452      1.0  0.62997  0.76929  0.22706  1.0000
  C   C289      1.0  0.67236  0.72349  0.21265  1.0000
  H   H453      1.0  0.59627  0.71408  0.19352  1.0000
  C   C290      1.0  0.68196  0.72839  0.24422  1.0000
  H   H454      1.0  0.68611  0.73511  0.19372  1.0000
  H   H455      1.0  0.73072  0.70502  0.23994  1.0000
  H   H456      1.0  0.70287  0.74377  0.24937  1.0000
  H   H457      1.0  0.63513  0.98047  0.04507  1.0000
  C   C291      1.0  0.62794  0.98765  0.02561  1.0000
  C   C292      1.0  0.59992  0.97782  0.02187  1.0000
  Fe  Fe56      1.0  0.58191  0.91841  0.16118  1.0000
  S   S111      1.0  0.60131  0.91687  0.11510  1.0000
  S   S112      1.0  0.59863  0.93362  0.21136  1.0000
  Fe  Fe57      1.0  0.52376  0.88890  0.13302  1.0000
  S   S113      1.0  0.53863  0.88395  0.08553  1.0000
  Fe  Fe58      1.0  0.56671  0.87304  0.11153  1.0000
  Fe  Fe59      1.0  0.57216  0.92781  0.09132  1.0000
  S   S114      1.0  0.57493  0.95286  0.04740  1.0000
  S   S115      1.0  0.54909  0.87403  0.15875  1.0000
  S   S116      1.0  0.55556  0.93315  0.13771  1.0000
  H   H458      1.0  0.59004  0.90833  0.04872  1.0000
  S   S117      1.0  0.57812  0.84243  0.09086  1.0000
  N   N30       1.0  0.51614  0.92296  0.22624  1.0000
  H   H459      1.0  0.52679  0.90036  0.19436  1.0000
  C   C293      1.0  0.51768  0.89833  0.21809  1.0000
  H   H460      1.0  0.55721  0.94435  0.24484  1.0000
  H   H461      1.0  0.53061  0.89482  0.23523  1.0000
  H   H462      1.0  0.55608  0.85999  0.03488  1.0000
  H   H463      1.0  0.55052  0.89831  0.01544  1.0000
  H   H464      1.0  0.55438  0.95019  0.20389  1.0000
  C   C294      1.0  0.54402  0.94698  0.22716  1.0000
  H   H465      1.0  0.50851  0.92954  0.17799  1.0000
  C   C295      1.0  0.49957  0.92710  0.20205  1.0000
  C   C296      1.0  0.60162  0.90862  0.02745  1.0000
  H   H466      1.0  0.61354  0.93029  0.01974  1.0000
  H   H467      1.0  0.58265  0.85493  0.01980  1.0000
  C   C297      1.0  0.63252  0.94736  0.22665  1.0000
  C   C298      1.0  0.56826  0.86223  0.01328  1.0000
  H   H468      1.0  0.54380  0.96603  0.23320  1.0000
  H   H469      1.0  0.49796  0.94555  0.20717  1.0000
  H   H470      1.0  0.49705  0.87969  0.21714  1.0000
  H   H471      1.0  0.61623  0.90191  0.03501  1.0000
  H   H472      1.0  0.65193  0.95151  0.18168  1.0000
  C   C299      1.0  0.65497  0.95455  0.20702  1.0000
  C   C300      1.0  0.68155  0.96634  0.22010  1.0000
  H   H473      1.0  0.69875  0.97221  0.20454  1.0000
  H   H474      1.0  0.69175  0.89590  0.23088  1.0000
  H   H475      1.0  0.69050  0.92377  0.24951  1.0000
  C   C301      1.0  0.68610  0.97087  0.25297  1.0000
  C   C302      1.0  0.68905  0.66070  0.26614  1.0000
  H   H476      1.0  0.67854  0.63914  0.27429  1.0000
  C   C303      1.0  0.73300  0.66306  0.26715  1.0000
  H   H477      1.0  0.72374  0.64168  0.27574  1.0000
  H   H478      1.0  0.70793  0.65562  0.32313  1.0000
  C   C304      1.0  0.63736  0.69352  0.26157  1.0000
  C   C305      1.0  0.66459  0.71320  0.26888  1.0000
  H   H479      1.0  0.62373  0.68160  0.28045  1.0000
  S   S118      1.0  0.67628  0.71695  0.30880  1.0000
  H   H480      1.0  0.67679  0.66993  0.27461  1.0000
  C   C306      1.0  0.71732  0.67657  0.31319  1.0000
  N   N31       1.0  0.71747  0.67613  0.27817  1.0000
  S   S119      1.0  0.73953  0.73439  0.36369  1.0000
  H   H481      1.0  0.73844  0.68863  0.32306  1.0000
  C   C307      1.0  0.72804  0.73805  0.47618  1.0000
  H   H482      1.0  0.71957  0.71489  0.27462  1.0000
  C   C308      1.0  0.73061  0.70442  0.26629  1.0000
  H   H483      1.0  0.70536  0.68595  0.32225  1.0000
  H   H484      1.0  0.71564  0.72912  0.45517  1.0000
  S   S120      1.0  0.72722  0.78508  0.35704  1.0000
  Fe  Fe60      1.0  0.71856  0.74789  0.32824  1.0000
  C   C309      1.0  0.50327  0.91930  0.25760  1.0000
  H   H485      1.0  0.51526  0.91601  0.27631  1.0000
  H   H486      1.0  0.61988  0.94627  0.27504  1.0000
  H   H487      1.0  0.50175  0.93751  0.26450  1.0000
  C   C310      1.0  0.63704  0.95169  0.25958  1.0000
  C   C311      1.0  0.73889  0.92815  0.26209  1.0000
  C   C312      1.0  0.69004  0.90415  0.25419  1.0000
  H   H488      1.0  0.71453  0.87358  0.25881  1.0000
  H   H489      1.0  0.66961  0.88984  0.26419  1.0000
  H   H490      1.0  0.74033  0.94832  0.25819  1.0000
  H   H491      1.0  0.66669  0.96649  0.29801  1.0000
  H   H492      1.0  0.73983  0.94931  0.43387  1.0000
  H   H493      1.0  0.69829  0.98465  0.44765  1.0000
  Fe  Fe61      1.0  0.74060  0.99458  0.31699  1.0000
  H   H494      1.0  0.69161  0.86652  0.29151  1.0000
  C   C313      1.0  0.70891  0.91899  0.30663  1.0000
  S   S121      1.0  0.72022  0.98554  0.26780  1.0000
  H   H495      1.0  0.72362  0.90710  0.48578  1.0000
  C   C314      1.0  0.66360  0.96317  0.27271  1.0000
  H   H496      1.0  0.72576  0.92307  0.32343  1.0000
  N   N32       1.0  0.71232  0.90831  0.27603  1.0000
  H   H497      1.0  0.70884  0.93848  0.30345  1.0000
  H   H498      1.0  0.72030  0.94705  0.46804  1.0000
  C   C315      1.0  0.71118  0.99270  0.46848  1.0000
  C   C316      1.0  0.71147  0.88204  0.28128  1.0000
  H   H499      1.0  0.72776  0.88447  0.29814  1.0000
  S   S122      1.0  0.72248  0.97328  0.36321  1.0000
  H   H500      1.0  0.68937  0.90438  0.31824  1.0000
  C   C317      1.0  0.70260  0.97888  0.49755  1.0000
  C   C318      1.0  0.74147  0.95592  0.45894  1.0000
  H   H501      1.0  0.74206  0.92095  0.23879  1.0000
  H   H502      1.0  0.74244  0.87262  0.39595  1.0000
  C   C319      1.0  0.59326  0.63148  0.00446  1.0000
  H   H503      1.0  0.56123  0.53297  0.74442  1.0000
  C   C320      1.0  0.58152  0.53428  0.74564  1.0000
  H   H504      1.0  0.59734  0.55639  0.74739  1.0000
  H   H505      1.0  0.58475  0.52636  0.72285  1.0000
  H   H506      1.0  0.65884  0.62156  0.72926  1.0000
  C   C321      1.0  0.67182  0.63815  0.74512  1.0000
  H   H507      1.0  0.61457  0.51305  0.75166  1.0000
  H   H508      1.0  0.73731  0.61632  0.73907  1.0000
  N   N33       1.0  0.71607  0.79986  0.55991  1.0000
  C   C322      1.0  0.70356  0.76795  0.73083  1.0000
  H   H509      1.0  0.69090  0.77391  0.71634  1.0000
  S   S123      1.0  0.72844  0.81477  0.65786  1.0000
  H   H510      1.0  0.67926  0.80146  0.56705  1.0000
  H   H511      1.0  0.69003  0.74724  0.74075  1.0000
  C   C323      1.0  0.70174  0.81435  0.57038  1.0000
  C   C324      1.0  0.70601  0.77440  0.57820  1.0000
  H   H512      1.0  0.70559  0.81990  0.59602  1.0000
  H   H513      1.0  0.68392  0.76003  0.57380  1.0000
  H   H514      1.0  0.70888  0.77860  0.60409  1.0000
  C   C325      1.0  0.71081  0.79309  0.52579  1.0000
  H   H515      1.0  0.68858  0.78029  0.52062  1.0000
  H   H516      1.0  0.72408  0.82227  0.72793  1.0000
  H   H517      1.0  0.71905  0.81177  0.51098  1.0000
  C   C326      1.0  0.73636  0.81530  0.74162  1.0000
  H   H518      1.0  0.71770  0.76593  0.71438  1.0000
  C   C327      1.0  0.68976  0.66418  0.73253  1.0000
  H   H519      1.0  0.69054  0.66746  0.70722  1.0000
  H   H520      1.0  0.71711  0.76348  0.57181  1.0000
  S   S124      1.0  0.71630  0.74319  0.65254  1.0000
  S   S125      1.0  0.72881  0.71941  0.73867  1.0000
  C   C328      1.0  0.70627  0.68597  0.75279  1.0000
  S   S126      1.0  0.72528  0.71779  0.56927  1.0000
  C   C329      1.0  0.73623  0.73530  0.53272  1.0000
  C   C330      1.0  0.72095  0.72348  0.50494  1.0000
  H   H521      1.0  0.72057  0.78129  0.51752  1.0000
  H   H522      1.0  0.70321  0.70322  0.50581  1.0000
  Fe  Fe62      1.0  0.74187  0.73683  0.68873  1.0000
  H   H523      1.0  0.70871  0.83361  0.55699  1.0000
  H   H524      1.0  0.73236  0.90342  0.65349  1.0000
  S   S127      1.0  0.72508  0.95820  0.64783  1.0000
  S   S128      1.0  0.70825  0.97003  0.56026  1.0000
  H   H525      1.0  0.70896  0.85281  0.65665  1.0000
  C   C331      1.0  0.71902  0.98909  0.52482  1.0000
  Fe  Fe63      1.0  0.73421  0.98524  0.60502  1.0000
  C   C332      1.0  0.73100  0.86447  0.65500  1.0000
  H   H526      1.0  0.73760  0.94708  0.52159  1.0000
  S   S129      1.0  0.71720  0.99410  0.72389  1.0000
  H   H527      1.0  0.55881  0.52900  0.80285  1.0000
  C   C333      1.0  0.61990  0.60463  0.97815  1.0000
  C   C334      1.0  0.60552  0.61307  0.95853  1.0000
  C   C335      1.0  0.59227  0.62637  0.97165  1.0000
  H   H528      1.0  0.60470  0.60943  0.93327  1.0000
  H   H529      1.0  0.58128  0.63286  0.95624  1.0000
  C   C336      1.0  0.57913  0.53038  0.80252  1.0000
  H   H530      1.0  0.58028  0.51925  0.82363  1.0000
  H   H531      1.0  0.50613  0.55458  0.99711  1.0000
  H   H532      1.0  0.59488  0.55231  0.80554  1.0000
  H   H533      1.0  0.53975  0.58327  0.00327  1.0000
  N   N34       1.0  0.58335  0.51896  0.77295  1.0000
  H   H534      1.0  0.73460  0.65459  0.76346  1.0000
  C   C337      1.0  0.61065  0.52146  0.77359  1.0000
  H   H535      1.0  0.62710  0.54321  0.77583  1.0000
  H   H536      1.0  0.70323  0.60675  0.78105  1.0000
  C   C338      1.0  0.71901  0.60976  0.79894  1.0000
  H   H537      1.0  0.71661  0.58939  0.80433  1.0000
  H   H538      1.0  0.71426  0.61723  0.82113  1.0000
  S   S130      1.0  0.61322  0.55941  0.87309  1.0000
  S   S131      1.0  0.63686  0.58750  0.96331  1.0000
  Fe  Fe64      1.0  0.62418  0.52632  0.86987  1.0000
  S   S132      1.0  0.65328  0.54153  0.91173  1.0000
  S   S133      1.0  0.64724  0.60046  0.79267  1.0000
  Fe  Fe65      1.0  0.64372  0.57603  0.91338  1.0000
  Fe  Fe66      1.0  0.64957  0.58405  0.84135  1.0000
  Fe  Fe67      1.0  0.68691  0.56804  0.87766  1.0000
  S   S134      1.0  0.67913  0.60344  0.88183  1.0000
  H   H539      1.0  0.72322  0.53048  0.89883  1.0000
  C   C339      1.0  0.67051  0.63350  0.77798  1.0000
  S   S135      1.0  0.65874  0.55005  0.83590  1.0000
  H   H540      1.0  0.68645  0.65198  0.82352  1.0000
  S   S136      1.0  0.73242  0.58214  0.87062  1.0000
  C   C340      1.0  0.68735  0.65518  0.79818  1.0000
  H   H541      1.0  0.61281  0.51023  0.79400  1.0000
  N   N35       1.0  0.71882  0.78823  0.75602  1.0000
  H   H542      1.0  0.68594  0.79599  0.76516  1.0000
  C   C341      1.0  0.69928  0.78980  0.77787  1.0000
  H   H543      1.0  0.71007  0.80499  0.79716  1.0000
  H   H544      1.0  0.68578  0.76969  0.78916  1.0000
  C   C342      1.0  0.73597  0.77978  0.77373  1.0000
  H   H545      1.0  0.72344  0.75910  0.78421  1.0000
  C   C343      1.0  0.70489  0.68131  0.78565  1.0000
  H   H546      1.0  0.71752  0.69803  0.80156  1.0000
  H   H547      1.0  0.56339  0.99406  0.79576  1.0000
  H   H548      1.0  0.58555  0.87965  0.95417  1.0000
  C   C344      1.0  0.59106  0.98762  0.99650  1.0000
  H   H549      1.0  0.56946  0.98022  0.99338  1.0000
  C   C345      1.0  0.56307  0.89975  0.99446  1.0000
  H   H550      1.0  0.57354  0.92151  0.98685  1.0000
  H   H551      1.0  0.61021  0.91426  0.96479  1.0000
  N   N36       1.0  0.58296  0.89084  0.00221  1.0000
  C   C346      1.0  0.59896  0.89289  0.97371  1.0000
  H   H552      1.0  0.55394  0.84813  0.99493  1.0000
  H   H553      1.0  0.54880  0.88709  0.97522  1.0000
  H   H554      1.0  0.60481  0.99427  0.77517  1.0000
  H   H555      1.0  0.61431  0.88653  0.97889  1.0000
  H   H556      1.0  0.69593  0.99409  0.78557  1.0000
  H   H557      1.0  0.76122  0.13466  0.01017  1.0000
  H   H558      1.0  0.98979  0.28428  0.24754  1.0000
  H   H559      1.0  0.96159  0.33458  0.02729  1.0000
  H   H560      1.0  0.97128  0.37236  0.22219  1.0000
  C   C347      1.0  0.97597  0.35192  0.01351  1.0000
  H   H561      1.0  0.97602  0.39514  0.16988  1.0000
  H   H562      1.0  0.98226  0.42080  0.21989  1.0000
  S   S137      1.0  0.78514  0.00481  0.39184  1.0000
  H   H563      1.0  0.77150  0.04662  0.49299  1.0000
  H   H564      1.0  0.79051  0.08660  0.39810  1.0000
  H   H565      1.0  0.86680  0.12327  0.39308  1.0000
  C   C348      1.0  0.85753  0.10813  0.41252  1.0000
  H   H566      1.0  0.85678  0.08898  0.40438  1.0000
  Fe  Fe68      1.0  0.79927  0.02508  0.34465  1.0000
  S   S138      1.0  0.76639  0.03612  0.34025  1.0000
  C   C349      1.0  0.86633  0.13136  0.32407  1.0000
  C   C350      1.0  0.85114  0.10268  0.32664  1.0000
  H   H567      1.0  0.85627  0.14240  0.31648  1.0000
  H   H568      1.0  0.82958  0.09175  0.32087  1.0000
  C   C351      1.0  0.83191  0.12922  0.43063  1.0000
  H   H569      1.0  0.87169  0.11618  0.43319  1.0000
  H   H570      1.0  0.81552  0.06295  0.43897  1.0000
  H   H571      1.0  0.81160  0.07380  0.38290  1.0000
  H   H572      1.0  0.79815  0.07987  0.45368  1.0000
  C   C352      1.0  0.81197  0.09239  0.39240  1.0000
  H   H573      1.0  0.84507  0.13778  0.45209  1.0000
  N   N37       1.0  0.83001  0.10325  0.42051  1.0000
  C   C353      1.0  0.81851  0.08320  0.44645  1.0000
  H   H574      1.0  0.83196  0.09012  0.46780  1.0000
  H   H575      1.0  0.84085  0.14488  0.41163  1.0000
  H   H576      1.0  0.81893  0.10764  0.37300  1.0000
  S   S139      1.0  0.84546  0.05242  0.34246  1.0000
  H   H577      1.0  0.81139  0.12628  0.43632  1.0000
  C   C354      1.0  0.75238  0.02759  0.49397  1.0000
  Fe  Fe69      1.0  0.75107  0.01372  0.38662  1.0000
  S   S140      1.0  0.74715  0.03502  0.43032  1.0000
  C   C355      1.0  0.89446  0.14586  0.33108  1.0000
  C   C356      1.0  0.86392  0.08824  0.33657  1.0000
  C   C357      1.0  0.89212  0.10269  0.34316  1.0000
  C   C358      1.0  0.90734  0.13136  0.34050  1.0000
  H   H578      1.0  0.92896  0.14223  0.34586  1.0000
  H   H579      1.0  0.90222  0.09166  0.35065  1.0000
  S   S141      1.0  0.91232  0.18202  0.32896  1.0000
  S   S142      1.0  0.98665  0.22961  0.29476  1.0000
  H   H580      1.0  0.93664  0.19732  0.49645  1.0000
  H   H581      1.0  0.96269  0.21493  0.44647  1.0000
  C   C359      1.0  0.95871  0.20923  0.49725  1.0000
  Fe  Fe70      1.0  0.95818  0.20975  0.33601  1.0000
  S   S143      1.0  0.98628  0.19857  0.36132  1.0000
  S   S144      1.0  0.97299  0.24961  0.36271  1.0000
  C   C360      1.0  0.97341  0.21917  0.46893  1.0000
  Fe  Fe71      1.0  0.78695  0.03025  0.63359  1.0000
  S   S145      1.0  0.82284  0.07010  0.61746  1.0000
  C   C361      1.0  0.85249  0.08869  0.64073  1.0000
  C   C362      1.0  0.85337  0.08302  0.67283  1.0000
  H   H582      1.0  0.83520  0.06727  0.68418  1.0000
  S   S146      1.0  0.78265  0.00708  0.67820  1.0000
  H   H583      1.0  0.75665  0.02176  0.54391  1.0000
  H   H584      1.0  0.87532  0.11407  0.60154  1.0000
  C   C363      1.0  0.87590  0.10958  0.62636  1.0000
  H   H585      1.0  0.88710  0.14627  0.72972  1.0000
  C   C364      1.0  0.88329  0.16123  0.71688  1.0000
  H   H586      1.0  0.86092  0.15136  0.71234  1.0000
  C   C365      1.0  0.74395  0.01356  0.52296  1.0000
  C   C366      1.0  0.87775  0.09814  0.69032  1.0000
  S   S147      1.0  0.74388  0.02273  0.63377  1.0000
  H   H587      1.0  0.84264  0.03361  0.63229  1.0000
  H   H588      1.0  0.84586  0.02993  0.68989  1.0000
  H   H589      1.0  0.87837  0.09385  0.71517  1.0000
  H   H590      1.0  0.90267  0.04549  0.63408  1.0000
  H   H591      1.0  0.90391  0.04312  0.67651  1.0000
  C   C367      1.0  0.90014  0.12468  0.64377  1.0000
  C   C368      1.0  0.90116  0.11909  0.67579  1.0000
  N   N38       1.0  0.86455  0.01647  0.65538  1.0000
  S   S148      1.0  0.93127  0.13879  0.69801  1.0000
  H   H592      1.0  0.91811  0.14054  0.63221  1.0000
  C   C369      1.0  0.89091  0.04242  0.65625  1.0000
  H   H593      1.0  0.88780  0.06028  0.65877  1.0000
  C   C370      1.0  0.85001  0.01292  0.68559  1.0000
  H   H594      1.0  0.86203  0.01221  0.70612  1.0000
  H   H595      1.0  0.82799  0.99755  0.62702  1.0000
  C   C371      1.0  0.84768  0.01710  0.62894  1.0000
  H   H596      1.0  0.85826  0.02065  0.60582  1.0000
  S   S149      1.0  0.93488  0.33309  0.96873  1.0000
  H   H597      1.0  0.89350  0.16472  0.69347  1.0000
  C   C372      1.0  0.95401  0.27548  0.72681  1.0000
  C   C373      1.0  0.93500  0.28382  0.73411  1.0000
  H   H598      1.0  0.92001  0.28154  0.71654  1.0000
  C   C374      1.0  0.93764  0.25072  0.59582  1.0000
  H   H599      1.0  0.92339  0.25187  0.61306  1.0000
  H   H600      1.0  0.92537  0.23624  0.57646  1.0000
  C   C375      1.0  0.94261  0.28945  0.56645  1.0000
  N   N39       1.0  0.95745  0.27792  0.58336  1.0000
  S   S150      1.0  0.95321  0.26190  0.68848  1.0000
  H   H601      1.0  0.93042  0.27606  0.54629  1.0000
  H   H602      1.0  0.95696  0.30996  0.55664  1.0000
  H   H603      1.0  0.92827  0.29171  0.58251  1.0000
  C   C376      1.0  0.97326  0.29616  0.61000  1.0000
  H   H604      1.0  0.95968  0.29831  0.62745  1.0000
  N   N40       1.0  0.89373  0.18702  0.73500  1.0000
  H   H605      1.0  0.86644  0.19794  0.71226  1.0000
  C   C377      1.0  0.88862  0.20634  0.71684  1.0000
  H   H606      1.0  0.89643  0.22610  0.72975  1.0000
  H   H607      1.0  0.89910  0.21108  0.69349  1.0000
  C   C378      1.0  0.92342  0.19910  0.74044  1.0000
  S   S151      1.0  0.98888  0.18358  0.63259  1.0000
  H   H608      1.0  0.99161  0.29530  0.55137  1.0000
  H   H609      1.0  0.94829  0.24148  0.60835  1.0000
  H   H610      1.0  0.98845  0.31692  0.60164  1.0000
  H   H611      1.0  0.98460  0.28799  0.62337  1.0000
  C   C379      1.0  0.97617  0.27521  0.56118  1.0000
  H   H612      1.0  0.98741  0.26614  0.57298  1.0000
  H   H613      1.0  0.96484  0.26148  0.54085  1.0000
  Fe  Fe72      1.0  0.96086  0.17788  0.67330  1.0000
  S   S152      1.0  0.94165  0.19900  0.64911  1.0000
  Fe  Fe73      1.0  0.97319  0.23718  0.67333  1.0000
  Fe  Fe74      1.0  0.97191  0.20815  0.61038  1.0000
  C   C380      1.0  0.97238  0.21467  0.52656  1.0000
  S   S153      1.0  0.95299  0.20285  0.56153  1.0000
  C   C381      1.0  0.97337  0.27875  0.74971  1.0000
  S   S154      1.0  0.99098  0.21547  0.70047  1.0000
  H   H614      1.0  0.92821  0.18470  0.75304  1.0000
  H   H615      1.0  0.98826  0.27262  0.74440  1.0000
  H   H616      1.0  0.93468  0.20430  0.71769  1.0000
  H   H617      1.0  0.74810  0.16189  0.95552  1.0000
  H   H618      1.0  0.74953  0.09766  0.97054  1.0000
  H   H619      1.0  0.76858  0.14579  0.95271  1.0000
  C   C382      1.0  0.74731  0.14200  0.95158  1.0000
  C   C383      1.0  0.81174  0.30649  0.87891  1.0000
  N   N41       1.0  0.79934  0.30310  0.84716  1.0000
  C   C384      1.0  0.75881  0.21229  0.91308  1.0000
  C   C385      1.0  0.77453  0.27585  0.84475  1.0000
  H   H620      1.0  0.76445  0.27263  0.82119  1.0000
  H   H621      1.0  0.77955  0.25927  0.84792  1.0000
  H   H622      1.0  0.75936  0.27302  0.86323  1.0000
  H   H623      1.0  0.81056  0.30315  0.79849  1.0000
  H   H624      1.0  0.75020  0.21699  0.93334  1.0000
  H   H625      1.0  0.79720  0.30399  0.89804  1.0000
  H   H626      1.0  0.78287  0.32290  0.81850  1.0000
  C   C386      1.0  0.79220  0.32468  0.84227  1.0000
  H   H627      1.0  0.77750  0.32366  0.86043  1.0000
  H   H628      1.0  0.97165  0.34249  0.91638  1.0000
  H   H629      1.0  0.95792  0.29459  0.92170  1.0000
  H   H630      1.0  0.98964  0.32598  0.96130  1.0000
  H   H631      1.0  0.93196  0.21834  0.75459  1.0000
  H   H632      1.0  0.88321  0.16699  0.78016  1.0000
  H   H633      1.0  0.85717  0.17221  0.76263  1.0000
  H   H634      1.0  0.96847  0.29544  0.88148  1.0000
  H   H635      1.0  0.81832  0.29118  0.88297  1.0000
  H   H636      1.0  0.82500  0.28953  0.82586  1.0000
  C   C387      1.0  0.81911  0.30549  0.82280  1.0000
  C   C388      1.0  0.75424  0.18185  0.87021  1.0000
  H   H637      1.0  0.83817  0.32578  0.82413  1.0000
  C   C389      1.0  0.87965  0.18143  0.76583  1.0000
  H   H638      1.0  0.88701  0.20053  0.78004  1.0000
  C   C390      1.0  0.93542  0.29552  0.76386  1.0000
  H   H639      1.0  0.92094  0.30221  0.76897  1.0000
  S   S155      1.0  0.87515  0.32361  0.90989  1.0000
  C   C391      1.0  0.78597  0.23081  0.90402  1.0000
  H   H640      1.0  0.79804  0.24946  0.91740  1.0000
  C   C392      1.0  0.79732  0.22508  0.87770  1.0000
  C   C393      1.0  0.78125  0.20048  0.86095  1.0000
  H   H641      1.0  0.78974  0.19579  0.84054  1.0000
  S   S156      1.0  0.90873  0.29327  0.88945  1.0000
  Fe  Fe75      1.0  0.86835  0.28952  0.87659  1.0000
  S   S157      1.0  0.88596  0.31721  0.83448  1.0000
  S   S158      1.0  0.83086  0.24808  0.86373  1.0000
  C   C394      1.0  0.95539  0.29966  0.78638  1.0000
  S   S159      1.0  0.95885  0.31704  0.82283  1.0000
  Fe  Fe76      1.0  0.92661  0.32268  0.84919  1.0000
  Fe  Fe77      1.0  0.91741  0.33006  0.91891  1.0000
  C   C395      1.0  0.97425  0.29109  0.77915  1.0000
  H   H642      1.0  0.83005  0.32718  0.88180  1.0000
  C   C396      1.0  0.97566  0.29859  0.90659  1.0000
  H   H643      1.0  0.98136  0.28290  0.91231  1.0000
  H   H644      1.0  0.98991  0.29437  0.79627  1.0000
  C   C397      1.0  0.86984  0.42435  0.85756  1.0000
  H   H645      1.0  0.86479  0.45997  0.85739  1.0000
  H   H646      1.0  0.84863  0.41032  0.85196  1.0000
  C   C398      1.0  0.87896  0.45257  0.86065  1.0000
  H   H647      1.0  0.81073  0.34543  0.84398  1.0000
  C   C399      1.0  0.99031  0.34653  0.90330  1.0000
  H   H648      1.0  0.98545  0.34559  0.87764  1.0000
  H   H649      1.0  0.94582  0.47504  0.87639  1.0000
  S   S160      1.0  0.93718  0.36010  0.87933  1.0000
  C   C400      1.0  0.90646  0.47115  0.86732  1.0000
  Fe  Fe78      1.0  0.89441  0.35180  0.86832  1.0000
  C   C401      1.0  0.91531  0.43270  0.86870  1.0000
  S   S161      1.0  0.87537  0.37840  0.85605  1.0000
  H   H650      1.0  0.92953  0.42535  0.87178  1.0000
  C   C402      1.0  0.88791  0.41417  0.86157  1.0000
  C   C403      1.0  0.98667  0.37957  0.96651  1.0000
  C   C404      1.0  0.96787  0.35691  0.98388  1.0000
  H   H651      1.0  0.98054  0.38427  0.94420  1.0000
  C   C405      1.0  0.92451  0.46096  0.87126  1.0000
  H   H652      1.0  0.84331  0.59210  0.02362  1.0000
  H   H653      1.0  0.87223  0.86992  0.33719  1.0000
  H   H654      1.0  0.97775  0.69666  0.20476  1.0000
  H   H655      1.0  0.89903  0.86055  0.29779  1.0000
  N   N42       1.0  0.85543  0.84384  0.29623  1.0000
  H   H656      1.0  0.85761  0.86165  0.25062  1.0000
  H   H657      1.0  0.90243  0.64836  0.31088  1.0000
  H   H658      1.0  0.91365  0.65192  0.36847  1.0000
  H   H659      1.0  0.90523  0.61066  0.33714  1.0000
  N   N43       1.0  0.93898  0.65130  0.33074  1.0000
  C   C406      1.0  0.92738  0.62137  0.33130  1.0000
  H   H660      1.0  0.92960  0.61354  0.30789  1.0000
  H   H661      1.0  0.93783  0.61541  0.34935  1.0000
  C   C407      1.0  0.93555  0.66087  0.36211  1.0000
  H   H662      1.0  0.94572  0.65568  0.38131  1.0000
  H   H663      1.0  0.97996  0.66019  0.34118  1.0000
  H   H664      1.0  0.92772  0.65232  0.28215  1.0000
  C   C408      1.0  0.92474  0.65836  0.30632  1.0000
  H   H665      1.0  0.97179  0.65801  0.29958  1.0000
  C   C409      1.0  0.75036  0.76466  0.47517  1.0000
  S   S162      1.0  0.75726  0.78589  0.44179  1.0000
  Fe  Fe79      1.0  0.75159  0.77370  0.38968  1.0000
  S   S163      1.0  0.79088  0.79745  0.36275  1.0000
  S   S164      1.0  0.75554  0.77040  0.29773  1.0000
  Fe  Fe80      1.0  0.76589  0.80662  0.32898  1.0000
  Fe  Fe81      1.0  0.77716  0.75918  0.33444  1.0000
  C   C410      1.0  0.76603  0.77611  0.50273  1.0000
  H   H666      1.0  0.78339  0.79662  0.50212  1.0000
  H   H667      1.0  0.75216  0.71665  0.27477  1.0000
  H   H668      1.0  0.81193  0.81908  0.29081  1.0000
  H   H669      1.0  0.87922  0.74791  0.48790  1.0000
  H   H670      1.0  0.91088  0.77894  0.49477  1.0000
  C   C411      1.0  0.85196  0.74259  0.31442  1.0000
  H   H671      1.0  0.84157  0.72464  0.29945  1.0000
  S   S165      1.0  0.80226  0.74054  0.31691  1.0000
  H   H672      1.0  0.89132  0.74504  0.31026  1.0000
  S   S166      1.0  0.93002  0.79499  0.34425  1.0000
  H   H673      1.0  0.88978  0.80759  0.36662  1.0000
  C   C412      1.0  0.89403  0.77778  0.33907  1.0000
  C   C413      1.0  0.85097  0.77758  0.34646  1.0000
  H   H674      1.0  0.83981  0.78647  0.35700  1.0000
  C   C414      1.0  0.87924  0.78936  0.35211  1.0000
  C   C415      1.0  0.83729  0.75446  0.32702  1.0000
  C   C416      1.0  0.88015  0.75405  0.32060  1.0000
  Fe  Fe82      1.0  0.95600  0.77444  0.34363  1.0000
  H   H675      1.0  0.82872  0.80067  0.30263  1.0000
  H   H676      1.0  0.92885  0.71100  0.48757  1.0000
  H   H677      1.0  0.87938  0.82464  0.30550  1.0000
  H   H678      1.0  0.83126  0.81198  0.26255  1.0000
  C   C417      1.0  0.83077  0.81776  0.28766  1.0000
  S   S167      1.0  0.94002  0.72945  0.33918  1.0000
  H   H679      1.0  0.75454  0.67442  0.27595  1.0000
  C   C418      1.0  0.99037  0.72111  0.46329  1.0000
  H   H680      1.0  0.94472  0.68343  0.36268  1.0000
  H   H681      1.0  0.93274  0.68076  0.30562  1.0000
  C   C419      1.0  0.96837  0.66469  0.32315  1.0000
  S   S168      1.0  0.97846  0.77863  0.38931  1.0000
  S   S169      1.0  0.94551  0.70603  0.42476  1.0000
  C   C420      1.0  0.94994  0.71601  0.48899  1.0000
  Fe  Fe83      1.0  0.96473  0.73440  0.38320  1.0000
  C   C421      1.0  0.96341  0.71567  0.46124  1.0000
  H   H682      1.0  0.97757  0.68727  0.32220  1.0000
  Fe  Fe84      1.0  0.97885  0.74061  0.31239  1.0000
  S   S170      1.0  0.97656  0.71844  0.26582  1.0000
  C   C422      1.0  0.85680  0.86591  0.27624  1.0000
  H   H683      1.0  0.75526  0.84257  0.36735  1.0000
  H   H684      1.0  0.83560  0.85214  0.33457  1.0000
  H   H685      1.0  0.79585  0.98275  0.46607  1.0000
  H   H686      1.0  0.83853  0.86826  0.27977  1.0000
  H   H687      1.0  0.79864  0.95403  0.47938  1.0000
  C   C423      1.0  0.78574  0.96005  0.46551  1.0000
  S   S171      1.0  0.75130  0.92591  0.38366  1.0000
  H   H688      1.0  0.78567  0.95386  0.44037  1.0000
  H   H689      1.0  0.75661  0.91001  0.49089  1.0000
  H   H690      1.0  0.75100  0.97851  0.45886  1.0000
  C   C424      1.0  0.75387  0.87958  0.37416  1.0000
  N   N44       1.0  0.75769  0.94732  0.47818  1.0000
  C   C425      1.0  0.76093  0.86238  0.35780  1.0000
  H   H691      1.0  0.79493  0.90398  0.29621  1.0000
  C   C426      1.0  0.78338  0.89710  0.31792  1.0000
  C   C427      1.0  0.77652  0.91450  0.33452  1.0000
  H   H692      1.0  0.78304  0.93479  0.32582  1.0000
  S   S172      1.0  0.78351  0.84896  0.30816  1.0000
  C   C428      1.0  0.77542  0.87090  0.32945  1.0000
  Fe  Fe85      1.0  0.75832  0.96632  0.36492  1.0000
  C   C429      1.0  0.76145  0.90558  0.36253  1.0000
  S   S173      1.0  0.77519  0.98533  0.31800  1.0000
  H   H693      1.0  0.75621  0.93174  0.27785  1.0000
  C   C430      1.0  0.74490  0.91726  0.47665  1.0000
  H   H694      1.0  0.85298  0.83410  0.34576  1.0000
  H   H695      1.0  0.74394  0.91007  0.45177  1.0000
  C   C431      1.0  0.85402  0.85029  0.32991  1.0000
  H   H696      1.0  0.87517  0.88593  0.28200  1.0000
  C   C432      1.0  0.88000  0.84141  0.29110  1.0000
  H   H697      1.0  0.88184  0.83676  0.26588  1.0000
  H   H698      1.0  0.77302  0.63258  0.74899  1.0000
  H   H699      1.0  0.90897  0.61979  0.72419  1.0000
  H   H700      1.0  0.94788  0.54884  0.73064  1.0000
  C   C433      1.0  0.94272  0.66121  0.72224  1.0000
  C   C434      1.0  0.92594  0.63594  0.73718  1.0000
  H   H701      1.0  0.98000  0.55453  0.74612  1.0000
  C   C435      1.0  0.95773  0.54452  0.75100  1.0000
  S   S174      1.0  0.77208  0.78193  0.69278  1.0000
  S   S175      1.0  0.77316  0.78558  0.61563  1.0000
  H   H702      1.0  0.77174  0.77037  0.55199  1.0000
  C   C436      1.0  0.75922  0.76140  0.53121  1.0000
  S   S176      1.0  0.76636  0.72979  0.65159  1.0000
  Fe  Fe86      1.0  0.74777  0.78788  0.65487  1.0000
  Fe  Fe87      1.0  0.79467  0.77523  0.65341  1.0000
  H   H703      1.0  0.75725  0.80739  0.55751  1.0000
  H   H704      1.0  0.75045  0.82270  0.59104  1.0000
  C   C437      1.0  0.74575  0.81756  0.56542  1.0000
  H   H705      1.0  0.75115  0.81481  0.72468  1.0000
  Fe  Fe88      1.0  0.74354  0.74052  0.61558  1.0000
  H   H706      1.0  0.92893  0.79270  0.54882  1.0000
  S   S177      1.0  0.89815  0.72721  0.62478  1.0000
  C   C438      1.0  0.85426  0.73436  0.63278  1.0000
  H   H707      1.0  0.84222  0.71330  0.62511  1.0000
  N   N45       1.0  0.89324  0.75450  0.53631  1.0000
  H   H708      1.0  0.81954  0.74024  0.63549  1.0000
  C   C439      1.0  0.86575  0.73599  0.54912  1.0000
  S   S178      1.0  0.84081  0.79654  0.65547  1.0000
  C   C440      1.0  0.84132  0.74958  0.63876  1.0000
  C   C441      1.0  0.89805  0.77352  0.64622  1.0000
  C   C442      1.0  0.88502  0.78877  0.65228  1.0000
  C   C443      1.0  0.85661  0.77684  0.64854  1.0000
  H   H709      1.0  0.91997  0.78293  0.64888  1.0000
  H   H710      1.0  0.89698  0.80987  0.65985  1.0000
  C   C444      1.0  0.88264  0.74629  0.63626  1.0000
  C   C445      1.0  0.90855  0.77773  0.55837  1.0000
  H   H711      1.0  0.89721  0.78871  0.56344  1.0000
  H   H712      1.0  0.91224  0.77073  0.58147  1.0000
  H   H713      1.0  0.85308  0.71909  0.53228  1.0000
  H   H714      1.0  0.87926  0.77629  0.50729  1.0000
  H   H715      1.0  0.86701  0.72632  0.57146  1.0000
  H   H716      1.0  0.85454  0.74704  0.55456  1.0000
  Fe  Fe89      1.0  0.94299  0.74260  0.63356  1.0000
  C   C446      1.0  0.90812  0.73935  0.53254  1.0000
  H   H717      1.0  0.91065  0.73141  0.55573  1.0000
  H   H718      1.0  0.89700  0.72146  0.51640  1.0000
  H   H719      1.0  0.92893  0.75257  0.52277  1.0000
  C   C447      1.0  0.89054  0.76489  0.50520  1.0000
  H   H720      1.0  0.93861  0.66430  0.69801  1.0000
  S   S179      1.0  0.98791  0.71382  0.72003  1.0000
  S   S180      1.0  0.95533  0.71040  0.63009  1.0000
  H   H721      1.0  0.95314  0.72281  0.53981  1.0000
  C   C448      1.0  0.96505  0.68216  0.73845  1.0000
  S   S181      1.0  0.96590  0.76064  0.67880  1.0000
  S   S182      1.0  0.97672  0.77317  0.60266  1.0000
  Fe  Fe90      1.0  0.98060  0.73046  0.67382  1.0000
  C   C449      1.0  0.96358  0.72252  0.51851  1.0000
  Fe  Fe91      1.0  0.99055  0.74225  0.60191  1.0000
  C   C450      1.0  0.99049  0.72778  0.52053  1.0000
  H   H722      1.0  0.82993  0.99357  0.68557  1.0000
  H   H723      1.0  0.77051  0.95001  0.52689  1.0000
  C   C451      1.0  0.74420  0.89317  0.65320  1.0000
  Fe  Fe92      1.0  0.76941  0.97032  0.64652  1.0000
  S   S183      1.0  0.79032  0.94476  0.65014  1.0000
  C   C452      1.0  0.77455  0.86617  0.65292  1.0000
  C   C453      1.0  0.78777  0.89490  0.65132  1.0000
  C   C454      1.0  0.77269  0.90855  0.65155  1.0000
  H   H724      1.0  0.78643  0.85596  0.65291  1.0000
  H   H725      1.0  0.80981  0.90661  0.65008  1.0000
  C   C455      1.0  0.74609  0.85086  0.65498  1.0000
  H   H726      1.0  0.75403  0.83711  0.55230  1.0000
  S   S184      1.0  0.77743  0.99460  0.60193  1.0000
  C   C456      1.0  0.75851  0.95612  0.51143  1.0000
  H   H727      1.0  0.76783  0.97871  0.51336  1.0000
  H   H728      1.0  0.84991  0.97348  0.65022  1.0000
  H   H729      1.0  0.88224  0.99230  0.67018  1.0000
  C   C457      1.0  0.86949  0.99336  0.65071  1.0000
  C   C458      1.0  0.83762  0.59783  0.00081  1.0000
  H   H730      1.0  0.84776  0.62053  0.00026  1.0000
  H   H731      1.0  0.88711  0.62114  0.97265  1.0000
  H   H732      1.0  0.76291  0.63856  0.83529  1.0000
  H   H733      1.0  0.80930  0.54765  0.97208  1.0000
  H   H734      1.0  0.78824  0.64686  0.80501  1.0000
  C   C459      1.0  0.74940  0.65599  0.78190  1.0000
  H   H735      1.0  0.83880  0.54857  0.95559  1.0000
  C   C460      1.0  0.76698  0.63185  0.81208  1.0000
  C   C461      1.0  0.83183  0.55707  0.97491  1.0000
  C   C462      1.0  0.75208  0.61856  0.75800  1.0000
  N   N46       1.0  0.74687  0.62906  0.78772  1.0000
  H   H736      1.0  0.75482  0.51247  0.90813  1.0000
  H   H737      1.0  0.84397  0.58784  0.92270  1.0000
  H   H738      1.0  0.84831  0.61813  0.94167  1.0000
  S   S185      1.0  0.81209  0.53390  0.89637  1.0000
  C   C463      1.0  0.79004  0.54726  0.88816  1.0000
  C   C464      1.0  0.76241  0.53222  0.89716  1.0000
  C   C465      1.0  0.75391  0.56795  0.87791  1.0000
  C   C466      1.0  0.78163  0.58309  0.86923  1.0000
  C   C467      1.0  0.79951  0.57277  0.87404  1.0000
  H   H739      1.0  0.78943  0.60300  0.85872  1.0000
  H   H740      1.0  0.82065  0.58462  0.86693  1.0000
  N   N47       1.0  0.84577  0.58721  0.97345  1.0000
  C   C468      1.0  0.83807  0.59552  0.94377  1.0000
  C   C469      1.0  0.87564  0.59844  0.97416  1.0000
  H   H741      1.0  0.75022  0.59818  0.76158  1.0000
  H   H742      1.0  0.76604  0.61196  0.81629  1.0000
  H   H743      1.0  0.81559  0.58716  0.94210  1.0000
  H   H744      1.0  0.83606  0.54998  0.99767  1.0000
  H   H745      1.0  0.81513  0.58960  0.00091  1.0000
  C   C470      1.0  0.74441  0.54239  0.89193  1.0000
  H   H746      1.0  0.88247  0.59263  0.99607  1.0000
  H   H747      1.0  0.95402  0.58976  0.75968  1.0000
  C   C471      1.0  0.98521  0.59692  0.00013  1.0000
  H   H748      1.0  0.88230  0.59070  0.95378  1.0000
  Fe  Fe93      1.0  0.85751  0.55210  0.88432  1.0000
  H   H749      1.0  0.91343  0.51816  0.78812  1.0000
  H   H750      1.0  0.91825  0.54774  0.80898  1.0000
  C   C472      1.0  0.92270  0.54074  0.78643  1.0000
  H   H751      1.0  0.98608  0.59551  0.77558  1.0000
  C   C473      1.0  0.96363  0.58433  0.77934  1.0000
  C   C474      1.0  0.93086  0.63140  0.76869  1.0000
  H   H752      1.0  0.94951  0.52204  0.75161  1.0000
  H   H753      1.0  0.91200  0.54540  0.76735  1.0000
  Fe  Fe94      1.0  0.90190  0.53584  0.87387  1.0000
  H   H754      1.0  0.95957  0.59246  0.80148  1.0000
  C   C475      1.0  0.96559  0.54817  0.80757  1.0000
  Fe  Fe95      1.0  0.91598  0.58942  0.90853  1.0000
  H   H755      1.0  0.95714  0.64932  0.80926  1.0000
  S   S186      1.0  0.93456  0.57999  0.86690  1.0000
  S   S187      1.0  0.90982  0.59852  0.78550  1.0000
  C   C476      1.0  0.96233  0.61925  0.97603  1.0000
  S   S188      1.0  0.88732  0.59679  0.87780  1.0000
  S   S189      1.0  0.88517  0.54536  0.91764  1.0000
  S   S190      1.0  0.87189  0.53906  0.84150  1.0000
  H   H756      1.0  0.95712  0.58068  0.96033  1.0000
  C   C477      1.0  0.96720  0.59732  0.97716  1.0000
  S   S191      1.0  0.93963  0.62067  0.94771  1.0000
  H   H757      1.0  0.95707  0.52573  0.81012  1.0000
  N   N48       1.0  0.95245  0.55446  0.78108  1.0000
  H   H758      1.0  0.96208  0.55552  0.83064  1.0000
  Fe  Fe96      1.0  0.90370  0.58373  0.83685  1.0000
  C   C478      1.0  0.95298  0.65248  0.78509  1.0000
  S   S192      1.0  0.91981  0.50727  0.86932  1.0000
  H   H759      1.0  0.98804  0.55788  0.80433  1.0000
  H   H760      1.0  0.97209  0.65778  0.99751  1.0000
  C   C479      1.0  0.97565  0.64069  0.99820  1.0000
  H   H761      1.0  0.98877  0.57984  0.00069  1.0000
  H   H762      1.0  0.74534  0.66441  0.80379  1.0000
  H   H763      1.0  0.75109  0.77856  0.75798  1.0000
  H   H764      1.0  0.74757  0.79436  0.79323  1.0000
  H   H765      1.0  0.77020  0.67117  0.77355  1.0000
  C   C480      1.0  0.97007  0.67760  0.76994  1.0000
  H   H766      1.0  0.98730  0.69360  0.78273  1.0000
  H   H767      1.0  0.74834  0.83115  0.75983  1.0000
  H   H768      1.0  0.88006  0.99511  0.62793  1.0000
