data_image0
_chemical_formula_structural       HFeSC2FeS2FeS2FeSFeS3HFeSNCHSCH3SNCFeH3CH2C6H4C6H5FeCHCHC2H3NCHCHCH7NCNC2HCH2C2H5CHCSCHC2SH2FeSH2SCH3CH7CH2CH2SC2HC2H2C2HC2H4CFeS4FeH2C2SNH3C2HC3HC2HCH2C3H5CHCH4C2HCS3CH2C2Fe2C2H4FeH2SHC2H2SFeS2FeS2FeSFeS3FeS2H2C2SCSC6H5FeSH2CH4C2H4C6H7CH2CHNHC2S2H4CHC3H3SNSNC4H3FeH2SH8NHNH2FeHFeS2FeCFeSFeSH4C2HSH5SH2CHSFeHC2HC6HCH4CHCH2CHCNH4C3HCH3CH2SFeSH2NCHC2HC2H6CHCH4FeH3CHFeS2FeSHFeSFeHS2CSFeCH2CHCHNH3C2HC7H10NCH3C3SCH6C2HNH5SCH4FeS2FeNC4H2CH2CHSHFeHCFeCHSCHFeSFeSHFeS3H2CH2SC3SH2CHFeH2NHC6HSHC2SHNC4H7CH4CH3CH2FeSH2CH3CHCH2CH2CSNCHFeS2FeSNFeSFeS3HNSCFeHFeSCHCHCHSHC6H5CH3C7HSH3CHC2SH2CHFeH7CH2CHNC2SHCHCH3CH2CHFeHC2NCHSHCH2CH5CHSHCH2CSCHSHCHCSHCH6CNHSH6SFeSHSFeH4SC4FeCFeC3H6CSH2C2FeCHCH2SH3CSHSFeHC3SH3C4HC2H5C2HSCSCSNSFeH3CHFeC6H11SCHCHSNH2FeCH3C2SCHCSH5C2HSCH2CHCHCHCHSC6H3FeCH4NH3SH2SCFe2SNH3C5H2C2NH3FeH2SH2CHSCH3CH7CH9CHCHSCNHC5HSHCHC2HCHS2HSH3CH3CFeHSHCH3CH3C2HC3HSCH3SH3CH2CS2HC2SFeCHC3H2NHSC3H2CHCH2CH2CH2SHCFeH3CH2CH2S2CNCSC5H2FeH2SNH3FeSH6CS2HCSC2H7NSHFeSFeSHSH2SC4H2C2H3CSFeCH3CHSCH4SFeCH2CHC2H2C2HSCHNHC3SH2CSHCH2CH3NHC2H3NCH2C3SH4C2H3CH2CSH9FeC2FeHFeH3S4H2FeCHFeCH5FeH2C3H2C2H2FeH3CHCSH4SHCHCHC4H6SC2HC2H6FeS2FeSHFeSFeS3H2SNFe2S2H2SCHSFeCHC2H5SCHNCH2C6H4C6HCH5CH3FeH9FeH3CHC3H3C4H3C2SCNCH2CHNCHCH2SH3NC2HNSHSC2H5C2SC3SCHC3FeSHFeSFeHSCH2FeSCFeS2NH3SH3C2H2C7H4FeH2C2HSCHCH4CH3CHCH2CNH2CSH2SH4SH5CHFe2S2FeS2FeSFeS3HFeHSHNHSCH2C3HC2H2CH2SC7H4C4SCH3CH6CHNHCHNH2SCHC2H2CNC4H7CHCHSNH3CHCHCNH4CH3CSHSFeCFeSCHFeSH2SHC2H4SH2FeSC6H4C2H2CH4SH2NHCHC2H3CH2SFeHNHCHCH2NHFeSFeS2FeS2FeSFeHS2H2CHCHSNH4C2HCH2C2HC3H3C7H5C2SH11NHC2H2CHCH3CHC3HSH2CSC3HC2H2CHNCNH3SHC3H3SHCH6C2HC2H2FeH5CH3CH2CH2SH3FeNHCHFeC3HCHCSHC5HFeC2SH2SH7NC2H3SHCHCSCH2CSH5CHSHCHFeSHFeCSHSHSCFeS2FeSFeS3FeHCH2SFeHC2H2C4HSCHC6H5CNCHC6H6CHCHNCSHCHC2H3CFeNHCSFeCH3SHSHCH3FeCH2C2HCS3HCHFeHCH7C2H5FeCH6FeH2
_chemical_formula_sum              "H1024 Fe128 S256 C640 N64"
_cell_length_a       49.6067
_cell_length_b       53.2754
_cell_length_c       33.5656
_cell_angle_alpha    88.9758
_cell_angle_beta     88.9493
_cell_angle_gamma    89.4566

_space_group_name_H-M_alt    "P 1"
_space_group_IT_number       1

loop_
  _space_group_symop_operation_xyz
  'x, y, z'

loop_
  _atom_site_type_symbol
  _atom_site_label
  _atom_site_symmetry_multiplicity
  _atom_site_fract_x
  _atom_site_fract_y
  _atom_site_fract_z
  _atom_site_occupancy
  H   H1        1.0  0.42597  0.08932  0.32407  1.0000
  Fe  Fe1       1.0  0.43129  0.08630  0.16660  1.0000
  S   S1        1.0  0.39492  0.16294  0.47383  1.0000
  C   C1        1.0  0.50855  0.15488  0.57826  1.0000
  C   C2        1.0  0.22213  0.27238  0.20970  1.0000
  Fe  Fe2       1.0  0.26303  0.17633  0.37735  1.0000
  S   S2        1.0  0.22834  0.15700  0.40807  1.0000
  S   S3        1.0  0.29995  0.15769  0.35168  1.0000
  Fe  Fe3       1.0  0.23865  0.22842  0.38783  1.0000
  S   S4        1.0  0.20184  0.21390  0.42007  1.0000
  S   S5        1.0  0.24265  0.26901  0.36921  1.0000
  Fe  Fe4       1.0  0.23098  0.18837  0.45164  1.0000
  S   S6        1.0  0.22953  0.18013  0.51736  1.0000
  Fe  Fe5       1.0  0.20237  0.18415  0.37360  1.0000
  S   S7        1.0  0.16622  0.17368  0.33817  1.0000
  S   S8        1.0  0.26796  0.20553  0.42356  1.0000
  S   S9        1.0  0.23696  0.20060  0.33882  1.0000
  H   H2        1.0  0.46778  0.09908  0.22316  1.0000
  Fe  Fe6       1.0  0.17477  0.25639  0.11326  1.0000
  S   S10       1.0  0.15309  0.22973  0.15428  1.0000
  N   N1        1.0  0.22103  0.25801  0.24774  1.0000
  C   C3        1.0  0.30093  0.28849  0.44578  1.0000
  H   H3        1.0  0.58812  0.28630  0.51110  1.0000
  S   S11       1.0  0.15635  0.29107  0.13942  1.0000
  C   C4        1.0  0.24582  0.17084  0.11450  1.0000
  H   H4        1.0  0.20163  0.27516  0.19729  1.0000
  H   H5        1.0  0.40774  0.13731  0.36239  1.0000
  H   H6        1.0  0.20497  0.16240  0.09923  1.0000
  S   S12       1.0  0.12747  0.27012  0.24269  1.0000
  N   N2        1.0  0.59948  0.30374  0.45498  1.0000
  C   C5        1.0  0.31383  0.23321  0.54957  1.0000
  Fe  Fe7       1.0  0.12118  0.23027  0.10804  1.0000
  H   H7        1.0  0.57912  0.11275  0.11637  1.0000
  H   H8        1.0  0.19029  0.20686  0.09622  1.0000
  H   H9        1.0  0.27495  0.25680  0.43842  1.0000
  C   C6        1.0  0.21091  0.20227  0.10347  1.0000
  H   H10       1.0  0.30692  0.17729  0.50386  1.0000
  H   H11       1.0  0.23146  0.23296  0.49589  1.0000
  C   C7        1.0  0.13590  0.24300  0.27036  1.0000
  C   C8        1.0  0.14593  0.24529  0.30879  1.0000
  C   C9        1.0  0.15558  0.22406  0.32951  1.0000
  C   C10       1.0  0.15466  0.20040  0.31223  1.0000
  C   C11       1.0  0.14387  0.19800  0.27430  1.0000
  C   C12       1.0  0.13426  0.21924  0.25354  1.0000
  H   H12       1.0  0.29733  0.24365  0.53429  1.0000
  H   H13       1.0  0.16347  0.22602  0.35904  1.0000
  H   H14       1.0  0.14329  0.17974  0.26079  1.0000
  H   H15       1.0  0.28318  0.30213  0.54352  1.0000
  C   C13       1.0  0.36855  0.16192  0.43968  1.0000
  C   C14       1.0  0.37206  0.17058  0.40042  1.0000
  C   C15       1.0  0.35105  0.16896  0.37331  1.0000
  C   C16       1.0  0.32604  0.15954  0.38580  1.0000
  C   C17       1.0  0.32218  0.15139  0.42532  1.0000
  C   C18       1.0  0.34359  0.15214  0.45203  1.0000
  H   H16       1.0  0.39089  0.17850  0.39066  1.0000
  H   H17       1.0  0.35399  0.17548  0.34282  1.0000
  H   H18       1.0  0.30282  0.14403  0.43500  1.0000
  H   H19       1.0  0.34079  0.14514  0.48227  1.0000
  H   H20       1.0  0.20658  0.22224  0.26947  1.0000
  Fe  Fe8       1.0  0.48483  0.08100  0.12320  1.0000
  C   C19       1.0  0.24196  0.25185  0.54971  1.0000
  H   H21       1.0  0.28477  0.18510  0.12950  1.0000
  C   C20       1.0  0.59726  0.30393  0.49894  1.0000
  H   H22       1.0  0.20278  0.26129  0.30604  1.0000
  C   C21       1.0  0.27397  0.30991  0.38091  1.0000
  C   C22       1.0  0.34571  0.19870  0.54655  1.0000
  H   H23       1.0  0.55832  0.31500  0.44781  1.0000
  H   H24       1.0  0.51019  0.17178  0.17002  1.0000
  H   H25       1.0  0.48725  0.20459  0.22920  1.0000
  N   N3        1.0  0.32327  0.21157  0.52595  1.0000
  C   C23       1.0  0.40463  0.09056  0.33491  1.0000
  H   H26       1.0  0.37386  0.10737  0.14621  1.0000
  C   C24       1.0  0.21922  0.17707  0.10505  1.0000
  H   H27       1.0  0.57441  0.16955  0.56121  1.0000
  C   C25       1.0  0.26731  0.28569  0.39436  1.0000
  H   H28       1.0  0.37881  0.13969  0.13321  1.0000
  H   H29       1.0  0.24853  0.24390  0.29160  1.0000
  H   H30       1.0  0.50219  0.23010  0.30801  1.0000
  H   H31       1.0  0.40595  0.14580  0.27492  1.0000
  H   H32       1.0  0.31601  0.23014  0.46962  1.0000
  H   H33       1.0  0.23104  0.29124  0.21353  1.0000
  H   H34       1.0  0.26117  0.24274  0.24120  1.0000
  N   N4        1.0  0.33961  0.12548  0.11944  1.0000
  C   C26       1.0  0.29445  0.31752  0.55762  1.0000
  N   N5        1.0  0.40283  0.09827  0.37700  1.0000
  C   C27       1.0  0.28054  0.27513  0.42721  1.0000
  C   C28       1.0  0.53806  0.11699  0.13734  1.0000
  H   H35       1.0  0.42597  0.31851  0.42732  1.0000
  C   C29       1.0  0.42663  0.13916  0.27387  1.0000
  H   H36       1.0  0.35310  0.18212  0.52964  1.0000
  H   H37       1.0  0.18741  0.23601  0.22996  1.0000
  C   C30       1.0  0.20820  0.23351  0.24129  1.0000
  C   C31       1.0  0.32772  0.10181  0.10599  1.0000
  H   H38       1.0  0.37209  0.10740  0.42058  1.0000
  H   H39       1.0  0.56366  0.28174  0.44835  1.0000
  H   H40       1.0  0.50066  0.11518  0.27041  1.0000
  H   H41       1.0  0.57320  0.30024  0.40506  1.0000
  H   H42       1.0  0.55753  0.31271  0.10148  1.0000
  C   C32       1.0  0.24870  0.25399  0.26235  1.0000
  H   H43       1.0  0.21975  0.22217  0.21914  1.0000
  C   C33       1.0  0.33255  0.22049  0.48608  1.0000
  S   S13       1.0  0.41038  0.10686  0.21643  1.0000
  C   C34       1.0  0.53141  0.16478  0.55885  1.0000
  H   H44       1.0  0.23450  0.26239  0.18685  1.0000
  C   C35       1.0  0.23559  0.23079  0.52730  1.0000
  C   C36       1.0  0.23481  0.20696  0.54554  1.0000
  S   S14       1.0  0.44236  0.19400  0.38952  1.0000
  H   H45       1.0  0.50598  0.22227  0.56257  1.0000
  H   H46       1.0  0.34952  0.23389  0.48812  1.0000
  Fe  Fe9       1.0  0.43523  0.17656  0.45031  1.0000
  S   S15       1.0  0.25664  0.13947  0.11351  1.0000
  H   H47       1.0  0.25904  0.27212  0.26705  1.0000
  H   H48       1.0  0.47440  0.23792  0.57217  1.0000
  S   S16       1.0  0.52935  0.08688  0.12251  1.0000
  C   C37       1.0  0.20509  0.27220  0.27755  1.0000
  H   H49       1.0  0.29299  0.18686  0.55100  1.0000
  H   H50       1.0  0.36321  0.21136  0.54993  1.0000
  H   H51       1.0  0.41569  0.12886  0.41279  1.0000
  C   C38       1.0  0.26416  0.18986  0.12236  1.0000
  H   H52       1.0  0.58413  0.31969  0.50924  1.0000
  H   H53       1.0  0.31333  0.32048  0.53975  1.0000
  H   H54       1.0  0.14692  0.26358  0.32218  1.0000
  H   H55       1.0  0.43863  0.12079  0.37301  1.0000
  H   H56       1.0  0.31125  0.28025  0.47098  1.0000
  H   H57       1.0  0.21493  0.29017  0.28494  1.0000
  H   H58       1.0  0.33163  0.08609  0.12745  1.0000
  C   C39       1.0  0.32756  0.13228  0.15846  1.0000
  H   H59       1.0  0.24269  0.27021  0.53547  1.0000
  H   H60       1.0  0.36388  0.11583  0.37030  1.0000
  C   C40       1.0  0.43446  0.12080  0.24651  1.0000
  H   H61       1.0  0.27039  0.22983  0.12483  1.0000
  H   H62       1.0  0.33148  0.11749  0.18155  1.0000
  S   S17       1.0  0.47082  0.14999  0.44749  1.0000
  C   C41       1.0  0.36905  0.12215  0.12351  1.0000
  C   C42       1.0  0.30082  0.19387  0.52159  1.0000
  H   H63       1.0  0.18450  0.27671  0.26671  1.0000
  C   C43       1.0  0.22941  0.22133  0.11015  1.0000
  C   C44       1.0  0.37418  0.10132  0.38908  1.0000
  H   H64       1.0  0.43931  0.16271  0.32143  1.0000
  H   H65       1.0  0.33597  0.15013  0.16940  1.0000
  C   C45       1.0  0.57252  0.29995  0.43826  1.0000
  C   C46       1.0  0.29415  0.32335  0.39967  1.0000
  H   H66       1.0  0.33038  0.24666  0.55461  1.0000
  C   C47       1.0  0.50864  0.30970  0.48185  1.0000
  C   C48       1.0  0.48888  0.22381  0.58432  1.0000
  H   H67       1.0  0.44192  0.31170  0.47385  1.0000
  H   H68       1.0  0.40582  0.31366  0.47165  1.0000
  H   H69       1.0  0.12553  0.21721  0.22458  1.0000
  H   H70       1.0  0.30530  0.13481  0.15670  1.0000
  C   C49       1.0  0.25604  0.21513  0.11962  1.0000
  Fe  Fe10      1.0  0.46780  0.22118  0.42173  1.0000
  S   S18       1.0  0.50533  0.19828  0.41485  1.0000
  S   S19       1.0  0.45736  0.20627  0.48288  1.0000
  S   S20       1.0  0.49530  0.14877  0.33534  1.0000
  S   S21       1.0  0.45295  0.11092  0.12222  1.0000
  Fe  Fe11      1.0  0.47915  0.16934  0.38867  1.0000
  H   H71       1.0  0.41489  0.08444  0.43455  1.0000
  H   H72       1.0  0.49951  0.23603  0.23430  1.0000
  C   C50       1.0  0.41572  0.07897  0.40265  1.0000
  C   C51       1.0  0.44546  0.14863  0.30037  1.0000
  S   S22       1.0  0.47063  0.26249  0.40933  1.0000
  N   N6        1.0  0.52290  0.20748  0.26419  1.0000
  H   H73       1.0  0.51969  0.20310  0.32787  1.0000
  H   H74       1.0  0.33971  0.20465  0.46739  1.0000
  H   H75       1.0  0.49903  0.12688  0.16198  1.0000
  C   C52       1.0  0.49460  0.30023  0.44957  1.0000
  C   C53       1.0  0.51961  0.29329  0.51038  1.0000
  H   H76       1.0  0.51248  0.16889  0.25515  1.0000
  C   C54       1.0  0.47196  0.13943  0.30000  1.0000
  C   C55       1.0  0.48005  0.12205  0.27134  1.0000
  C   C56       1.0  0.46138  0.11285  0.24455  1.0000
  H   H77       1.0  0.36288  0.08354  0.38621  1.0000
  C   C57       1.0  0.41686  0.12235  0.38147  1.0000
  C   C58       1.0  0.30780  0.31256  0.43186  1.0000
  H   H78       1.0  0.28366  0.20296  0.50606  1.0000
  C   C59       1.0  0.49116  0.27436  0.44630  1.0000
  H   H79       1.0  0.48611  0.31286  0.42746  1.0000
  H   H80       1.0  0.54267  0.24303  0.26915  1.0000
  C   C60       1.0  0.50348  0.25800  0.47363  1.0000
  C   C61       1.0  0.51783  0.26744  0.50541  1.0000
  C   C62       1.0  0.55673  0.16183  0.57611  1.0000
  H   H81       1.0  0.59088  0.15629  0.12838  1.0000
  H   H82       1.0  0.50201  0.23799  0.47057  1.0000
  H   H83       1.0  0.52743  0.25467  0.52621  1.0000
  H   H84       1.0  0.30570  0.22707  0.57930  1.0000
  H   H85       1.0  0.54372  0.17840  0.23192  1.0000
  C   C63       1.0  0.24026  0.20426  0.58615  1.0000
  H   H86       1.0  0.54162  0.17311  0.28482  1.0000
  C   C64       1.0  0.51895  0.13345  0.15407  1.0000
  H   H87       1.0  0.48871  0.19919  0.30233  1.0000
  H   H88       1.0  0.30545  0.10369  0.10281  1.0000
  H   H89       1.0  0.56100  0.21661  0.28939  1.0000
  H   H90       1.0  0.55933  0.22130  0.23630  1.0000
  C   C65       1.0  0.54756  0.22282  0.26484  1.0000
  C   C66       1.0  0.50771  0.21017  0.30222  1.0000
  H   H91       1.0  0.48893  0.15715  0.56502  1.0000
  C   C67       1.0  0.57072  0.15028  0.13526  1.0000
  S   S23       1.0  0.55900  0.19946  0.14901  1.0000
  S   S24       1.0  0.52946  0.18248  0.51445  1.0000
  S   S25       1.0  0.53584  0.30441  0.55229  1.0000
  C   C68       1.0  0.52542  0.15880  0.15927  1.0000
  H   H92       1.0  0.51676  0.21457  0.20180  1.0000
  H   H93       1.0  0.60995  0.26456  0.45310  1.0000
  C   C69       1.0  0.55126  0.16736  0.14885  1.0000
  C   C70       1.0  0.50582  0.21608  0.23091  1.0000
  Fe  Fe12      1.0  0.49372  0.18155  0.47431  1.0000
  Fe  Fe13      1.0  0.13196  0.26406  0.17691  1.0000
  C   C71       1.0  0.56412  0.12530  0.12901  1.0000
  C   C72       1.0  0.53052  0.18084  0.25874  1.0000
  H   H94       1.0  0.30012  0.31068  0.58790  1.0000
  H   H95       1.0  0.47879  0.20522  0.58517  1.0000
  H   H96       1.0  0.24102  0.32069  0.56982  1.0000
  H   H97       1.0  0.26373  0.31818  0.35563  1.0000
  Fe  Fe14      1.0  0.59305  0.20276  0.10407  1.0000
  H   H98       1.0  0.39408  0.10424  0.31496  1.0000
  H   H99       1.0  0.34270  0.16382  0.09890  1.0000
  S   S26       1.0  0.21957  0.25294  0.10575  1.0000
  H   H100      1.0  0.33939  0.19191  0.57685  1.0000
  C   C73       1.0  0.24808  0.24899  0.59013  1.0000
  C   C74       1.0  0.42489  0.32213  0.45991  1.0000
  H   H101      1.0  0.61725  0.30619  0.51285  1.0000
  H   H102      1.0  0.43737  0.07627  0.39416  1.0000
  S   S27       1.0  0.42173  0.15420  0.76609  1.0000
  Fe  Fe15      1.0  0.33387  0.25463  0.70629  1.0000
  S   S28       1.0  0.30698  0.22946  0.67257  1.0000
  S   S29       1.0  0.37845  0.25730  0.69707  1.0000
  Fe  Fe16      1.0  0.28868  0.27335  0.75995  1.0000
  S   S30       1.0  0.25720  0.25030  0.73088  1.0000
  S   S31       1.0  0.41568  0.10983  0.02584  1.0000
  Fe  Fe17      1.0  0.28882  0.21983  0.73261  1.0000
  S   S32       1.0  0.28153  0.18030  0.75401  1.0000
  Fe  Fe18      1.0  0.27821  0.26213  0.67375  1.0000
  S   S33       1.0  0.25881  0.27487  0.61692  1.0000
  S   S34       1.0  0.31860  0.24201  0.76627  1.0000
  S   S35       1.0  0.30680  0.28827  0.70277  1.0000
  Fe  Fe19      1.0  0.24366  0.14392  0.96771  1.0000
  S   S36       1.0  0.27853  0.13344  0.00621  1.0000
  S   S37       1.0  0.24425  0.18104  0.93482  1.0000
  H   H103      1.0  0.24755  0.30993  0.74751  1.0000
  H   H104      1.0  0.36803  0.20649  0.81089  1.0000
  C   C75       1.0  0.45972  0.26626  0.82032  1.0000
  C   C76       1.0  0.56641  0.26263  0.82115  1.0000
  S   S38       1.0  0.44740  0.31233  0.85080  1.0000
  C   C77       1.0  0.37395  0.19259  0.83443  1.0000
  S   S39       1.0  0.49537  0.12483  0.77467  1.0000
  C   C78       1.0  0.26955  0.18024  0.80345  1.0000
  C   C79       1.0  0.26488  0.20293  0.82279  1.0000
  C   C80       1.0  0.25694  0.20293  0.86305  1.0000
  C   C81       1.0  0.25346  0.18025  0.88413  1.0000
  C   C82       1.0  0.25795  0.15750  0.86477  1.0000
  C   C83       1.0  0.26596  0.15750  0.82440  1.0000
  H   H105      1.0  0.26762  0.22055  0.80687  1.0000
  H   H106      1.0  0.25384  0.22061  0.87782  1.0000
  H   H107      1.0  0.25535  0.13993  0.88081  1.0000
  H   H108      1.0  0.26953  0.13991  0.80946  1.0000
  H   H109      1.0  0.44244  0.25949  0.83728  1.0000
  Fe  Fe20      1.0  0.21045  0.09926  0.99635  1.0000
  S   S40       1.0  0.14508  0.25360  0.06414  1.0000
  H   H110      1.0  0.21756  0.22859  0.92479  1.0000
  H   H111      1.0  0.37120  0.13199  0.98425  1.0000
  C   C84       1.0  0.59935  0.12084  0.80896  1.0000
  H   H112      1.0  0.19725  0.22620  0.03120  1.0000
  H   H113      1.0  0.18977  0.25019  0.92714  1.0000
  H   H114      1.0  0.24318  0.24355  0.02537  1.0000
  H   H115      1.0  0.33706  0.17654  0.78379  1.0000
  C   C85       1.0  0.24704  0.22522  0.60838  1.0000
  C   C86       1.0  0.46665  0.29163  0.82145  1.0000
  H   H116      1.0  0.59450  0.11209  0.83861  1.0000
  H   H117      1.0  0.58607  0.32411  0.07301  1.0000
  H   H118      1.0  0.25139  0.22294  0.63969  1.0000
  H   H119      1.0  0.32707  0.11488  0.96477  1.0000
  C   C87       1.0  0.41046  0.18243  0.74434  1.0000
  C   C88       1.0  0.42680  0.20372  0.74436  1.0000
  C   C89       1.0  0.41739  0.22664  0.72859  1.0000
  C   C90       1.0  0.39136  0.22836  0.71356  1.0000
  C   C91       1.0  0.37503  0.20708  0.71357  1.0000
  C   C92       1.0  0.38471  0.18407  0.72841  1.0000
  H   H120      1.0  0.20439  0.20773  0.98809  1.0000
  H   H121      1.0  0.42996  0.24312  0.72922  1.0000
  H   H122      1.0  0.35500  0.20818  0.70177  1.0000
  H   H123      1.0  0.37224  0.16757  0.72735  1.0000
  H   H124      1.0  0.61467  0.28552  0.82373  1.0000
  H   H125      1.0  0.14436  0.13354  0.00010  1.0000
  H   H126      1.0  0.37912  0.14468  0.85987  1.0000
  C   C93       1.0  0.36152  0.15534  0.87229  1.0000
  H   H127      1.0  0.50989  0.19292  0.63957  1.0000
  H   H128      1.0  0.49425  0.31976  0.79940  1.0000
  C   C94       1.0  0.55045  0.30117  0.85048  1.0000
  H   H129      1.0  0.58732  0.13858  0.80716  1.0000
  N   N7        1.0  0.35200  0.17470  0.84359  1.0000
  H   H130      1.0  0.33408  0.19815  0.88867  1.0000
  C   C95       1.0  0.36637  0.11260  0.99105  1.0000
  C   C96       1.0  0.47516  0.23117  0.65258  1.0000
  S   S41       1.0  0.23868  0.10512  0.94401  1.0000
  S   S42       1.0  0.48747  0.17473  0.71605  1.0000
  H   H131      1.0  0.32666  0.14946  0.81203  1.0000
  H   H132      1.0  0.53231  0.29129  0.86262  1.0000
  H   H133      1.0  0.32072  0.20272  0.83960  1.0000
  H   H134      1.0  0.17507  0.22786  0.98960  1.0000
  C   C97       1.0  0.34381  0.16248  0.80657  1.0000
  H   H135      1.0  0.37971  0.20313  0.86121  1.0000
  C   C98       1.0  0.32870  0.18837  0.86097  1.0000
  C   C99       1.0  0.38502  0.09723  0.01091  1.0000
  C   C100      1.0  0.34134  0.10299  0.98033  1.0000
  H   H136      1.0  0.55856  0.08806  0.80725  1.0000
  H   H137      1.0  0.55503  0.31672  0.87088  1.0000
  H   H138      1.0  0.31192  0.17538  0.86875  1.0000
  S   S43       1.0  0.21256  0.13915  0.01643  1.0000
  N   N8        1.0  0.59297  0.10387  0.77609  1.0000
  S   S44       1.0  0.28286  0.29824  0.81248  1.0000
  N   N9        1.0  0.21271  0.24712  0.98079  1.0000
  C   C101      1.0  0.20226  0.27132  0.99587  1.0000
  C   C102      1.0  0.19659  0.22631  0.99813  1.0000
  C   C103      1.0  0.24116  0.24378  0.99235  1.0000
  C   C104      1.0  0.21085  0.24698  0.93689  1.0000
  H   H139      1.0  0.21384  0.28745  0.98312  1.0000
  H   H140      1.0  0.20367  0.27216  0.02890  1.0000
  H   H141      1.0  0.18067  0.27428  0.98838  1.0000
  Fe  Fe21      1.0  0.43321  0.08763  0.07669  1.0000
  H   H142      1.0  0.39238  0.18270  0.82339  1.0000
  H   H143      1.0  0.44648  0.20269  0.75731  1.0000
  S   S45       1.0  0.60889  0.23636  0.06980  1.0000
  H   H144      1.0  0.34542  0.14149  0.87973  1.0000
  H   H145      1.0  0.52015  0.15244  0.95486  1.0000
  H   H146      1.0  0.36077  0.15147  0.79315  1.0000
  H   H147      1.0  0.37884  0.11660  0.09485  1.0000
  H   H148      1.0  0.36791  0.16382  0.90062  1.0000
  H   H149      1.0  0.38470  0.27718  0.77578  1.0000
  H   H150      1.0  0.35024  0.30728  0.83417  1.0000
  H   H151      1.0  0.24967  0.22570  0.98139  1.0000
  N   N10       1.0  0.37700  0.31651  0.78494  1.0000
  H   H152      1.0  0.49642  0.27042  0.61083  1.0000
  N   N11       1.0  0.49831  0.23074  0.62416  1.0000
  H   H153      1.0  0.60212  0.31435  0.84480  1.0000
  H   H154      1.0  0.41432  0.29615  0.77706  1.0000
  Fe  Fe22      1.0  0.60705  0.21151  0.01652  1.0000
  H   H155      1.0  0.53621  0.21121  0.61697  1.0000
  Fe  Fe23      1.0  0.50938  0.19634  0.76174  1.0000
  S   S46       1.0  0.54284  0.16810  0.76609  1.0000
  S   S47       1.0  0.51929  0.23700  0.75045  1.0000
  Fe  Fe24      1.0  0.27091  0.09417  0.98723  1.0000
  C   C105      1.0  0.51852  0.21208  0.63782  1.0000
  Fe  Fe25      1.0  0.51792  0.15016  0.81473  1.0000
  S   S48       1.0  0.54061  0.13472  0.86710  1.0000
  Fe  Fe26      1.0  0.51839  0.14473  0.72586  1.0000
  S   S49       1.0  0.54067  0.12380  0.67836  1.0000
  H   H156      1.0  0.48537  0.10707  0.02234  1.0000
  H   H157      1.0  0.50251  0.13267  0.07609  1.0000
  H   H158      1.0  0.48161  0.23597  0.68313  1.0000
  H   H159      1.0  0.54498  0.31000  0.82139  1.0000
  C   C106      1.0  0.48892  0.30023  0.79918  1.0000
  C   C107      1.0  0.13832  0.13278  0.03222  1.0000
  H   H160      1.0  0.34293  0.14100  0.06003  1.0000
  S   S50       1.0  0.17051  0.08086  0.98581  1.0000
  H   H161      1.0  0.58689  0.13410  0.73373  1.0000
  H   H162      1.0  0.22369  0.26173  0.92256  1.0000
  H   H163      1.0  0.33628  0.09622  0.07650  1.0000
  H   H164      1.0  0.59109  0.30511  0.79695  1.0000
  H   H165      1.0  0.56464  0.26557  0.90232  1.0000
  S   S51       1.0  0.58724  0.17979  0.04975  1.0000
  H   H166      1.0  0.49888  0.17220  0.98475  1.0000
  H   H167      1.0  0.47027  0.13457  0.00059  1.0000
  C   C108      1.0  0.58180  0.27462  0.88600  1.0000
  H   H168      1.0  0.55462  0.13296  0.02536  1.0000
  S   S52       1.0  0.48643  0.18067  0.81470  1.0000
  Fe  Fe27      1.0  0.46648  0.15721  0.76913  1.0000
  H   H169      1.0  0.51770  0.26174  0.65173  1.0000
  C   C109      1.0  0.47557  0.24943  0.79808  1.0000
  C   C110      1.0  0.48921  0.12319  0.00149  1.0000
  H   H170      1.0  0.25401  0.25915  0.97998  1.0000
  C   C111      1.0  0.55626  0.15967  0.89051  1.0000
  C   C112      1.0  0.57406  0.15502  0.92172  1.0000
  C   C113      1.0  0.58518  0.17515  0.94205  1.0000
  C   C114      1.0  0.57829  0.19989  0.93137  1.0000
  C   C115      1.0  0.56100  0.20443  0.89956  1.0000
  C   C116      1.0  0.55012  0.18438  0.87904  1.0000
  H   H171      1.0  0.57908  0.13591  0.93044  1.0000
  C   C117      1.0  0.51078  0.25583  0.62195  1.0000
  H   H172      1.0  0.55537  0.22338  0.89136  1.0000
  H   H173      1.0  0.53650  0.18814  0.85492  1.0000
  H   H174      1.0  0.53053  0.31179  0.03982  1.0000
  H   H175      1.0  0.31202  0.14856  0.08599  1.0000
  C   C118      1.0  0.53668  0.13918  0.63218  1.0000
  H   H176      1.0  0.49275  0.11543  0.97123  1.0000
  C   C119      1.0  0.37507  0.32273  0.74199  1.0000
  H   H177      1.0  0.52147  0.29033  0.75889  1.0000
  H   H178      1.0  0.39628  0.28878  0.82240  1.0000
  C   C120      1.0  0.33515  0.07786  0.98874  1.0000
  H   H179      1.0  0.52394  0.15901  0.06550  1.0000
  C   C121      1.0  0.50440  0.28349  0.77628  1.0000
  N   N12       1.0  0.51233  0.13825  0.01420  1.0000
  H   H180      1.0  0.53421  0.10614  0.03679  1.0000
  H   H181      1.0  0.53450  0.17066  0.99358  1.0000
  H   H182      1.0  0.15309  0.12024  0.04753  1.0000
  H   H183      1.0  0.56126  0.26899  0.79042  1.0000
  C   C122      1.0  0.60934  0.08065  0.77962  1.0000
  C   C123      1.0  0.53683  0.12225  0.01546  1.0000
  C   C124      1.0  0.51666  0.15934  0.98565  1.0000
  H   H184      1.0  0.54847  0.25257  0.83359  1.0000
  C   C125      1.0  0.49812  0.25795  0.77641  1.0000
  H   H185      1.0  0.47027  0.22992  0.79787  1.0000
  H   H186      1.0  0.57912  0.14644  0.62527  1.0000
  H   H187      1.0  0.48856  0.16076  0.05451  1.0000
  C   C126      1.0  0.59650  0.29775  0.82708  1.0000
  H   H188      1.0  0.52602  0.21657  0.66792  1.0000
  H   H189      1.0  0.33980  0.29614  0.78683  1.0000
  S   S53       1.0  0.24235  0.08510  0.03777  1.0000
  Fe  Fe28      1.0  0.24715  0.12549  0.05310  1.0000
  S   S54       1.0  0.59033  0.22525  0.95825  1.0000
  H   H190      1.0  0.58316  0.24869  0.81856  1.0000
  H   H191      1.0  0.45965  0.24525  0.64344  1.0000
  N   N13       1.0  0.57380  0.28399  0.84616  1.0000
  C   C127      1.0  0.55942  0.14878  0.61235  1.0000
  H   H192      1.0  0.16412  0.31950  0.06175  1.0000
  C   C128      1.0  0.50659  0.14819  0.05430  1.0000
  C   C129      1.0  0.33411  0.14564  0.08978  1.0000
  H   H193      1.0  0.14050  0.15200  0.04432  1.0000
  C   C130      1.0  0.59899  0.11652  0.73740  1.0000
  C   C131      1.0  0.56407  0.09745  0.77836  1.0000
  H   H194      1.0  0.52861  0.25609  0.60133  1.0000
  H   H195      1.0  0.59388  0.10441  0.71190  1.0000
  H   H196      1.0  0.59839  0.26042  0.88407  1.0000
  H   H197      1.0  0.55133  0.11456  0.77591  1.0000
  H   H198      1.0  0.46512  0.21257  0.65482  1.0000
  H   H199      1.0  0.59909  0.17150  0.96591  1.0000
  C   C132      1.0  0.51116  0.14233  0.61532  1.0000
  H   H200      1.0  0.58890  0.29008  0.90491  1.0000
  C   C133      1.0  0.39375  0.29364  0.79028  1.0000
  H   H201      1.0  0.55908  0.32315  0.01129  1.0000
  H   H202      1.0  0.23972  0.18585  0.60030  1.0000
  H   H203      1.0  0.49352  0.13485  0.63065  1.0000
  H   H204      1.0  0.54192  0.11457  0.98559  1.0000
  Fe  Fe29      1.0  0.12447  0.28603  0.09382  1.0000
  H   H205      1.0  0.55827  0.08501  0.75365  1.0000
  H   H206      1.0  0.36568  0.30717  0.72558  1.0000
  H   H207      1.0  0.12160  0.08447  0.03719  1.0000
  C   C134      1.0  0.34971  0.31201  0.80177  1.0000
  H   H208      1.0  0.33747  0.53495  0.26743  1.0000
  Fe  Fe30      1.0  0.35751  0.41992  0.44672  1.0000
  S   S55       1.0  0.31997  0.44308  0.43935  1.0000
  S   S56       1.0  0.39843  0.43702  0.44922  1.0000
  Fe  Fe31      1.0  0.32833  0.37049  0.44223  1.0000
  S   S57       1.0  0.28827  0.38920  0.43277  1.0000
  H   H209      1.0  0.45164  0.38077  0.45516  1.0000
  Fe  Fe32      1.0  0.31088  0.41554  0.39167  1.0000
  S   S58       1.0  0.29248  0.42835  0.33395  1.0000
  Fe  Fe33      1.0  0.30100  0.41475  0.48073  1.0000
  H   H210      1.0  0.45420  0.43442  0.46848  1.0000
  S   S59       1.0  0.34991  0.39416  0.39608  1.0000
  S   S60       1.0  0.33946  0.39430  0.49334  1.0000
  C   C135      1.0  0.29355  0.36057  0.57896  1.0000
  S   S61       1.0  0.27163  0.53991  0.21141  1.0000
  Fe  Fe34      1.0  0.47608  0.56132  0.12808  1.0000
  C   C136      1.0  0.17574  0.52959  0.11639  1.0000
  H   H211      1.0  0.38507  0.48114  0.25851  1.0000
  H   H212      1.0  0.40219  0.38251  0.45660  1.0000
  C   C137      1.0  0.33667  0.49160  0.22741  1.0000
  H   H213      1.0  0.26654  0.46404  0.47355  1.0000
  C   C138      1.0  0.24498  0.46919  0.46915  1.0000
  H   H214      1.0  0.44449  0.34403  0.52522  1.0000
  N   N14       1.0  0.42591  0.34929  0.46815  1.0000
  H   H215      1.0  0.38426  0.49064  0.18615  1.0000
  H   H216      1.0  0.36232  0.51479  0.16717  1.0000
  H   H217      1.0  0.34198  0.47166  0.59028  1.0000
  C   C139      1.0  0.38045  0.55590  0.11620  1.0000
  C   C140      1.0  0.34924  0.53446  0.23889  1.0000
  H   H218      1.0  0.23148  0.43383  0.41688  1.0000
  C   C141      1.0  0.19795  0.54133  0.13294  1.0000
  C   C142      1.0  0.29471  0.46092  0.32677  1.0000
  C   C143      1.0  0.31407  0.47458  0.34670  1.0000
  C   C144      1.0  0.31363  0.50086  0.34479  1.0000
  C   C145      1.0  0.29425  0.51354  0.32211  1.0000
  C   C146      1.0  0.27570  0.49988  0.30051  1.0000
  C   C147      1.0  0.27592  0.47355  0.30290  1.0000
  H   H219      1.0  0.32935  0.46490  0.36375  1.0000
  H   H220      1.0  0.32820  0.51138  0.36119  1.0000
  H   H221      1.0  0.26046  0.50958  0.28333  1.0000
  H   H222      1.0  0.26100  0.46301  0.28724  1.0000
  H   H223      1.0  0.20595  0.49837  0.43750  1.0000
  H   H224      1.0  0.24083  0.48642  0.48652  1.0000
  H   H225      1.0  0.25884  0.36672  0.51904  1.0000
  H   H226      1.0  0.59701  0.42503  0.19971  1.0000
  H   H227      1.0  0.32464  0.49057  0.25566  1.0000
  H   H228      1.0  0.58672  0.46940  0.21349  1.0000
  N   N15       1.0  0.35959  0.50895  0.23064  1.0000
  C   C148      1.0  0.44254  0.42963  0.49506  1.0000
  H   H229      1.0  0.34366  0.47219  0.22065  1.0000
  H   H230      1.0  0.42685  0.37327  0.51881  1.0000
  H   H231      1.0  0.31986  0.45160  0.53338  1.0000
  C   C149      1.0  0.41438  0.43043  0.49434  1.0000
  C   C150      1.0  0.39939  0.42462  0.52896  1.0000
  C   C151      1.0  0.41257  0.41708  0.56388  1.0000
  S   S62       1.0  0.27117  0.42228  0.52966  1.0000
  C   C152      1.0  0.54193  0.43246  0.14178  1.0000
  H   H232      1.0  0.37767  0.42612  0.52899  1.0000
  H   H233      1.0  0.40095  0.41215  0.59043  1.0000
  H   H234      1.0  0.54387  0.46818  0.26445  1.0000
  H   H235      1.0  0.39461  0.51310  0.26662  1.0000
  H   H236      1.0  0.33573  0.54129  0.21490  1.0000
  H   H237      1.0  0.59285  0.43444  0.32966  1.0000
  C   C153      1.0  0.37706  0.50044  0.26353  1.0000
  C   C154      1.0  0.31134  0.44945  0.56313  1.0000
  H   H238      1.0  0.42328  0.55372  0.10432  1.0000
  N   N16       1.0  0.61102  0.53273  0.12687  1.0000
  H   H239      1.0  0.36592  0.54819  0.24096  1.0000
  H   H240      1.0  0.32276  0.49780  0.20338  1.0000
  H   H241      1.0  0.23274  0.45372  0.48272  1.0000
  H   H242      1.0  0.45082  0.35780  0.41663  1.0000
  H   H243      1.0  0.23999  0.35301  0.58469  1.0000
  S   S63       1.0  0.47310  0.51974  0.13837  1.0000
  C   C155      1.0  0.37528  0.50936  0.19274  1.0000
  H   H244      1.0  0.26559  0.44317  0.40788  1.0000
  H   H245      1.0  0.25360  0.51105  0.42524  1.0000
  H   H246      1.0  0.36579  0.50010  0.29257  1.0000
  H   H247      1.0  0.39206  0.52312  0.19334  1.0000
  Fe  Fe35      1.0  0.27786  0.56314  0.26534  1.0000
  S   S64       1.0  0.52054  0.56273  0.13836  1.0000
  S   S65       1.0  0.32634  0.55761  0.13257  1.0000
  Fe  Fe36      1.0  0.60323  0.35101  0.28314  1.0000
  N   N17       1.0  0.23910  0.47302  0.42646  1.0000
  C   C156      1.0  0.21054  0.48051  0.42196  1.0000
  C   C157      1.0  0.25664  0.49297  0.40963  1.0000
  C   C158      1.0  0.24428  0.44941  0.40505  1.0000
  C   C159      1.0  0.22122  0.54537  0.10971  1.0000
  H   H248      1.0  0.19678  0.46587  0.43456  1.0000
  H   H249      1.0  0.20552  0.48340  0.38997  1.0000
  C   C160      1.0  0.28761  0.43584  0.56953  1.0000
  H   H250      1.0  0.27835  0.48774  0.41199  1.0000
  H   H251      1.0  0.25259  0.49655  0.37754  1.0000
  C   C161      1.0  0.44072  0.41518  0.56396  1.0000
  H   H252      1.0  0.24051  0.45161  0.37255  1.0000
  S   S66       1.0  0.29289  0.54634  0.32250  1.0000
  H   H253      1.0  0.23869  0.55370  0.12246  1.0000
  Fe  Fe37      1.0  0.29596  0.56937  0.17930  1.0000
  H   H254      1.0  0.14160  0.38357  0.13427  1.0000
  C   C162      1.0  0.40746  0.56208  0.12245  1.0000
  Fe  Fe38      1.0  0.59772  0.37510  0.20185  1.0000
  C   C163      1.0  0.45570  0.42191  0.52977  1.0000
  H   H255      1.0  0.51912  0.46698  0.13538  1.0000
  S   S67       1.0  0.19625  0.55138  0.18233  1.0000
  C   C164      1.0  0.27105  0.34907  0.51884  1.0000
  H   H256      1.0  0.53637  0.33771  0.39180  1.0000
  Fe  Fe39      1.0  0.49834  0.39054  0.58418  1.0000
  S   S68       1.0  0.53209  0.41785  0.57599  1.0000
  Fe  Fe40      1.0  0.53274  0.34612  0.55926  1.0000
  S   S69       1.0  0.56962  0.36949  0.55003  1.0000
  H   H257      1.0  0.60227  0.51050  0.17959  1.0000
  Fe  Fe41      1.0  0.54154  0.39678  0.52018  1.0000
  S   S70       1.0  0.55447  0.41530  0.46239  1.0000
  S   S71       1.0  0.57908  0.33337  0.33307  1.0000
  S   S72       1.0  0.50528  0.37212  0.52549  1.0000
  H   H258      1.0  0.47746  0.42106  0.52990  1.0000
  H   H259      1.0  0.52966  0.46154  0.37331  1.0000
  C   C165      1.0  0.45043  0.36026  0.44949  1.0000
  H   H260      1.0  0.40818  0.34494  0.52681  1.0000
  H   H261      1.0  0.40049  0.35909  0.41891  1.0000
  S   S73       1.0  0.56943  0.38813  0.15452  1.0000
  C   C166      1.0  0.40186  0.36192  0.45158  1.0000
  C   C167      1.0  0.57411  0.45916  0.19357  1.0000
  C   C168      1.0  0.53623  0.45786  0.14921  1.0000
  S   S74       1.0  0.59036  0.38942  0.26326  1.0000
  H   H262      1.0  0.60591  0.56598  0.16164  1.0000
  H   H263      1.0  0.11820  0.42327  0.14861  1.0000
  C   C169      1.0  0.55206  0.47103  0.17572  1.0000
  H   H264      1.0  0.29954  0.34183  0.38855  1.0000
  Fe  Fe42      1.0  0.51813  0.52087  0.14222  1.0000
  H   H265      1.0  0.31243  0.36491  0.56193  1.0000
  H   H266      1.0  0.28950  0.35275  0.50048  1.0000
  N   N18       1.0  0.27801  0.34077  0.55963  1.0000
  H   H267      1.0  0.55322  0.49101  0.30005  1.0000
  C   C170      1.0  0.56074  0.39273  0.42599  1.0000
  C   C171      1.0  0.54425  0.37167  0.42350  1.0000
  C   C172      1.0  0.54937  0.35380  0.39406  1.0000
  C   C173      1.0  0.57131  0.35671  0.36763  1.0000
  C   C174      1.0  0.58772  0.37782  0.37003  1.0000
  C   C175      1.0  0.58238  0.39584  0.39910  1.0000
  H   H268      1.0  0.52728  0.36938  0.44379  1.0000
  S   S75       1.0  0.33314  0.32926  0.45524  1.0000
  H   H269      1.0  0.56002  0.44464  0.38424  1.0000
  C   C176      1.0  0.57987  0.43394  0.18595  1.0000
  C   C177      1.0  0.56349  0.42037  0.16075  1.0000
  S   S76       1.0  0.54429  0.50210  0.18795  1.0000
  H   H270      1.0  0.56159  0.47729  0.37072  1.0000
  N   N19       1.0  0.55435  0.45275  0.32187  1.0000
  C   C178      1.0  0.58330  0.44976  0.31167  1.0000
  C   C179      1.0  0.54030  0.42893  0.31483  1.0000
  C   C180      1.0  0.54256  0.47291  0.29661  1.0000
  C   C181      1.0  0.55125  0.45940  0.36432  1.0000
  H   H271      1.0  0.28167  0.37835  0.58106  1.0000
  H   H272      1.0  0.59476  0.46720  0.31701  1.0000
  H   H273      1.0  0.58649  0.44507  0.27974  1.0000
  H   H274      1.0  0.54887  0.41322  0.33309  1.0000
  H   H275      1.0  0.51845  0.43039  0.32263  1.0000
  H   H276      1.0  0.54207  0.42348  0.28298  1.0000
  H   H277      1.0  0.46898  0.35133  0.46150  1.0000
  C   C182      1.0  0.42637  0.35298  0.51167  1.0000
  H   H278      1.0  0.25940  0.33452  0.50330  1.0000
  H   H279      1.0  0.59544  0.41189  0.40138  1.0000
  H   H280      1.0  0.52087  0.47613  0.30407  1.0000
  H   H281      1.0  0.15790  0.52605  0.13455  1.0000
  C   C183      1.0  0.13000  0.38208  0.10638  1.0000
  H   H282      1.0  0.38301  0.35458  0.46567  1.0000
  H   H283      1.0  0.52979  0.36386  0.11204  1.0000
  H   H284      1.0  0.59680  0.34395  0.44865  1.0000
  C   C184      1.0  0.25301  0.33593  0.58304  1.0000
  H   H285      1.0  0.51149  0.32955  0.48403  1.0000
  H   H286      1.0  0.52921  0.42207  0.12220  1.0000
  Fe  Fe43      1.0  0.23647  0.56575  0.20099  1.0000
  S   S77       1.0  0.60675  0.33541  0.22141  1.0000
  H   H287      1.0  0.60494  0.38001  0.35012  1.0000
  H   H288      1.0  0.57634  0.54708  0.15843  1.0000
  C   C185      1.0  0.35989  0.56641  0.13985  1.0000
  H   H289      1.0  0.57367  0.34116  0.11523  1.0000
  H   H290      1.0  0.12211  0.57417  0.10812  1.0000
  H   H291      1.0  0.57732  0.50898  0.11620  1.0000
  C   C186      1.0  0.61037  0.32801  0.44030  1.0000
  H   H292      1.0  0.51360  0.33541  0.09827  1.0000
  C   C187      1.0  0.59495  0.51733  0.10007  1.0000
  H   H293      1.0  0.12012  0.43149  0.09647  1.0000
  H   H294      1.0  0.61258  0.32844  0.40720  1.0000
  C   C188      1.0  0.59438  0.55394  0.14140  1.0000
  H   H295      1.0  0.12747  0.36171  0.10088  1.0000
  H   H296      1.0  0.58697  0.56591  0.11625  1.0000
  C   C189      1.0  0.27418  0.51643  0.64635  1.0000
  S   S78       1.0  0.20139  0.51815  0.00318  1.0000
  N   N20       1.0  0.27639  0.53638  0.67620  1.0000
  C   C190      1.0  0.26344  0.37169  0.80165  1.0000
  H   H297      1.0  0.56907  0.37960  0.07264  1.0000
  Fe  Fe44      1.0  0.30785  0.44724  0.81705  1.0000
  S   S79       1.0  0.31105  0.48495  0.78708  1.0000
  S   S80       1.0  0.33332  0.43751  0.86947  1.0000
  Fe  Fe45      1.0  0.26186  0.43096  0.76646  1.0000
  S   S81       1.0  0.26035  0.46722  0.73223  1.0000
  N   N21       1.0  0.49132  0.43096  0.70858  1.0000
  Fe  Fe46      1.0  0.30537  0.46369  0.73073  1.0000
  S   S82       1.0  0.32771  0.47327  0.67389  1.0000
  Fe  Fe47      1.0  0.26604  0.48501  0.79095  1.0000
  S   S83       1.0  0.24233  0.51880  0.80908  1.0000
  S   S84       1.0  0.30661  0.42568  0.76031  1.0000
  S   S85       1.0  0.26299  0.44904  0.82597  1.0000
  H   H298      1.0  0.28905  0.49722  0.98993  1.0000
  N   N22       1.0  0.54907  0.34459  0.06328  1.0000
  S   S86       1.0  0.17919  0.46240  0.94227  1.0000
  C   C191      1.0  0.24059  0.34991  0.74946  1.0000
  Fe  Fe48      1.0  0.17048  0.48924  0.99115  1.0000
  H   H299      1.0  0.22740  0.50052  0.92903  1.0000
  Fe  Fe49      1.0  0.16262  0.43317  0.98390  1.0000
  S   S87       1.0  0.23316  0.40072  0.75139  1.0000
  C   C192      1.0  0.22209  0.53846  0.06968  1.0000
  H   H300      1.0  0.19630  0.42443  0.80761  1.0000
  C   C193      1.0  0.14937  0.40543  0.83382  1.0000
  H   H301      1.0  0.22765  0.35031  0.72384  1.0000
  C   C194      1.0  0.27446  0.50306  0.96665  1.0000
  H   H302      1.0  0.15998  0.51257  0.06388  1.0000
  S   S88       1.0  0.45716  0.40226  0.60527  1.0000
  H   H303      1.0  0.16833  0.40793  0.90788  1.0000
  C   C195      1.0  0.20964  0.50839  0.82029  1.0000
  C   C196      1.0  0.19558  0.51784  0.85332  1.0000
  C   C197      1.0  0.17071  0.50752  0.86498  1.0000
  C   C198      1.0  0.15938  0.48847  0.84268  1.0000
  C   C199      1.0  0.17290  0.47976  0.80866  1.0000
  C   C200      1.0  0.19830  0.48934  0.79795  1.0000
  H   H304      1.0  0.20436  0.53243  0.87080  1.0000
  H   H305      1.0  0.16038  0.51420  0.89145  1.0000
  H   H306      1.0  0.16426  0.46493  0.79153  1.0000
  H   H307      1.0  0.20908  0.48194  0.77244  1.0000
  H   H308      1.0  0.29303  0.51463  0.62799  1.0000
  C   C201      1.0  0.27394  0.34878  0.81584  1.0000
  H   H309      1.0  0.60705  0.50151  0.08769  1.0000
  H   H310      1.0  0.28221  0.44004  0.67009  1.0000
  H   H311      1.0  0.29677  0.47949  0.90287  1.0000
  C   C202      1.0  0.54120  0.32905  0.02942  1.0000
  C   C203      1.0  0.36768  0.43888  0.85655  1.0000
  C   C204      1.0  0.38695  0.43278  0.88514  1.0000
  C   C205      1.0  0.41445  0.43298  0.87483  1.0000
  C   C206      1.0  0.42275  0.43930  0.83593  1.0000
  C   C207      1.0  0.40357  0.44626  0.80763  1.0000
  C   C208      1.0  0.37600  0.44585  0.81785  1.0000
  H   H312      1.0  0.38060  0.42759  0.91516  1.0000
  S   S89       1.0  0.15768  0.45936  0.03499  1.0000
  H   H313      1.0  0.40989  0.45123  0.77753  1.0000
  H   H314      1.0  0.36121  0.45059  0.79563  1.0000
  H   H315      1.0  0.51048  0.36325  0.06773  1.0000
  C   C209      1.0  0.19998  0.52670  0.05317  1.0000
  H   H316      1.0  0.13467  0.38996  0.83831  1.0000
  C   C210      1.0  0.25020  0.46415  0.97464  1.0000
  C   C211      1.0  0.31313  0.45783  0.63396  1.0000
  S   S90       1.0  0.55970  0.57447  0.03827  1.0000
  H   H317      1.0  0.24170  0.44753  0.95978  1.0000
  H   H318      1.0  0.50547  0.50021  0.85858  1.0000
  C   C212      1.0  0.50615  0.41661  0.73934  1.0000
  H   H319      1.0  0.29919  0.35487  0.60979  1.0000
  Fe  Fe50      1.0  0.13632  0.46941  0.92584  1.0000
  H   H320      1.0  0.31878  0.52954  0.68479  1.0000
  H   H321      1.0  0.25714  0.52004  0.62591  1.0000
  H   H322      1.0  0.25426  0.50262  0.89272  1.0000
  H   H323      1.0  0.19580  0.38620  0.90143  1.0000
  H   H324      1.0  0.47885  0.45327  0.89947  1.0000
  H   H325      1.0  0.48002  0.46919  0.69561  1.0000
  H   H326      1.0  0.30203  0.46143  0.94770  1.0000
  C   C213      1.0  0.28647  0.46760  0.92604  1.0000
  H   H327      1.0  0.25791  0.51377  0.98172  1.0000
  H   H328      1.0  0.23323  0.47384  0.99036  1.0000
  C   C214      1.0  0.60091  0.39206  0.73022  1.0000
  H   H329      1.0  0.23590  0.47397  0.89902  1.0000
  N   N23       1.0  0.17656  0.39790  0.84711  1.0000
  C   C215      1.0  0.29003  0.44335  0.64034  1.0000
  C   C216      1.0  0.13863  0.37247  0.99081  1.0000
  S   S91       1.0  0.18644  0.39735  0.99016  1.0000
  H   H330      1.0  0.42918  0.42836  0.89717  1.0000
  C   C217      1.0  0.46336  0.42170  0.70687  1.0000
  H   H331      1.0  0.17240  0.35939  0.82994  1.0000
  C   C218      1.0  0.50494  0.42759  0.66952  1.0000
  H   H332      1.0  0.26429  0.45707  0.99778  1.0000
  H   H333      1.0  0.27089  0.49774  0.66083  1.0000
  H   H334      1.0  0.26818  0.38890  0.81652  1.0000
  C   C219      1.0  0.24671  0.37221  0.76854  1.0000
  H   H335      1.0  0.45158  0.43213  0.68385  1.0000
  H   H336      1.0  0.29952  0.56045  0.63689  1.0000
  C   C220      1.0  0.17554  0.39165  0.89017  1.0000
  H   H337      1.0  0.37738  0.35526  0.80223  1.0000
  Fe  Fe51      1.0  0.52533  0.37043  0.85323  1.0000
  H   H338      1.0  0.52627  0.43398  0.66968  1.0000
  C   C221      1.0  0.24454  0.48991  0.91531  1.0000
  C   C222      1.0  0.12978  0.33548  0.03175  1.0000
  N   N24       1.0  0.26390  0.48117  0.94566  1.0000
  C   C223      1.0  0.15707  0.33400  0.04146  1.0000
  H   H339      1.0  0.29691  0.51230  0.71757  1.0000
  S   S92       1.0  0.12002  0.43766  0.96331  1.0000
  H   H340      1.0  0.28682  0.34836  0.84151  1.0000
  C   C224      1.0  0.56738  0.32996  0.08933  1.0000
  H   H341      1.0  0.43901  0.47975  0.90041  1.0000
  H   H342      1.0  0.51172  0.46533  0.72036  1.0000
  C   C225      1.0  0.29946  0.53073  0.70217  1.0000
  H   H343      1.0  0.30167  0.54507  0.72556  1.0000
  H   H344      1.0  0.49028  0.50570  0.96715  1.0000
  H   H345      1.0  0.27947  0.45043  0.91110  1.0000
  H   H346      1.0  0.28493  0.51626  0.94560  1.0000
  H   H347      1.0  0.14155  0.42186  0.85063  1.0000
  C   C226      1.0  0.19540  0.41887  0.83976  1.0000
  H   H348      1.0  0.47564  0.51964  0.86057  1.0000
  S   S93       1.0  0.13024  0.47337  0.86042  1.0000
  H   H349      1.0  0.20660  0.36978  0.83352  1.0000
  C   C227      1.0  0.18591  0.37571  0.82474  1.0000
  H   H350      1.0  0.21627  0.41360  0.84845  1.0000
  H   H351      1.0  0.14412  0.56153  0.04475  1.0000
  C   C228      1.0  0.49315  0.51088  0.93502  1.0000
  S   S94       1.0  0.45699  0.43762  0.82227  1.0000
  C   C229      1.0  0.25133  0.53758  0.70073  1.0000
  H   H352      1.0  0.46292  0.40152  0.69879  1.0000
  S   S95       1.0  0.12892  0.49911  0.97128  1.0000
  H   H353      1.0  0.33631  0.32876  0.79807  1.0000
  C   C230      1.0  0.16545  0.37212  0.00267  1.0000
  H   H354      1.0  0.24006  0.54189  0.05174  1.0000
  C   C231      1.0  0.17497  0.35236  0.02679  1.0000
  S   S96       1.0  0.58625  0.39898  0.65291  1.0000
  H   H355      1.0  0.12409  0.55487  0.00240  1.0000
  C   C232      1.0  0.17692  0.52194  0.07660  1.0000
  H   H356      1.0  0.48520  0.53035  0.93107  1.0000
  H   H357      1.0  0.18918  0.43581  0.85671  1.0000
  H   H358      1.0  0.52778  0.42201  0.73992  1.0000
  H   H359      1.0  0.50540  0.39611  0.73384  1.0000
  H   H360      1.0  0.51525  0.51114  0.92875  1.0000
  H   H361      1.0  0.13144  0.38699  0.97089  1.0000
  C   C233      1.0  0.49091  0.45786  0.71852  1.0000
  N   N25       1.0  0.47928  0.49308  0.90917  1.0000
  H   H362      1.0  0.23342  0.54191  0.68229  1.0000
  S   S97       1.0  0.45321  0.37965  0.89763  1.0000
  H   H363      1.0  0.49434  0.43812  0.64539  1.0000
  H   H364      1.0  0.43189  0.45365  0.99094  1.0000
  H   H365      1.0  0.24740  0.51949  0.71676  1.0000
  H   H366      1.0  0.37558  0.54270  0.09331  1.0000
  H   H367      1.0  0.25250  0.55212  0.72408  1.0000
  H   H368      1.0  0.18668  0.37973  0.79206  1.0000
  S   S98       1.0  0.56795  0.36387  0.83209  1.0000
  Fe  Fe52      1.0  0.49276  0.37944  0.92885  1.0000
  S   S99       1.0  0.49900  0.38584  0.99379  1.0000
  H   H369      1.0  0.53495  0.35839  0.76263  1.0000
  S   S100      1.0  0.50799  0.34445  0.89988  1.0000
  Fe  Fe53      1.0  0.48060  0.51790  0.07234  1.0000
  H   H370      1.0  0.44600  0.48867  0.95043  1.0000
  H   H371      1.0  0.47333  0.48729  0.84683  1.0000
  H   H372      1.0  0.44102  0.51237  0.91301  1.0000
  H   H373      1.0  0.49743  0.41973  0.76956  1.0000
  S   S101      1.0  0.52552  0.51512  0.07700  1.0000
  C   C234      1.0  0.48365  0.50043  0.86690  1.0000
  C   C235      1.0  0.55322  0.36803  0.75378  1.0000
  C   C236      1.0  0.46112  0.42354  0.99247  1.0000
  C   C237      1.0  0.45096  0.44725  0.00274  1.0000
  Fe  Fe54      1.0  0.52497  0.55717  0.07275  1.0000
  C   C238      1.0  0.48556  0.41498  0.00796  1.0000
  Fe  Fe55      1.0  0.47054  0.34716  0.86379  1.0000
  C   C239      1.0  0.46576  0.46291  0.02717  1.0000
  C   C240      1.0  0.48994  0.45412  0.04335  1.0000
  C   C241      1.0  0.49967  0.43003  0.03412  1.0000
  H   H374      1.0  0.50127  0.46592  0.06265  1.0000
  H   H375      1.0  0.51853  0.42341  0.04633  1.0000
  H   H376      1.0  0.39117  0.33353  0.83820  1.0000
  H   H377      1.0  0.19582  0.35195  0.03575  1.0000
  H   H378      1.0  0.48914  0.46203  0.94815  1.0000
  H   H379      1.0  0.58155  0.36244  0.03053  1.0000
  C   C242      1.0  0.49023  0.46750  0.91610  1.0000
  S   S102      1.0  0.48050  0.55968  0.06151  1.0000
  H   H380      1.0  0.51179  0.46602  0.90667  1.0000
  H   H381      1.0  0.48052  0.46098  0.74775  1.0000
  C   C243      1.0  0.59702  0.38415  0.76995  1.0000
  C   C244      1.0  0.57298  0.37253  0.78190  1.0000
  Fe  Fe56      1.0  0.47509  0.40335  0.85173  1.0000
  C   C245      1.0  0.55731  0.37563  0.71386  1.0000
  H   H382      1.0  0.26368  0.56570  0.63572  1.0000
  C   C246      1.0  0.45005  0.49347  0.91857  1.0000
  H   H383      1.0  0.45255  0.42367  0.73605  1.0000
  H   H384      1.0  0.54197  0.37225  0.69248  1.0000
  S   S103      1.0  0.48886  0.37086  0.81485  1.0000
  H   H385      1.0  0.50529  0.40750  0.66116  1.0000
  H   H386      1.0  0.44989  0.41180  0.97285  1.0000
  H   H387      1.0  0.58715  0.52873  0.07452  1.0000
  C   C247      1.0  0.58105  0.38792  0.70208  1.0000
  S   S104      1.0  0.45469  0.49398  0.03410  1.0000
  H   H388      1.0  0.14957  0.41092  0.80164  1.0000
  S   S105      1.0  0.51350  0.40544  0.88534  1.0000
  Fe  Fe57      1.0  0.55654  0.38796  0.60682  1.0000
  H   H389      1.0  0.25886  0.42196  0.61328  1.0000
  C   C248      1.0  0.28073  0.56079  0.65560  1.0000
  C   C249      1.0  0.52468  0.35204  0.08634  1.0000
  C   C250      1.0  0.26840  0.32654  0.79612  1.0000
  S   S106      1.0  0.52202  0.36197  0.61877  1.0000
  H   H390      1.0  0.16169  0.37578  0.89704  1.0000
  H   H391      1.0  0.54980  0.37882  0.02829  1.0000
  H   H392      1.0  0.36256  0.33990  0.73684  1.0000
  C   C251      1.0  0.12082  0.35413  0.00522  1.0000
  C   C252      1.0  0.12509  0.56668  0.02938  1.0000
  C   C253      1.0  0.25186  0.32711  0.76280  1.0000
  C   C254      1.0  0.38942  0.33763  0.80567  1.0000
  H   H393      1.0  0.41021  0.34132  0.79404  1.0000
  C   C255      1.0  0.27696  0.43282  0.60811  1.0000
  C   C256      1.0  0.56303  0.36731  0.04798  1.0000
  H   H394      1.0  0.61243  0.38755  0.79157  1.0000
  H   H395      1.0  0.25754  0.32983  0.61416  1.0000
  H   H396      1.0  0.14265  0.38997  0.08148  1.0000
  H   H397      1.0  0.52737  0.33957  0.00920  1.0000
  H   H398      1.0  0.39534  0.32596  0.72818  1.0000
  C   C257      1.0  0.32389  0.46077  0.59531  1.0000
  C   C258      1.0  0.29825  0.65876  0.12148  1.0000
  H   H399      1.0  0.32856  0.66432  0.18600  1.0000
  S   S107      1.0  0.15195  0.69444  0.26950  1.0000
  C   C259      1.0  0.15835  0.62011  0.15183  1.0000
  S   S108      1.0  0.24056  0.58686  0.25789  1.0000
  C   C260      1.0  0.36638  0.58347  0.16926  1.0000
  S   S109      1.0  0.13989  0.70227  0.15342  1.0000
  N   N26       1.0  0.15497  0.61951  0.19568  1.0000
  S   S110      1.0  0.26684  0.65427  0.21618  1.0000
  Fe  Fe58      1.0  0.12765  0.70795  0.21737  1.0000
  H   H400      1.0  0.35291  0.64004  0.17445  1.0000
  H   H401      1.0  0.31805  0.63253  0.18323  1.0000
  H   H402      1.0  0.11871  0.59782  0.19542  1.0000
  C   C261      1.0  0.33185  0.64660  0.16937  1.0000
  H   H403      1.0  0.12048  0.64422  0.19443  1.0000
  Fe  Fe59      1.0  0.26746  0.61227  0.22127  1.0000
  C   C262      1.0  0.18478  0.68487  0.25617  1.0000
  C   C263      1.0  0.19745  0.69446  0.22166  1.0000
  C   C264      1.0  0.22311  0.68559  0.21020  1.0000
  C   C265      1.0  0.23583  0.66668  0.23268  1.0000
  C   C266      1.0  0.22323  0.65717  0.26730  1.0000
  C   C267      1.0  0.19788  0.66652  0.27932  1.0000
  H   H404      1.0  0.18765  0.70897  0.20410  1.0000
  H   H405      1.0  0.23286  0.69310  0.18353  1.0000
  H   H406      1.0  0.23313  0.64276  0.28498  1.0000
  H   H407      1.0  0.18817  0.65917  0.30614  1.0000
  H   H408      1.0  0.35166  0.61900  0.10868  1.0000
  H   H409      1.0  0.19326  0.60145  0.20522  1.0000
  H   H410      1.0  0.19415  0.63497  0.20472  1.0000
  H   H411      1.0  0.18018  0.61838  0.24720  1.0000
  H   H412      1.0  0.28371  0.64459  0.13345  1.0000
  H   H413      1.0  0.13693  0.59601  0.24124  1.0000
  H   H414      1.0  0.39827  0.60325  0.19783  1.0000
  S   S111      1.0  0.30522  0.59059  0.23421  1.0000
  C   C268      1.0  0.39329  0.59001  0.17507  1.0000
  H   H415      1.0  0.34242  0.68746  0.12408  1.0000
  C   C269      1.0  0.13925  0.59722  0.20822  1.0000
  H   H416      1.0  0.15221  0.65945  0.20060  1.0000
  S   S112      1.0  0.13879  0.76913  0.10232  1.0000
  N   N27       1.0  0.32643  0.65011  0.12648  1.0000
  H   H417      1.0  0.36650  0.66305  0.11274  1.0000
  H   H418      1.0  0.35077  0.59187  0.18730  1.0000
  Fe  Fe60      1.0  0.12029  0.73998  0.14318  1.0000
  C   C270      1.0  0.14052  0.64237  0.20860  1.0000
  H   H419      1.0  0.13732  0.64254  0.24154  1.0000
  H   H420      1.0  0.14933  0.57958  0.19845  1.0000
  H   H421      1.0  0.16943  0.60313  0.14118  1.0000
  C   C271      1.0  0.18178  0.61850  0.21407  1.0000
  C   C272      1.0  0.33053  0.62601  0.10595  1.0000
  S   S113      1.0  0.26022  0.59325  0.16368  1.0000
  C   C273      1.0  0.34506  0.66904  0.10923  1.0000
  H   H422      1.0  0.16996  0.63691  0.14157  1.0000
  C   C274      1.0  0.12402  0.79882  0.10927  1.0000
  S   S114      1.0  0.44744  0.58720  0.16007  1.0000
  H   H423      1.0  0.59851  0.63898  0.10668  1.0000
  H   H424      1.0  0.29408  0.67640  0.13796  1.0000
  H   H425      1.0  0.13852  0.62112  0.13690  1.0000
  H   H426      1.0  0.31711  0.61116  0.11876  1.0000
  H   H427      1.0  0.60225  0.64619  0.15825  1.0000
  C   C275      1.0  0.41388  0.57921  0.15184  1.0000
  C   C276      1.0  0.61277  0.63793  0.13193  1.0000
  H   H428      1.0  0.61665  0.61774  0.13880  1.0000
  S   S115      1.0  0.60741  0.72369  0.94967  1.0000
  C   C277      1.0  0.58859  0.80205  0.86116  1.0000
  H   H429      1.0  0.32619  0.62776  0.07363  1.0000
  H   H430      1.0  0.58504  0.78310  0.01109  1.0000
  C   C278      1.0  0.57543  0.81706  0.04258  1.0000
  H   H431      1.0  0.12681  0.58659  0.01905  1.0000
  C   C279      1.0  0.58942  0.80284  0.01401  1.0000
  H   H432      1.0  0.56046  0.80820  0.06185  1.0000
  C   C280      1.0  0.13458  0.81980  0.08892  1.0000
  H   H433      1.0  0.15237  0.81774  0.07007  1.0000
  C   C281      1.0  0.60625  0.81928  0.79915  1.0000
  H   H434      1.0  0.60074  0.80218  0.78268  1.0000
  S   S116      1.0  0.57016  0.69275  0.04568  1.0000
  C   C282      1.0  0.56683  0.65995  0.04261  1.0000
  C   C283      1.0  0.54690  0.64764  0.06556  1.0000
  C   C284      1.0  0.54445  0.62139  0.06434  1.0000
  C   C285      1.0  0.56202  0.60736  0.04023  1.0000
  C   C286      1.0  0.58204  0.61965  0.01749  1.0000
  C   C287      1.0  0.58432  0.64588  0.01846  1.0000
  H   H435      1.0  0.59263  0.79715  0.89287  1.0000
  H   H436      1.0  0.59551  0.60891  0.99849  1.0000
  H   H437      1.0  0.59930  0.65518  0.99990  1.0000
  Fe  Fe61      1.0  0.60612  0.70920  0.01307  1.0000
  C   C288      1.0  0.60907  0.81415  0.98951  1.0000
  H   H438      1.0  0.34165  0.67210  0.07682  1.0000
  H   H439      1.0  0.52887  0.61206  0.08188  1.0000
  H   H440      1.0  0.57110  0.81527  0.86095  1.0000
  H   H441      1.0  0.53325  0.65843  0.08423  1.0000
  N   N28       1.0  0.61254  0.81320  0.84112  1.0000
  H   H442      1.0  0.58244  0.78445  0.84656  1.0000
  H   H443      1.0  0.29352  0.66226  0.08959  1.0000
  H   H444      1.0  0.28264  0.57622  0.67730  1.0000
  S   S117      1.0  0.40893  0.06476  0.12092  1.0000
  H   H445      1.0  0.12101  0.03231  0.43503  1.0000
  H   H446      1.0  0.59002  0.06821  0.10986  1.0000
  S   S118      1.0  0.59348  0.89680  0.17077  1.0000
  C   C289      1.0  0.48959  0.87223  0.12168  1.0000
  Fe  Fe62      1.0  0.59096  0.89166  0.10485  1.0000
  Fe  Fe63      1.0  0.58558  0.93744  0.15625  1.0000
  S   S119      1.0  0.55760  0.96118  0.19356  1.0000
  N   N29       1.0  0.49780  0.89865  0.12575  1.0000
  H   H447      1.0  0.48047  0.93363  0.14511  1.0000
  H   H448      1.0  0.53993  0.96540  0.11137  1.0000
  H   H449      1.0  0.58394  0.98840  0.11907  1.0000
  C   C290      1.0  0.52759  0.97227  0.17198  1.0000
  C   C291      1.0  0.50690  0.98158  0.19664  1.0000
  C   C292      1.0  0.48236  0.98957  0.18035  1.0000
  C   C293      1.0  0.47841  0.98822  0.13930  1.0000
  C   C294      1.0  0.52392  0.97173  0.13078  1.0000
  H   H450      1.0  0.50972  0.98238  0.22849  1.0000
  H   H451      1.0  0.46634  0.99655  0.19960  1.0000
  C   C295      1.0  0.56402  0.03111  0.14961  1.0000
  C   C296      1.0  0.61250  0.02730  0.14393  1.0000
  N   N30       1.0  0.58715  0.02848  0.12149  1.0000
  H   H452      1.0  0.50669  0.86042  0.11036  1.0000
  H   H453      1.0  0.53747  0.88813  0.14485  1.0000
  H   H454      1.0  0.12580  0.01570  0.18402  1.0000
  Fe  Fe64      1.0  0.44520  0.03906  0.12127  1.0000
  H   H455      1.0  0.12910  0.01757  0.10945  1.0000
  H   H456      1.0  0.40560  0.06051  0.40035  1.0000
  S   S120      1.0  0.46510  0.05813  0.17163  1.0000
  H   H457      1.0  0.61259  0.01106  0.16533  1.0000
  H   H458      1.0  0.52734  0.91941  0.15738  1.0000
  C   C297      1.0  0.49932  0.97956  0.11445  1.0000
  H   H459      1.0  0.61535  0.04468  0.16125  1.0000
  S   S121      1.0  0.44735  0.99710  0.11911  1.0000
  C   C298      1.0  0.47464  0.91380  0.14038  1.0000
  H   H460      1.0  0.51355  0.89320  0.18468  1.0000
  H   H461      1.0  0.56495  0.04896  0.16629  1.0000
  H   H462      1.0  0.12604  0.00424  0.49487  1.0000
  C   C299      1.0  0.51998  0.89990  0.15443  1.0000
  H   H463      1.0  0.54445  0.03133  0.13380  1.0000
  H   H464      1.0  0.48282  0.86394  0.15080  1.0000
  H   H465      1.0  0.45783  0.91415  0.11885  1.0000
  H   H466      1.0  0.39521  0.07196  0.33060  1.0000
  H   H467      1.0  0.46664  0.90642  0.16943  1.0000
  H   H468      1.0  0.56335  0.01538  0.17187  1.0000
  H   H469      1.0  0.47278  0.87055  0.10041  1.0000
  C   C300      1.0  0.58436  0.00516  0.09880  1.0000
  H   H470      1.0  0.13170  0.04314  0.96869  1.0000
  H   H471      1.0  0.19642  0.05322  0.04987  1.0000
  H   H472      1.0  0.23422  0.02291  0.02844  1.0000
  H   H473      1.0  0.49646  0.97899  0.08259  1.0000
  H   H474      1.0  0.27580  0.98500  0.95816  1.0000
  H   H475      1.0  0.26374  0.00068  0.91390  1.0000
  H   H476      1.0  0.25869  0.99804  0.02469  1.0000
  H   H477      1.0  0.34937  0.04289  0.01430  1.0000
  H   H478      1.0  0.52471  0.89770  0.07477  1.0000
  C   C301      1.0  0.17771  0.01688  0.05191  1.0000
  H   H479      1.0  0.60490  0.06745  0.75527  1.0000
  C   C302      1.0  0.35402  0.06237  0.00790  1.0000
  H   H480      1.0  0.28522  0.01687  0.94713  1.0000
  S   S122      1.0  0.12458  0.90542  0.02741  1.0000
  C   C303      1.0  0.22250  0.99378  0.96647  1.0000
  N   N31       1.0  0.24438  0.01235  0.96847  1.0000
  H   H481      1.0  0.12546  0.99960  0.99456  1.0000
  C   C304      1.0  0.15795  0.00154  0.03603  1.0000
  C   C305      1.0  0.14092  0.01124  0.00671  1.0000
  C   C306      1.0  0.14448  0.03589  0.99211  1.0000
  C   C307      1.0  0.16505  0.05084  0.00678  1.0000
  C   C308      1.0  0.18118  0.04152  0.03742  1.0000
  H   H482      1.0  0.21760  0.04440  0.96782  1.0000
  S   S123      1.0  0.30371  0.06578  0.97614  1.0000
  H   H483      1.0  0.56869  0.05200  0.07676  1.0000
  C   C309      1.0  0.25166  0.01590  0.01050  1.0000
  H   H484      1.0  0.22897  0.03453  0.91951  1.0000
  C   C310      1.0  0.37881  0.07213  0.01944  1.0000
  C   C311      1.0  0.23517  0.03653  0.95097  1.0000
  H   H485      1.0  0.21697  0.99016  0.93512  1.0000
  C   C312      1.0  0.26831  0.00326  0.94589  1.0000
  H   H486      1.0  0.58923  0.83296  0.79698  1.0000
  S   S124      1.0  0.15589  0.97019  0.05265  1.0000
  S   S125      1.0  0.56592  0.85929  0.08569  1.0000
  H   H487      1.0  0.20390  0.00048  0.98215  1.0000
  S   S126      1.0  0.57967  0.93161  0.09119  1.0000
  H   H488      1.0  0.19060  0.00956  0.07514  1.0000
  H   H489      1.0  0.49090  0.90780  0.06403  1.0000
  H   H490      1.0  0.51338  0.92847  0.08828  1.0000
  C   C313      1.0  0.60076  0.85388  0.02211  1.0000
  H   H491      1.0  0.13036  0.85952  0.07698  1.0000
  H   H492      1.0  0.26812  0.02982  0.01306  1.0000
  H   H493      1.0  0.25143  0.05074  0.95115  1.0000
  C   C314      1.0  0.58149  0.84245  0.04716  1.0000
  Fe  Fe65      1.0  0.12013  0.94714  0.03530  1.0000
  H   H494      1.0  0.22832  0.97551  0.98063  1.0000
  S   S127      1.0  0.46746  0.06008  0.07276  1.0000
  H   H495      1.0  0.60521  0.87358  0.02515  1.0000
  C   C315      1.0  0.58775  0.05031  0.09366  1.0000
  H   H496      1.0  0.39330  0.06009  0.03430  1.0000
  H   H497      1.0  0.60482  0.04895  0.07177  1.0000
  H   H498      1.0  0.60351  0.85056  0.86120  1.0000
  C   C316      1.0  0.50708  0.90859  0.08649  1.0000
  H   H499      1.0  0.56541  0.00532  0.08156  1.0000
  H   H500      1.0  0.60519  0.07066  0.80848  1.0000
  H   H501      1.0  0.60152  0.00251  0.07731  1.0000
  C   C317      1.0  0.61426  0.83980  0.99290  1.0000
  C   C318      1.0  0.12213  0.84342  0.09278  1.0000
  H   H502      1.0  0.88516  0.11968  0.14061  1.0000
  C   C319      1.0  0.66281  0.29337  0.16248  1.0000
  C   C320      1.0  0.03619  0.16097  0.13846  1.0000
  C   C321      1.0  0.70433  0.16367  0.10045  1.0000
  H   H503      1.0  0.10222  0.18297  0.32578  1.0000
  S   S128      1.0  0.83357  0.09916  0.12244  1.0000
  C   C322      1.0  0.68722  0.30456  0.17237  1.0000
  H   H504      1.0  0.10973  0.15005  0.32640  1.0000
  H   H505      1.0  0.04317  0.13278  0.28280  1.0000
  H   H506      1.0  0.64397  0.30089  0.17393  1.0000
  S   S129      1.0  0.09799  0.26255  0.13396  1.0000
  H   H507      1.0  0.73042  0.30316  0.16514  1.0000
  H   H508      1.0  0.03586  0.17851  0.27872  1.0000
  H   H509      1.0  0.09298  0.17975  0.25015  1.0000
  C   C323      1.0  0.74704  0.18493  0.10123  1.0000
  H   H510      1.0  0.08479  0.21411  0.16624  1.0000
  H   H511      1.0  0.04924  0.13471  0.33523  1.0000
  C   C324      1.0  0.08516  0.16080  0.25822  1.0000
  S   S130      1.0  0.01127  0.15966  0.21152  1.0000
  S   S131      1.0  0.63393  0.18684  0.11734  1.0000
  H   H512      1.0  0.61947  0.28246  0.40925  1.0000
  C   C325      1.0  0.07412  0.18770  0.12139  1.0000
  C   C326      1.0  0.05196  0.18076  0.30097  1.0000
  S   S132      1.0  0.99555  0.08891  0.23924  1.0000
  Fe  Fe66      1.0  0.00749  0.11933  0.19558  1.0000
  C   C327      1.0  0.05910  0.13588  0.30521  1.0000
  H   H513      1.0  0.04794  0.20160  0.21302  1.0000
  C   C328      1.0  0.03334  0.17251  0.17539  1.0000
  C   C329      1.0  0.86212  0.08562  0.14464  1.0000
  C   C330      1.0  0.71159  0.27370  0.13298  1.0000
  H   H514      1.0  0.70761  0.15461  0.13009  1.0000
  H   H515      1.0  0.92631  0.10039  0.16950  1.0000
  N   N32       1.0  0.07232  0.16037  0.29833  1.0000
  H   H516      1.0  0.08431  0.16256  0.35955  1.0000
  S   S133      1.0  0.04674  0.10112  0.17814  1.0000
  C   C331      1.0  0.05627  0.16877  0.11134  1.0000
  C   C332      1.0  0.68736  0.26239  0.12307  1.0000
  C   C333      1.0  0.66289  0.27219  0.13787  1.0000
  H   H517      1.0  0.06119  0.19949  0.29517  1.0000
  H   H518      1.0  0.74932  0.13458  0.10248  1.0000
  C   C334      1.0  0.90851  0.08917  0.16597  1.0000
  H   H519      1.0  0.07387  0.12008  0.30291  1.0000
  C   C335      1.0  0.88520  0.10009  0.14973  1.0000
  H   H520      1.0  0.03426  0.08495  0.30055  1.0000
  H   H521      1.0  0.04203  0.18113  0.33094  1.0000
  C   C336      1.0  0.09299  0.16407  0.32883  1.0000
  H   H522      1.0  0.10232  0.14725  0.25622  1.0000
  H   H523      1.0  0.00952  0.08249  0.36528  1.0000
  C   C337      1.0  0.05016  0.19246  0.18465  1.0000
  H   H524      1.0  0.75147  0.17702  0.13134  1.0000
  H   H525      1.0  0.63825  0.28540  0.45424  1.0000
  S   S134      1.0  0.98403  0.10430  0.14465  1.0000
  H   H526      1.0  0.02293  0.14592  0.13075  1.0000
  C   C338      1.0  0.07093  0.19968  0.15800  1.0000
  Fe  Fe67      1.0  0.02252  0.08368  0.13078  1.0000
  H   H527      1.0  0.64411  0.26344  0.13047  1.0000
  H   H528      1.0  0.07058  0.15573  0.23495  1.0000
  H   H529      1.0  0.73685  0.20348  0.10547  1.0000
  C   C339      1.0  0.71153  0.29464  0.15756  1.0000
  H   H530      1.0  0.73052  0.26623  0.12164  1.0000
  H   H531      1.0  0.69342  0.18171  0.10553  1.0000
  C   C340      1.0  0.61764  0.28311  0.44237  1.0000
  H   H532      1.0  0.11688  0.10923  0.09726  1.0000
  H   H533      1.0  0.09290  0.16015  0.02815  1.0000
  S   S135      1.0  0.63692  0.12408  0.06380  1.0000
  S   S136      1.0  0.64873  0.19533  0.02230  1.0000
  C   C341      1.0  0.09160  0.14067  0.01697  1.0000
  N   N33       1.0  0.11048  0.12356  0.03786  1.0000
  C   C342      1.0  0.67953  0.09254  0.05014  1.0000
  S   S137      1.0  0.04213  0.07980  0.07075  1.0000
  C   C343      1.0  0.71358  0.09924  0.99840  1.0000
  C   C344      1.0  0.10837  0.09816  0.02129  1.0000
  C   C345      1.0  0.66563  0.11408  0.03719  1.0000
  C   C346      1.0  0.67527  0.12779  0.00409  1.0000
  C   C347      1.0  0.69912  0.12021  0.98445  1.0000
  H   H534      1.0  0.66432  0.14417  0.99357  1.0000
  H   H535      1.0  0.93883  0.07741  0.03590  1.0000
  Fe  Fe68      1.0  0.62907  0.16572  0.06086  1.0000
  H   H536      1.0  0.73171  0.13007  0.05710  1.0000
  H   H537      1.0  0.08740  0.09109  0.02361  1.0000
  S   S138      1.0  0.68874  0.23605  0.09222  1.0000
  N   N34       1.0  0.73005  0.16783  0.07850  1.0000
  H   H538      1.0  0.71146  0.16702  0.02121  1.0000
  H   H539      1.0  0.05802  0.15993  0.08275  1.0000
  H   H540      1.0  0.70675  0.13099  0.95911  1.0000
  Fe  Fe69      1.0  0.64945  0.21799  0.07810  1.0000
  S   S139      1.0  0.81551  0.07650  0.01909  1.0000
  H   H541      1.0  0.07033  0.13449  0.02130  1.0000
  H   H542      1.0  0.76346  0.14580  0.05591  1.0000
  H   H543      1.0  0.76664  0.18846  0.08556  1.0000
  H   H544      1.0  0.71380  0.19767  0.04192  1.0000
  H   H545      1.0  0.74337  0.18256  0.02145  1.0000
  H   H546      1.0  0.69063  0.15139  0.08373  1.0000
  C   C348      1.0  0.72447  0.17927  0.03902  1.0000
  S   S140      1.0  0.74499  0.09188  0.97679  1.0000
  S   S141      1.0  0.10094  0.19529  0.08867  1.0000
  H   H547      1.0  0.09605  0.14149  0.98437  1.0000
  C   C349      1.0  0.70362  0.08524  0.03098  1.0000
  S   S142      1.0  0.10594  0.31673  0.05663  1.0000
  C   C350      1.0  0.74428  0.14355  0.07332  1.0000
  C   C351      1.0  0.10360  0.12262  0.08090  1.0000
  H   H548      1.0  0.08236  0.11672  0.08632  1.0000
  H   H549      1.0  0.11444  0.09799  0.98920  1.0000
  H   H550      1.0  0.67201  0.08182  0.07560  1.0000
  H   H551      1.0  0.63130  0.08477  0.77799  1.0000
  H   H552      1.0  0.10591  0.14133  0.09458  1.0000
  H   H553      1.0  0.62102  0.12600  0.80852  1.0000
  H   H554      1.0  0.62063  0.12156  0.73434  1.0000
  N   N35       1.0  0.72444  0.40191  0.20864  1.0000
  S   S143      1.0  0.75536  0.55605  0.14793  1.0000
  H   H555      1.0  0.76084  0.38768  0.18115  1.0000
  Fe  Fe70      1.0  0.63424  0.39848  0.26157  1.0000
  S   S144      1.0  0.64883  0.43501  0.28608  1.0000
  Fe  Fe71      1.0  0.64963  0.34856  0.22418  1.0000
  S   S145      1.0  0.64676  0.36122  0.28764  1.0000
  H   H556      1.0  0.09677  0.38290  0.17027  1.0000
  S   S146      1.0  0.69385  0.51174  0.15567  1.0000
  H   H557      1.0  0.64580  0.43709  0.20010  1.0000
  H   H558      1.0  0.69151  0.41373  0.17176  1.0000
  S   S147      1.0  0.72395  0.56013  0.23601  1.0000
  C   C352      1.0  0.68555  0.49500  0.23332  1.0000
  C   C353      1.0  0.67510  0.47795  0.26200  1.0000
  C   C354      1.0  0.66106  0.45670  0.25014  1.0000
  C   C355      1.0  0.65749  0.45266  0.20961  1.0000
  H   H559      1.0  0.69607  0.51148  0.24267  1.0000
  H   H560      1.0  0.67786  0.48127  0.29338  1.0000
  C   C356      1.0  0.74716  0.38378  0.20711  1.0000
  C   C357      1.0  0.66854  0.46920  0.18103  1.0000
  H   H561      1.0  0.08339  0.36250  0.13364  1.0000
  H   H562      1.0  0.69935  0.37640  0.24264  1.0000
  H   H563      1.0  0.71797  0.44173  0.21377  1.0000
  C   C358      1.0  0.70699  0.39594  0.24361  1.0000
  S   S148      1.0  0.96297  0.56191  0.10606  1.0000
  Fe  Fe72      1.0  0.76328  0.57228  0.20767  1.0000
  C   C359      1.0  0.73478  0.42772  0.21205  1.0000
  H   H564      1.0  0.70020  0.38098  0.16868  1.0000
  H   H565      1.0  0.68917  0.40865  0.24494  1.0000
  H   H566      1.0  0.71787  0.39784  0.27206  1.0000
  C   C360      1.0  0.82849  0.55843  0.20446  1.0000
  H   H567      1.0  0.74688  0.42975  0.23938  1.0000
  S   S149      1.0  0.64080  0.38667  0.19848  1.0000
  C   C361      1.0  0.68226  0.49060  0.19275  1.0000
  H   H568      1.0  0.66578  0.46576  0.14969  1.0000
  H   H569      1.0  0.74776  0.43308  0.18593  1.0000
  H   H570      1.0  0.73974  0.36417  0.20436  1.0000
  H   H571      1.0  0.72132  0.40417  0.14481  1.0000
  S   S150      1.0  0.80389  0.57182  0.23594  1.0000
  Fe  Fe73      1.0  0.71464  0.54690  0.17444  1.0000
  C   C362      1.0  0.70869  0.40013  0.17184  1.0000
  H   H572      1.0  0.75932  0.38437  0.23460  1.0000
  H   H573      1.0  0.80289  0.52890  0.18459  1.0000
  C   C363      1.0  0.84228  0.52709  0.15637  1.0000
  H   H574      1.0  0.63088  0.50017  0.15093  1.0000
  C   C364      1.0  0.86779  0.53804  0.15275  1.0000
  C   C365      1.0  0.08689  0.38259  0.14078  1.0000
  H   H575      1.0  0.89346  0.56742  0.17292  1.0000
  H   H576      1.0  0.83772  0.51071  0.13921  1.0000
  C   C366      1.0  0.82254  0.53745  0.18184  1.0000
  C   C367      1.0  0.87368  0.55911  0.17519  1.0000
  H   H577      1.0  0.08821  0.43201  0.12218  1.0000
  S   S151      1.0  0.89173  0.52571  0.11907  1.0000
  C   C368      1.0  0.85416  0.56909  0.20140  1.0000
  H   H578      1.0  0.06678  0.39187  0.14394  1.0000
  N   N36       1.0  0.10360  0.39506  0.10949  1.0000
  H   H579      1.0  0.63336  0.52754  0.18089  1.0000
  C   C369      1.0  0.10774  0.42159  0.11977  1.0000
  C   C370      1.0  0.61976  0.51710  0.16115  1.0000
  C   C371      1.0  0.63494  0.54241  0.10490  1.0000
  S   S152      1.0  0.68853  0.33092  0.20310  1.0000
  H   H580      1.0  0.63050  0.33176  0.45283  1.0000
  H   H581      1.0  0.64755  0.55409  0.12425  1.0000
  C   C372      1.0  0.84611  0.56647  0.04982  1.0000
  S   S153      1.0  0.08134  0.46828  0.05424  1.0000
  H   H582      1.0  0.97565  0.55938  0.92397  1.0000
  C   C373      1.0  0.03732  0.49912  0.06475  1.0000
  H   H583      1.0  0.98214  0.50423  0.94691  1.0000
  H   H584      1.0  0.62901  0.55405  0.07851  1.0000
  C   C374      1.0  0.01945  0.51831  0.05270  1.0000
  H   H585      1.0  0.84632  0.55733  0.02030  1.0000
  H   H586      1.0  0.00112  0.53840  0.90576  1.0000
  H   H587      1.0  0.96652  0.51634  0.83979  1.0000
  N   N37       1.0  0.96054  0.52487  0.90168  1.0000
  H   H588      1.0  0.61935  0.40149  0.72128  1.0000
  C   C375      1.0  0.93315  0.53532  0.89567  1.0000
  C   C376      1.0  0.98028  0.54547  0.90043  1.0000
  H   H589      1.0  0.00491  0.52588  0.07376  1.0000
  H   H590      1.0  0.09932  0.52377  0.04263  1.0000
  H   H591      1.0  0.98029  0.55567  0.87115  1.0000
  N   N38       1.0  0.10122  0.56302  0.05584  1.0000
  C   C377      1.0  0.02092  0.52796  0.01372  1.0000
  H   H592      1.0  0.94718  0.49589  0.94287  1.0000
  H   H593      1.0  0.92720  0.54833  0.92000  1.0000
  C   C378      1.0  0.05664  0.48967  0.03781  1.0000
  C   C379      1.0  0.05742  0.49878  0.99852  1.0000
  C   C380      1.0  0.03968  0.51795  0.98655  1.0000
  S   S154      1.0  0.00070  0.55331  0.99821  1.0000
  H   H594      1.0  0.95282  0.49109  0.86983  1.0000
  H   H595      1.0  0.07179  0.49115  0.97732  1.0000
  H   H596      1.0  0.04082  0.52528  0.95631  1.0000
  H   H597      1.0  0.98786  0.49893  0.87329  1.0000
  C   C381      1.0  0.96156  0.51178  0.94087  1.0000
  C   C382      1.0  0.96722  0.50699  0.86973  1.0000
  H   H598      1.0  0.91777  0.52028  0.89524  1.0000
  H   H599      1.0  0.10213  0.40247  0.04635  1.0000
  H   H600      1.0  0.95639  0.52475  0.96557  1.0000
  C   C383      1.0  0.08973  0.39394  0.07096  1.0000
  H   H601      1.0  0.93190  0.54619  0.86703  1.0000
  H   H602      1.0  0.09983  0.35493  0.99701  1.0000
  C   C384      1.0  0.79821  0.56064  0.05796  1.0000
  S   S155      1.0  0.92484  0.55601  0.02748  1.0000
  H   H603      1.0  0.77822  0.56964  0.06379  1.0000
  H   H604      1.0  0.08549  0.37417  0.06296  1.0000
  H   H605      1.0  0.07433  0.55858  0.00694  1.0000
  H   H606      1.0  0.85055  0.55177  0.07280  1.0000
  H   H607      1.0  0.08124  0.53258  0.08700  1.0000
  H   H608      1.0  0.80115  0.54582  0.08137  1.0000
  H   H609      1.0  0.07016  0.40434  0.07182  1.0000
  H   H610      1.0  0.79715  0.55125  0.02871  1.0000
  H   H611      1.0  0.05801  0.56704  0.05286  1.0000
  Fe  Fe74      1.0  0.96747  0.56652  0.03958  1.0000
  C   C385      1.0  0.09973  0.53637  0.06866  1.0000
  C   C386      1.0  0.07652  0.57003  0.03410  1.0000
  Fe  Fe75      1.0  0.11637  0.46661  0.01088  1.0000
  H   H612      1.0  0.11736  0.53063  0.08675  1.0000
  Fe  Fe76      1.0  0.91914  0.55544  0.09382  1.0000
  H   H613      1.0  0.64814  0.52679  0.09419  1.0000
  H   H614      1.0  0.03660  0.49206  0.09517  1.0000
  H   H615      1.0  0.78901  0.80738  0.33787  1.0000
  S   S156      1.0  0.73018  0.70824  0.46978  1.0000
  S   S157      1.0  0.68160  0.62537  0.24401  1.0000
  S   S158      1.0  0.71961  0.64200  0.41967  1.0000
  S   S159      1.0  0.74349  0.70707  0.37255  1.0000
  H   H616      1.0  0.85423  0.82143  0.50597  1.0000
  H   H617      1.0  0.02845  0.78260  0.37049  1.0000
  Fe  Fe77      1.0  0.73970  0.67940  0.42359  1.0000
  C   C387      1.0  0.75715  0.79111  0.37403  1.0000
  H   H618      1.0  0.65059  0.68865  0.10537  1.0000
  Fe  Fe78      1.0  0.77479  0.70963  0.47789  1.0000
  C   C388      1.0  0.05504  0.64549  0.12291  1.0000
  H   H619      1.0  0.69999  0.59058  0.30494  1.0000
  H   H620      1.0  0.71341  0.59717  0.37485  1.0000
  H   H621      1.0  0.01882  0.78469  0.27920  1.0000
  H   H622      1.0  0.81305  0.79598  0.52089  1.0000
  H   H623      1.0  0.74043  0.79198  0.54289  1.0000
  Fe  Fe79      1.0  0.70844  0.59738  0.21338  1.0000
  H   H624      1.0  0.72482  0.82009  0.45097  1.0000
  H   H625      1.0  0.75840  0.60654  0.28910  1.0000
  C   C389      1.0  0.80311  0.63430  0.27618  1.0000
  C   C390      1.0  0.82773  0.80278  0.44406  1.0000
  C   C391      1.0  0.69922  0.60921  0.31716  1.0000
  H   H626      1.0  0.73336  0.71462  0.56665  1.0000
  H   H627      1.0  0.78679  0.59169  0.31231  1.0000
  C   C392      1.0  0.86805  0.65190  0.58051  1.0000
  C   C393      1.0  0.68882  0.65353  0.31004  1.0000
  H   H628      1.0  0.85885  0.58527  0.21892  1.0000
  H   H629      1.0  0.87813  0.81106  0.46856  1.0000
  Fe  Fe80      1.0  0.73818  0.73591  0.42003  1.0000
  H   H630      1.0  0.80822  0.76744  0.49454  1.0000
  H   H631      1.0  0.73799  0.64880  0.13614  1.0000
  H   H632      1.0  0.81672  0.81914  0.45685  1.0000
  C   C394      1.0  0.98918  0.80507  0.53643  1.0000
  H   H633      1.0  0.01491  0.76453  0.56668  1.0000
  C   C395      1.0  0.70662  0.61292  0.35676  1.0000
  S   S160      1.0  0.71482  0.77195  0.41721  1.0000
  H   H634      1.0  0.75724  0.75335  0.51066  1.0000
  H   H635      1.0  0.06097  0.76786  0.36628  1.0000
  H   H636      1.0  0.82429  0.57691  0.12172  1.0000
  H   H637      1.0  0.69313  0.80742  0.35174  1.0000
  S   S161      1.0  0.74859  0.61074  0.19093  1.0000
  H   H638      1.0  0.75231  0.65203  0.29083  1.0000
  C   C396      1.0  0.75389  0.77938  0.55879  1.0000
  H   H639      1.0  0.64733  0.65766  0.18356  1.0000
  C   C397      1.0  0.73851  0.79500  0.40511  1.0000
  H   H640      1.0  0.76057  0.60543  0.34252  1.0000
  C   C398      1.0  0.70626  0.63710  0.37244  1.0000
  C   C399      1.0  0.10118  0.80157  0.13393  1.0000
  C   C400      1.0  0.69038  0.62955  0.29377  1.0000
  C   C401      1.0  0.76337  0.75744  0.54058  1.0000
  H   H641      1.0  0.75700  0.77376  0.35774  1.0000
  H   H642      1.0  0.81837  0.61890  0.27396  1.0000
  H   H643      1.0  0.68175  0.66925  0.29213  1.0000
  H   H644      1.0  0.69615  0.67597  0.36146  1.0000
  H   H645      1.0  0.81252  0.79090  0.42950  1.0000
  H   H646      1.0  0.03391  0.75794  0.33561  1.0000
  S   S162      1.0  0.90669  0.59585  0.09728  1.0000
  C   C402      1.0  0.69709  0.65737  0.34919  1.0000
  C   C403      1.0  0.07193  0.78221  0.29105  1.0000
  H   H647      1.0  0.71972  0.69208  0.13623  1.0000
  C   C404      1.0  0.04334  0.77460  0.34893  1.0000
  C   C405      1.0  0.77252  0.60788  0.31439  1.0000
  H   H648      1.0  0.79019  0.63316  0.24952  1.0000
  H   H649      1.0  0.71968  0.68392  0.57410  1.0000
  H   H650      1.0  0.09272  0.78543  0.14937  1.0000
  H   H651      1.0  0.81401  0.65249  0.27441  1.0000
  H   H652      1.0  0.08019  0.81050  0.35573  1.0000
  H   H653      1.0  0.08596  0.57649  0.11196  1.0000
  Fe  Fe81      1.0  0.92621  0.78309  0.39676  1.0000
  S   S163      1.0  0.92236  0.74544  0.42742  1.0000
  S   S164      1.0  0.89132  0.79987  0.36405  1.0000
  Fe  Fe82      1.0  0.98191  0.79171  0.42880  1.0000
  S   S165      1.0  0.98291  0.75515  0.46239  1.0000
  H   H654      1.0  0.09055  0.77683  0.30725  1.0000
  Fe  Fe83      1.0  0.96524  0.73989  0.40675  1.0000
  S   S166      1.0  0.98253  0.70523  0.37866  1.0000
  Fe  Fe84      1.0  0.94016  0.76466  0.47934  1.0000
  S   S167      1.0  0.92271  0.76488  0.54132  1.0000
  S   S168      1.0  0.96762  0.77612  0.37171  1.0000
  S   S169      1.0  0.94069  0.80274  0.45031  1.0000
  H   H655      1.0  0.99962  0.67231  0.16592  1.0000
  H   H656      1.0  0.81648  0.66347  0.56362  1.0000
  S   S170      1.0  0.82059  0.70415  0.34371  1.0000
  N   N39       1.0  0.78690  0.63205  0.31343  1.0000
  Fe  Fe85      1.0  0.95086  0.60266  0.10356  1.0000
  Fe  Fe86      1.0  0.07226  0.72823  0.19614  1.0000
  S   S171      1.0  0.07978  0.72411  0.13051  1.0000
  S   S172      1.0  0.03226  0.74442  0.21551  1.0000
  H   H657      1.0  0.67577  0.65921  0.14981  1.0000
  H   H658      1.0  0.83434  0.76908  0.53046  1.0000
  S   S173      1.0  0.08742  0.68975  0.21206  1.0000
  C   C406      1.0  0.93773  0.69182  0.56821  1.0000
  H   H659      1.0  0.66152  0.62948  0.16357  1.0000
  S   S174      1.0  0.78233  0.73935  0.43139  1.0000
  Fe  Fe87      1.0  0.09833  0.68694  0.14728  1.0000
  C   C407      1.0  0.98586  0.63617  0.25459  1.0000
  H   H660      1.0  0.87044  0.77210  0.43282  1.0000
  C   C408      1.0  0.86342  0.80456  0.49191  1.0000
  C   C409      1.0  0.93483  0.71460  0.54697  1.0000
  H   H661      1.0  0.67505  0.82131  0.15055  1.0000
  H   H662      1.0  0.00597  0.79835  0.51676  1.0000
  H   H663      1.0  0.86719  0.75495  0.47902  1.0000
  H   H664      1.0  0.87511  0.79424  0.51515  1.0000
  H   H665      1.0  0.80595  0.75656  0.34966  1.0000
  S   S175      1.0  0.96545  0.63159  0.14527  1.0000
  C   C410      1.0  0.77538  0.81002  0.36302  1.0000
  H   H666      1.0  0.98617  0.63270  0.22204  1.0000
  N   N40       1.0  0.63808  0.65130  0.12207  1.0000
  C   C411      1.0  0.76715  0.65296  0.31525  1.0000
  H   H667      1.0  0.93416  0.62414  0.27034  1.0000
  H   H668      1.0  0.93765  0.71512  0.51492  1.0000
  C   C412      1.0  0.99574  0.71419  0.33189  1.0000
  C   C413      1.0  0.02146  0.70601  0.31973  1.0000
  C   C414      1.0  0.03275  0.71480  0.28349  1.0000
  C   C415      1.0  0.01810  0.73143  0.25924  1.0000
  C   C416      1.0  0.99201  0.73878  0.27081  1.0000
  C   C417      1.0  0.98083  0.73013  0.30702  1.0000
  H   H669      1.0  0.03304  0.69366  0.33897  1.0000
  H   H670      1.0  0.05302  0.70929  0.27497  1.0000
  H   H671      1.0  0.98054  0.75148  0.25194  1.0000
  H   H672      1.0  0.96062  0.73586  0.31572  1.0000
  C   C418      1.0  0.87167  0.77438  0.35026  1.0000
  C   C419      1.0  0.84356  0.77654  0.35070  1.0000
  C   C420      1.0  0.82769  0.75499  0.34801  1.0000
  C   C421      1.0  0.83999  0.73146  0.34324  1.0000
  C   C422      1.0  0.86808  0.72957  0.34009  1.0000
  C   C423      1.0  0.88392  0.75099  0.34408  1.0000
  H   H673      1.0  0.83410  0.79468  0.35468  1.0000
  C   C424      1.0  0.73879  0.81737  0.42624  1.0000
  H   H674      1.0  0.87764  0.71142  0.33626  1.0000
  H   H675      1.0  0.90567  0.74930  0.34307  1.0000
  H   H676      1.0  0.06437  0.76493  0.27702  1.0000
  H   H677      1.0  0.95206  0.69199  0.25456  1.0000
  H   H678      1.0  0.94871  0.67162  0.31895  1.0000
  C   C425      1.0  0.06251  0.81560  0.33722  1.0000
  H   H679      1.0  0.01124  0.80888  0.31442  1.0000
  H   H680      1.0  0.68375  0.81330  0.30100  1.0000
  H   H681      1.0  0.98398  0.66424  0.31885  1.0000
  Fe  Fe88      1.0  0.78701  0.70771  0.38883  1.0000
  H   H682      1.0  0.62229  0.68729  0.13954  1.0000
  H   H683      1.0  0.00625  0.60334  0.10195  1.0000
  H   H684      1.0  0.77726  0.67152  0.31291  1.0000
  H   H685      1.0  0.81613  0.65104  0.34818  1.0000
  H   H686      1.0  0.79311  0.63177  0.37664  1.0000
  H   H687      1.0  0.07774  0.79545  0.26638  1.0000
  H   H688      1.0  0.94271  0.67479  0.55247  1.0000
  H   H689      1.0  0.04788  0.67971  0.15481  1.0000
  H   H690      1.0  0.84154  0.81008  0.42012  1.0000
  Fe  Fe89      1.0  0.73732  0.59367  0.13340  1.0000
  H   H691      1.0  0.03707  0.80594  0.57210  1.0000
  H   H692      1.0  0.81984  0.61745  0.34779  1.0000
  H   H693      1.0  0.85126  0.69474  0.54468  1.0000
  C   C426      1.0  0.01164  0.65858  0.15018  1.0000
  H   H694      1.0  0.69925  0.70878  0.55338  1.0000
  C   C427      1.0  0.82377  0.77992  0.50664  1.0000
  C   C428      1.0  0.67983  0.81914  0.33226  1.0000
  C   C429      1.0  0.96401  0.65740  0.30938  1.0000
  H   H695      1.0  0.97042  0.79586  0.52689  1.0000
  H   H696      1.0  0.84099  0.75384  0.44265  1.0000
  H   H697      1.0  0.00586  0.64403  0.26191  1.0000
  C   C430      1.0  0.78063  0.74098  0.56106  1.0000
  C   C431      1.0  0.03915  0.66282  0.14377  1.0000
  C   C432      1.0  0.80483  0.63310  0.34805  1.0000
  C   C433      1.0  0.96719  0.67777  0.24456  1.0000
  H   H698      1.0  0.98753  0.68564  0.24946  1.0000
  H   H699      1.0  0.95995  0.63973  0.32648  1.0000
  H   H700      1.0  0.98387  0.61765  0.27012  1.0000
  C   C434      1.0  0.92775  0.73647  0.56722  1.0000
  C   C435      1.0  0.99974  0.63705  0.13552  1.0000
  S   S176      1.0  0.79235  0.71334  0.53871  1.0000
  C   C436      1.0  0.63197  0.67803  0.11344  1.0000
  N   N41       1.0  0.96364  0.65347  0.26590  1.0000
  C   C437      1.0  0.93756  0.64255  0.25499  1.0000
  H   H701      1.0  0.96489  0.67572  0.21185  1.0000
  H   H702      1.0  0.93674  0.63928  0.22230  1.0000
  C   C438      1.0  0.65644  0.64936  0.15617  1.0000
  H   H703      1.0  0.92042  0.65526  0.26296  1.0000
  N   N42       1.0  0.84267  0.78842  0.47481  1.0000
  C   C439      1.0  0.85586  0.76632  0.45662  1.0000
  H   H704      1.0  0.03261  0.81532  0.27157  1.0000
  C   C440      1.0  0.71487  0.70433  0.57591  1.0000
  H   H705      1.0  0.65865  0.81426  0.34036  1.0000
  H   H706      1.0  0.75560  0.65255  0.34393  1.0000
  S   S177      1.0  0.78383  0.67800  0.43660  1.0000
  H   H707      1.0  0.88989  0.65642  0.58197  1.0000
  H   H708      1.0  0.97933  0.76183  0.57645  1.0000
  H   H709      1.0  0.86329  0.64923  0.54861  1.0000
  N   N43       1.0  0.05132  0.79333  0.31799  1.0000
  C   C441      1.0  0.02743  0.80093  0.29483  1.0000
  C   C442      1.0  0.01540  0.61992  0.11369  1.0000
  H   H710      1.0  0.67850  0.77958  0.11730  1.0000
  N   N44       1.0  0.99449  0.79947  0.57885  1.0000
  S   S178      1.0  0.69584  0.58326  0.15423  1.0000
  H   H711      1.0  0.63404  0.80075  0.12558  1.0000
  S   S179      1.0  0.08984  0.65045  0.11715  1.0000
  C   C443      1.0  0.04307  0.62415  0.10742  1.0000
  C   C444      1.0  0.85634  0.69595  0.57676  1.0000
  H   H712      1.0  0.84401  0.71153  0.58943  1.0000
  H   H713      1.0  0.87790  0.70139  0.57844  1.0000
  H   H714      1.0  0.83731  0.60505  0.09894  1.0000
  H   H715      1.0  0.04728  0.82465  0.35727  1.0000
  H   H716      1.0  0.80145  0.60095  0.10472  1.0000
  C   C445      1.0  0.99780  0.77205  0.58488  1.0000
  C   C446      1.0  0.08880  0.82520  0.13789  1.0000
  S   S180      1.0  0.11150  0.74704  0.20794  1.0000
  C   C447      1.0  0.73097  0.65714  0.10877  1.0000
  C   C448      1.0  0.72081  0.68177  0.10874  1.0000
  C   C449      1.0  0.82082  0.59108  0.09761  1.0000
  S   S181      1.0  0.01616  0.81827  0.43281  1.0000
  C   C450      1.0  0.01941  0.81227  0.59035  1.0000
  H   H717      1.0  0.98679  0.82561  0.53061  1.0000
  C   C451      1.0  0.82239  0.66544  0.59527  1.0000
  C   C452      1.0  0.63781  0.81045  0.09642  1.0000
  C   C453      1.0  0.65114  0.63990  0.08673  1.0000
  Fe  Fe90      1.0  0.70505  0.81704  0.75899  1.0000
  S   S182      1.0  0.69158  0.79944  0.70268  1.0000
  H   H718      1.0  0.74539  0.73689  0.84292  1.0000
  Fe  Fe91      1.0  0.70174  0.76326  0.73362  1.0000
  S   S183      1.0  0.67703  0.72869  0.72814  1.0000
  Fe  Fe92      1.0  0.73527  0.80047  0.68497  1.0000
  H   H719      1.0  0.74102  0.68136  0.93645  1.0000
  S   S184      1.0  0.71167  0.78055  0.79171  1.0000
  C   C454      1.0  0.76096  0.78451  0.59796  1.0000
  H   H720      1.0  0.92082  0.79187  0.76598  1.0000
  H   H721      1.0  0.97486  0.80443  0.63585  1.0000
  Fe  Fe93      1.0  0.66435  0.72259  0.02743  1.0000
  S   S185      1.0  0.64471  0.68739  0.00827  1.0000
  C   C455      1.0  0.73398  0.70003  0.92518  1.0000
  Fe  Fe94      1.0  0.64775  0.70428  0.94688  1.0000
  S   S186      1.0  0.66139  0.67873  0.89817  1.0000
  S   S187      1.0  0.67144  0.73749  0.96562  1.0000
  N   N45       1.0  0.85116  0.67196  0.59826  1.0000
  H   H722      1.0  0.78203  0.72230  0.91115  1.0000
  H   H723      1.0  0.71398  0.73102  0.86856  1.0000
  H   H724      1.0  0.62903  0.79865  0.07298  1.0000
  S   S188      1.0  0.74419  0.76241  0.71034  1.0000
  H   H725      1.0  0.86302  0.57997  0.04939  1.0000
  H   H726      1.0  0.04851  0.79353  0.03680  1.0000
  H   H727      1.0  0.73863  0.71416  0.94804  1.0000
  C   C456      1.0  0.71271  0.67932  0.03805  1.0000
  C   C457      1.0  0.72351  0.65488  0.03790  1.0000
  H   H728      1.0  0.70539  0.68774  0.01072  1.0000
  H   H729      1.0  0.72436  0.64447  0.01052  1.0000
  C   C458      1.0  0.73972  0.68720  0.85692  1.0000
  C   C459      1.0  0.67031  0.71513  0.77516  1.0000
  C   C460      1.0  0.66596  0.73018  0.80847  1.0000
  C   C461      1.0  0.66180  0.71911  0.84632  1.0000
  C   C462      1.0  0.66261  0.69296  0.85083  1.0000
  C   C463      1.0  0.66653  0.67794  0.81741  1.0000
  C   C464      1.0  0.67007  0.68900  0.77955  1.0000
  H   H730      1.0  0.66559  0.75031  0.80491  1.0000
  H   H731      1.0  0.65865  0.73076  0.87209  1.0000
  H   H732      1.0  0.66712  0.65770  0.82090  1.0000
  H   H733      1.0  0.67332  0.67730  0.75386  1.0000
  Fe  Fe95      1.0  0.75351  0.78286  0.76616  1.0000
  H   H734      1.0  0.75874  0.73018  0.77165  1.0000
  H   H735      1.0  0.95245  0.79904  0.59567  1.0000
  C   C465      1.0  0.10357  0.57891  0.09124  1.0000
  C   C466      1.0  0.85396  0.79943  0.78763  1.0000
  H   H736      1.0  0.74833  0.69170  0.82683  1.0000
  S   S189      1.0  0.74379  0.61237  0.07357  1.0000
  C   C467      1.0  0.73621  0.73125  0.87219  1.0000
  H   H737      1.0  0.73245  0.68495  0.64534  1.0000
  C   C468      1.0  0.93391  0.69099  0.60969  1.0000
  H   H738      1.0  0.85434  0.65683  0.65797  1.0000
  H   H739      1.0  0.96066  0.64235  0.93005  1.0000
  H   H740      1.0  0.91794  0.68412  0.93103  1.0000
  H   H741      1.0  0.05390  0.79644  0.96306  1.0000
  C   C469      1.0  0.73221  0.64360  0.07345  1.0000
  H   H742      1.0  0.74083  0.74630  0.89354  1.0000
  H   H743      1.0  0.90099  0.77561  0.80328  1.0000
  H   H744      1.0  0.81782  0.64748  0.61134  1.0000
  C   C470      1.0  0.97152  0.80844  0.60363  1.0000
  H   H745      1.0  0.63757  0.64048  0.06065  1.0000
  C   C471      1.0  0.71120  0.69268  0.07356  1.0000
  H   H746      1.0  0.80153  0.73379  0.61589  1.0000
  H   H747      1.0  0.79575  0.60873  0.03237  1.0000
  C   C472      1.0  0.77612  0.70761  0.88990  1.0000
  N   N46       1.0  0.74652  0.70653  0.88606  1.0000
  H   H748      1.0  0.95920  0.66847  0.96280  1.0000
  H   H749      1.0  0.71754  0.68556  0.85383  1.0000
  C   C473      1.0  0.85795  0.67454  0.64062  1.0000
  S   S190      1.0  0.69531  0.72214  0.07475  1.0000
  H   H750      1.0  0.78457  0.68934  0.90065  1.0000
  H   H751      1.0  0.71781  0.74980  0.60965  1.0000
  S   S191      1.0  0.74815  0.82133  0.73877  1.0000
  H   H752      1.0  0.66311  0.81588  0.02514  1.0000
  H   H753      1.0  0.71162  0.69911  0.92319  1.0000
  H   H754      1.0  0.87380  0.80904  0.71401  1.0000
  H   H755      1.0  0.81494  0.59063  0.99691  1.0000
  S   S192      1.0  0.74679  0.81061  0.62188  1.0000
  H   H756      1.0  0.74749  0.66835  0.86610  1.0000
  H   H757      1.0  0.07665  0.59014  0.02449  1.0000
  H   H758      1.0  0.08974  0.79919  0.96883  1.0000
  H   H759      1.0  0.91857  0.65823  0.89758  1.0000
  H   H760      1.0  0.95897  0.59582  0.89224  1.0000
  C   C474      1.0  0.89096  0.82516  0.80769  1.0000
  H   H761      1.0  0.80917  0.68028  0.60835  1.0000
  Fe  Fe96      1.0  0.63083  0.75566  0.97424  1.0000
  Fe  Fe97      1.0  0.92054  0.66314  0.69921  1.0000
  S   S193      1.0  0.89324  0.69368  0.72191  1.0000
  S   S194      1.0  0.93503  0.66197  0.63531  1.0000
  Fe  Fe98      1.0  0.91955  0.63475  0.77837  1.0000
  S   S195      1.0  0.89207  0.66285  0.80752  1.0000
  S   S196      1.0  0.93652  0.60318  0.81558  1.0000
  Fe  Fe99      1.0  0.86986  0.66224  0.75014  1.0000
  S   S197      1.0  0.82498  0.66386  0.74604  1.0000
  Fe  Fe100     1.0  0.91809  0.69129  0.77658  1.0000
  S   S198      1.0  0.93069  0.72542  0.80891  1.0000
  S   S199      1.0  0.89498  0.63156  0.72328  1.0000
  S   S200      1.0  0.94774  0.66338  0.75187  1.0000
  H   H762      1.0  0.05504  0.61099  0.09051  1.0000
  Fe  Fe101     1.0  0.91567  0.59695  0.03182  1.0000
  H   H763      1.0  0.08419  0.79721  0.04307  1.0000
  S   S201      1.0  0.88644  0.61330  0.98821  1.0000
  H   H764      1.0  0.89221  0.81556  0.83731  1.0000
  N   N47       1.0  0.70571  0.71128  0.61643  1.0000
  H   H765      1.0  0.78429  0.77229  0.64831  1.0000
  S   S202      1.0  0.78911  0.77131  0.80259  1.0000
  C   C475      1.0  0.77828  0.76810  0.61836  1.0000
  H   H766      1.0  0.63008  0.77721  0.82771  1.0000
  H   H767      1.0  0.91946  0.75275  0.62451  1.0000
  C   C476      1.0  0.78822  0.74642  0.59987  1.0000
  C   C477      1.0  0.81444  0.69284  0.76476  1.0000
  C   C478      1.0  0.07045  0.81001  0.96745  1.0000
  H   H768      1.0  0.66993  0.64996  0.07786  1.0000
  C   C479      1.0  0.83297  0.70858  0.78259  1.0000
  C   C480      1.0  0.82495  0.73242  0.79538  1.0000
  H   H769      1.0  0.83150  0.61317  0.02675  1.0000
  H   H770      1.0  0.06087  0.81822  0.06699  1.0000
  C   C481      1.0  0.89992  0.78608  0.77432  1.0000
  H   H771      1.0  0.85360  0.70256  0.78624  1.0000
  H   H772      1.0  0.83949  0.74458  0.80861  1.0000
  S   S203      1.0  0.62565  0.74326  0.03794  1.0000
  C   C482      1.0  0.79843  0.74067  0.78997  1.0000
  C   C483      1.0  0.89967  0.60909  0.94013  1.0000
  C   C484      1.0  0.88357  0.61351  0.90691  1.0000
  C   C485      1.0  0.89456  0.61088  0.86839  1.0000
  C   C486      1.0  0.92177  0.60440  0.86317  1.0000
  C   C487      1.0  0.93775  0.59991  0.89635  1.0000
  C   C488      1.0  0.92663  0.60180  0.93480  1.0000
  H   H773      1.0  0.86263  0.61894  0.91091  1.0000
  H   H774      1.0  0.88196  0.61383  0.84274  1.0000
  H   H775      1.0  0.77311  0.68829  0.74801  1.0000
  H   H776      1.0  0.91741  0.68981  0.87809  1.0000
  C   C489      1.0  0.95429  0.74128  0.77863  1.0000
  C   C490      1.0  0.95981  0.73318  0.73986  1.0000
  C   C491      1.0  0.97803  0.74640  0.71516  1.0000
  C   C492      1.0  0.99052  0.76786  0.72914  1.0000
  S   S204      1.0  0.95877  0.60791  0.03811  1.0000
  C   C493      1.0  0.96725  0.76239  0.79292  1.0000
  H   H777      1.0  0.94980  0.71696  0.72855  1.0000
  H   H778      1.0  0.98186  0.74035  0.68495  1.0000
  H   H779      1.0  0.96314  0.76864  0.82293  1.0000
  C   C494      1.0  0.92784  0.71310  0.62990  1.0000
  H   H780      1.0  0.85340  0.78947  0.81706  1.0000
  H   H781      1.0  0.84611  0.78628  0.76526  1.0000
  H   H782      1.0  0.92602  0.71288  0.66190  1.0000
  H   H783      1.0  0.87955  0.67930  0.64369  1.0000
  H   H784      1.0  0.64083  0.79024  0.87360  1.0000
  H   H785      1.0  0.83942  0.81546  0.78952  1.0000
  C   C495      1.0  0.63524  0.79503  0.84241  1.0000
  H   H786      1.0  0.93917  0.59832  0.96027  1.0000
  N   N48       1.0  0.88147  0.80799  0.77690  1.0000
  H   H787      1.0  0.74590  0.71594  0.63795  1.0000
  C   C496      1.0  0.98537  0.77567  0.76817  1.0000
  H   H788      1.0  0.67364  0.70170  0.65777  1.0000
  N   N49       1.0  0.82010  0.57925  0.05813  1.0000
  H   H789      1.0  0.99541  0.79198  0.77931  1.0000
  H   H790      1.0  0.68507  0.67640  0.62713  1.0000
  S   S205      1.0  0.01074  0.78612  0.69695  1.0000
  C   C497      1.0  0.78759  0.70059  0.76117  1.0000
  H   H791      1.0  0.72080  0.71020  0.67611  1.0000
  C   C498      1.0  0.68122  0.79009  0.08855  1.0000
  C   C499      1.0  0.77957  0.72446  0.77396  1.0000
  H   H792      1.0  0.78617  0.71214  0.86075  1.0000
  H   H793      1.0  0.65358  0.80274  0.82717  1.0000
  C   C500      1.0  0.81532  0.59879  0.02716  1.0000
  N   N50       1.0  0.95596  0.67815  0.90050  1.0000
  C   C501      1.0  0.96579  0.66863  0.86169  1.0000
  C   C502      1.0  0.96513  0.70424  0.90527  1.0000
  C   C503      1.0  0.96675  0.66220  0.93311  1.0000
  C   C504      1.0  0.92617  0.67757  0.90192  1.0000
  H   H794      1.0  0.98818  0.66844  0.85954  1.0000
  H   H795      1.0  0.95834  0.68053  0.83655  1.0000
  H   H796      1.0  0.95876  0.64916  0.85662  1.0000
  H   H797      1.0  0.98751  0.70542  0.90385  1.0000
  H   H798      1.0  0.95727  0.71685  0.88128  1.0000
  H   H799      1.0  0.95808  0.71201  0.93424  1.0000
  H   H800      1.0  0.98918  0.66251  0.93334  1.0000
  C   C505      1.0  0.06478  0.80762  0.03914  1.0000
  H   H801      1.0  0.69238  0.74433  0.64729  1.0000
  C   C506      1.0  0.72718  0.70529  0.64518  1.0000
  H   H802      1.0  0.84573  0.68957  0.65518  1.0000
  S   S206      1.0  0.62838  0.79630  0.95609  1.0000
  N   N51       1.0  0.06586  0.82469  0.00394  1.0000
  H   H803      1.0  0.89332  0.77253  0.75167  1.0000
  H   H804      1.0  0.10449  0.59922  0.08270  1.0000
  H   H805      1.0  0.00175  0.76718  0.61669  1.0000
  C   C507      1.0  0.92443  0.73575  0.60868  1.0000
  H   H806      1.0  0.70327  0.79238  0.08316  1.0000
  C   C508      1.0  0.69962  0.73850  0.61722  1.0000
  H   H807      1.0  0.65681  0.61993  0.09256  1.0000
  C   C509      1.0  0.68117  0.69701  0.62735  1.0000
  N   N52       1.0  0.66689  0.81457  0.08889  1.0000
  H   H808      1.0  0.86518  0.63365  0.59660  1.0000
  H   H809      1.0  0.67370  0.77782  0.06469  1.0000
  H   H810      1.0  0.61787  0.68016  0.08821  1.0000
  H   H811      1.0  0.66453  0.70121  0.60637  1.0000
  C   C510      1.0  0.88101  0.82136  0.73795  1.0000
  H   H812      1.0  0.02418  0.80838  0.62214  1.0000
  H   H813      1.0  0.07154  0.82250  0.94047  1.0000
  H   H814      1.0  0.68377  0.74386  0.59555  1.0000
  C   C511      1.0  0.10458  0.00838  0.50268  1.0000
  S   S207      1.0  0.73590  0.90118  0.40743  1.0000
  H   H815      1.0  0.07514  0.04777  0.16985  1.0000
  S   S208      1.0  0.75586  0.95906  0.42282  1.0000
  Fe  Fe102     1.0  0.75512  0.92243  0.45643  1.0000
  C   C512      1.0  0.76324  0.93597  0.55148  1.0000
  Fe  Fe103     1.0  0.74031  0.93700  0.37209  1.0000
  S   S209      1.0  0.70621  0.95295  0.33650  1.0000
  C   C513      1.0  0.81139  0.02984  0.47443  1.0000
  H   H816      1.0  0.70736  0.01464  0.23879  1.0000
  Fe  Fe104     1.0  0.63691  0.90530  0.15802  1.0000
  S   S210      1.0  0.67065  0.88709  0.19243  1.0000
  H   H817      1.0  0.74554  0.96405  0.18681  1.0000
  H   H818      1.0  0.74793  0.96041  0.27761  1.0000
  S   S211      1.0  0.78134  0.92793  0.34703  1.0000
  H   H819      1.0  0.76871  0.98724  0.28443  1.0000
  C   C514      1.0  0.79085  0.93473  0.54259  1.0000
  C   C515      1.0  0.78632  0.99575  0.50482  1.0000
  H   H820      1.0  0.77474  0.00075  0.19502  1.0000
  H   H821      1.0  0.78108  0.02730  0.56616  1.0000
  H   H822      1.0  0.82275  0.01645  0.45519  1.0000
  H   H823      1.0  0.08096  0.97476  0.45601  1.0000
  S   S212      1.0  0.62940  0.94671  0.15051  1.0000
  H   H824      1.0  0.75760  0.85332  0.43219  1.0000
  H   H825      1.0  0.72877  0.01474  0.28156  1.0000
  Fe  Fe105     1.0  0.77854  0.89377  0.38679  1.0000
  S   S213      1.0  0.79728  0.91143  0.43892  1.0000
  C   C516      1.0  0.69675  0.93459  0.29638  1.0000
  C   C517      1.0  0.67244  0.93991  0.27733  1.0000
  C   C518      1.0  0.66451  0.92552  0.24509  1.0000
  C   C519      1.0  0.68098  0.90590  0.23158  1.0000
  C   C520      1.0  0.70552  0.90079  0.25026  1.0000
  C   C521      1.0  0.71341  0.91513  0.28267  1.0000
  H   H826      1.0  0.65952  0.95498  0.28785  1.0000
  H   H827      1.0  0.64538  0.92935  0.23119  1.0000
  H   H828      1.0  0.71843  0.88577  0.23958  1.0000
  H   H829      1.0  0.73244  0.91125  0.29684  1.0000
  C   C522      1.0  0.80941  0.94526  0.56823  1.0000
  C   C523      1.0  0.06034  0.01914  0.47872  1.0000
  H   H830      1.0  0.70708  0.98869  0.27341  1.0000
  H   H831      1.0  0.77615  0.96590  0.24464  1.0000
  C   C524      1.0  0.72983  0.97348  0.20554  1.0000
  H   H832      1.0  0.07085  0.82714  0.15643  1.0000
  H   H833      1.0  0.76788  0.02251  0.23440  1.0000
  H   H834      1.0  0.74586  0.02096  0.19251  1.0000
  H   H835      1.0  0.01755  0.83300  0.58639  1.0000
  S   S214      1.0  0.73985  0.92261  0.51979  1.0000
  H   H836      1.0  0.83929  0.99559  0.51794  1.0000
  H   H837      1.0  0.71751  0.95856  0.22046  1.0000
  N   N53       1.0  0.74203  0.99024  0.23468  1.0000
  H   H838      1.0  0.71641  0.98411  0.18489  1.0000
  C   C525      1.0  0.72040  0.00268  0.25815  1.0000
  H   H839      1.0  0.64515  0.85724  0.31830  1.0000
  C   C526      1.0  0.75836  0.00949  0.21339  1.0000
  C   C527      1.0  0.75951  0.97533  0.26151  1.0000
  H   H840      1.0  0.91387  0.02804  0.10601  1.0000
  H   H841      1.0  0.67029  0.85692  0.27907  1.0000
  H   H842      1.0  0.10410  0.02453  0.52328  1.0000
  C   C528      1.0  0.77520  0.83267  0.38344  1.0000
  H   H843      1.0  0.93741  0.02071  0.36263  1.0000
  H   H844      1.0  0.06912  0.82998  0.31473  1.0000
  S   S215      1.0  0.08105  0.87463  0.11852  1.0000
  Fe  Fe106     1.0  0.03285  0.06931  0.21688  1.0000
  H   H845      1.0  0.76836  0.00092  0.48695  1.0000
  N   N54       1.0  0.08858  0.01373  0.46671  1.0000
  H   H846      1.0  0.71830  0.87154  0.33153  1.0000
  C   C529      1.0  0.75727  0.83615  0.41557  1.0000
  H   H847      1.0  0.72098  0.89022  0.59158  1.0000
  C   C530      1.0  0.08808  0.04196  0.14416  1.0000
  H   H848      1.0  0.98589  0.03539  0.28062  1.0000
  H   H849      1.0  0.97186  0.04551  0.32741  1.0000
  N   N55       1.0  0.80312  0.01782  0.51270  1.0000
  H   H850      1.0  0.77879  0.98688  0.53305  1.0000
  Fe  Fe107     1.0  0.79664  0.94652  0.40140  1.0000
  S   S216      1.0  0.75242  0.99745  0.11416  1.0000
  Fe  Fe108     1.0  0.98023  0.94838  0.42481  1.0000
  S   S217      1.0  0.01887  0.96908  0.42982  1.0000
  S   S218      1.0  0.97047  0.92291  0.37501  1.0000
  Fe  Fe109     1.0  0.95543  0.97197  0.49745  1.0000
  S   S219      1.0  0.99153  0.99535  0.50969  1.0000
  S   S220      1.0  0.91648  0.97133  0.53208  1.0000
  Fe  Fe110     1.0  0.99286  0.00239  0.44369  1.0000
  S   S221      1.0  0.99951  0.04138  0.41913  1.0000
  Fe  Fe111     1.0  0.01499  0.96039  0.49518  1.0000
  H   H851      1.0  0.09591  0.94765  0.58091  1.0000
  S   S222      1.0  0.95440  0.98240  0.43261  1.0000
  S   S223      1.0  0.97865  0.93607  0.48904  1.0000
  H   H852      1.0  0.01195  0.92981  0.57223  1.0000
  H   H853      1.0  0.10934  0.98582  0.18236  1.0000
  C   C531      1.0  0.09893  0.84605  0.11672  1.0000
  H   H854      1.0  0.04754  0.02265  0.45237  1.0000
  C   C532      1.0  0.04810  0.04659  0.30323  1.0000
  H   H855      1.0  0.10746  0.05215  0.14612  1.0000
  S   S224      1.0  0.01216  0.04978  0.16801  1.0000
  N   N56       1.0  0.95668  0.01032  0.30736  1.0000
  H   H856      1.0  0.97065  0.97530  0.33310  1.0000
  H   H857      1.0  0.69327  0.84221  0.39948  1.0000
  H   H858      1.0  0.91630  0.02337  0.31979  1.0000
  H   H859      1.0  0.84418  0.04936  0.15423  1.0000
  C   C533      1.0  0.06605  0.00182  0.14202  1.0000
  C   C534      1.0  0.97763  0.99485  0.32703  1.0000
  H   H860      1.0  0.89542  0.92548  0.34997  1.0000
  C   C535      1.0  0.96710  0.03585  0.29930  1.0000
  H   H861      1.0  0.09657  0.99177  0.51964  1.0000
  H   H862      1.0  0.93297  0.00951  0.25441  1.0000
  C   C536      1.0  0.93256  0.01187  0.33379  1.0000
  C   C537      1.0  0.09975  0.03573  0.44484  1.0000
  H   H863      1.0  0.09944  0.05272  0.46371  1.0000
  C   C538      1.0  0.04913  0.02452  0.32622  1.0000
  C   C539      1.0  0.03509  0.02310  0.36273  1.0000
  C   C540      1.0  0.66672  0.86110  0.31117  1.0000
  H   H864      1.0  0.05282  0.00635  0.16810  1.0000
  H   H865      1.0  0.05966  0.00817  0.31493  1.0000
  H   H866      1.0  0.03506  0.00575  0.37934  1.0000
  C   C541      1.0  0.85358  0.97332  0.43518  1.0000
  C   C542      1.0  0.85244  0.95486  0.46534  1.0000
  C   C543      1.0  0.87144  0.95452  0.49576  1.0000
  C   C544      1.0  0.89133  0.97289  0.49635  1.0000
  C   C545      1.0  0.89198  0.99179  0.46693  1.0000
  C   C546      1.0  0.87332  0.99185  0.43615  1.0000
  C   C547      1.0  0.03033  0.92976  0.58906  1.0000
  H   H867      1.0  0.87102  0.93981  0.51841  1.0000
  H   H868      1.0  0.90702  0.00634  0.46782  1.0000
  H   H869      1.0  0.87415  0.00633  0.41314  1.0000
  H   H870      1.0  0.79789  0.98118  0.48807  1.0000
  H   H871      1.0  0.66723  0.84896  0.12172  1.0000
  C   C548      1.0  0.98511  0.89390  0.38759  1.0000
  C   C549      1.0  0.00590  0.89273  0.41518  1.0000
  S   S225      1.0  0.05475  0.95288  0.52376  1.0000
  H   H872      1.0  0.94237  0.97913  0.27406  1.0000
  H   H873      1.0  0.01405  0.90977  0.42692  1.0000
  H   H874      1.0  0.03203  0.86858  0.44968  1.0000
  H   H875      1.0  0.05139  0.00317  0.49595  1.0000
  H   H876      1.0  0.97614  0.83139  0.37476  1.0000
  H   H877      1.0  0.85057  0.88746  0.41659  1.0000
  H   H878      1.0  0.92467  0.89749  0.41726  1.0000
  H   H879      1.0  0.05507  0.00762  0.11467  1.0000
  H   H880      1.0  0.84760  0.89013  0.36366  1.0000
  H   H881      1.0  0.85479  0.91753  0.39208  1.0000
  H   H882      1.0  0.89984  0.92192  0.42288  1.0000
  N   N57       1.0  0.68488  0.84622  0.33710  1.0000
  H   H883      1.0  0.92060  0.90143  0.34398  1.0000
  C   C550      1.0  0.85905  0.89703  0.38951  1.0000
  C   C551      1.0  0.90860  0.06385  0.17770  1.0000
  H   H884      1.0  0.79806  0.92530  0.51642  1.0000
  H   H885      1.0  0.96689  0.99835  0.24807  1.0000
  C   C552      1.0  0.86217  0.06040  0.15687  1.0000
  H   H886      1.0  0.68347  0.87332  0.38388  1.0000
  C   C553      1.0  0.71056  0.96569  0.10359  1.0000
  H   H887      1.0  0.66979  0.88163  0.31467  1.0000
  H   H888      1.0  0.63033  0.02509  0.12354  1.0000
  H   H889      1.0  0.09352  0.01147  0.20817  1.0000
  C   C554      1.0  0.98461  0.84845  0.38588  1.0000
  H   H890      1.0  0.83075  0.94420  0.56131  1.0000
  C   C555      1.0  0.00511  0.84731  0.41398  1.0000
  C   C556      1.0  0.01616  0.86943  0.42797  1.0000
  C   C557      1.0  0.94941  0.99875  0.26937  1.0000
  H   H891      1.0  0.88236  0.85680  0.35526  1.0000
  S   S226      1.0  0.06130  0.04692  0.25467  1.0000
  H   H892      1.0  0.82463  0.04623  0.47906  1.0000
  H   H893      1.0  0.88831  0.89813  0.32134  1.0000
  C   C558      1.0  0.89282  0.86452  0.38144  1.0000
  S   S227      1.0  0.93798  0.04920  0.19538  1.0000
  C   C559      1.0  0.89856  0.90479  0.34836  1.0000
  C   C560      1.0  0.78740  0.03587  0.53693  1.0000
  C   C561      1.0  0.03451  0.06770  0.31786  1.0000
  H   H894      1.0  0.07800  0.04856  0.11651  1.0000
  C   C562      1.0  0.90257  0.90124  0.41978  1.0000
  C   C563      1.0  0.02028  0.04377  0.37648  1.0000
  H   H895      1.0  0.98313  0.00286  0.35612  1.0000
  H   H896      1.0  0.88525  0.03001  0.18282  1.0000
  C   C564      1.0  0.88531  0.04956  0.17359  1.0000
  H   H897      1.0  0.06850  0.98105  0.14142  1.0000
  N   N58       1.0  0.09236  0.01448  0.14425  1.0000
  C   C565      1.0  0.08953  0.99166  0.44061  1.0000
  N   N59       1.0  0.88826  0.89188  0.38480  1.0000
  H   H898      1.0  0.95216  0.04777  0.28307  1.0000
  H   H899      1.0  0.11058  0.98685  0.43136  1.0000
  H   H900      1.0  0.72737  0.83977  0.34346  1.0000
  S   S228      1.0  0.79592  0.85717  0.36680  1.0000
  H   H901      1.0  0.89516  0.89216  0.44794  1.0000
  C   C566      1.0  0.67983  0.85300  0.37912  1.0000
  C   C567      1.0  0.67768  0.83035  0.12061  1.0000
  C   C568      1.0  0.97494  0.87178  0.37213  1.0000
  H   H902      1.0  0.83714  0.94076  0.46533  1.0000
  H   H903      1.0  0.95923  0.87262  0.35028  1.0000
  H   H904      1.0  0.88514  0.85408  0.40823  1.0000
  S   S229      1.0  0.83040  0.97416  0.39637  1.0000
  H   H905      1.0  0.91463  0.85979  0.37791  1.0000
  C   C569      1.0  0.05391  0.93998  0.57215  1.0000
  H   H906      1.0  0.71747  0.84799  0.29390  1.0000
  H   H907      1.0  0.92427  0.99292  0.34083  1.0000
  H   H908      1.0  0.07776  0.99502  0.41311  1.0000
  H   H909      1.0  0.82185  0.00102  0.56409  1.0000
  H   H910      1.0  0.79362  0.03645  0.45726  1.0000
  H   H911      1.0  0.99637  0.99370  0.30835  1.0000
  C   C570      1.0  0.75424  0.94765  0.58635  1.0000
  C   C571      1.0  0.82733  0.00974  0.53473  1.0000
  H   H912      1.0  0.72027  0.95351  0.12518  1.0000
  C   C572      1.0  0.10587  0.00651  0.18134  1.0000
  C   C573      1.0  0.71322  0.85165  0.32595  1.0000
  H   H913      1.0  0.84087  0.02575  0.54047  1.0000
  H   H914      1.0  0.76879  0.04218  0.52148  1.0000
  Fe  Fe112     1.0  0.97566  0.07190  0.18688  1.0000
  H   H915      1.0  0.05870  0.03598  0.49777  1.0000
  H   H916      1.0  0.93085  0.05759  0.10156  1.0000
  H   H917      1.0  0.73286  0.94894  0.59307  1.0000
  H   H918      1.0  0.79944  0.05282  0.54334  1.0000
  H   H919      1.0  0.69956  0.83402  0.11587  1.0000
  C   C574      1.0  0.10947  0.00764  0.10955  1.0000
  H   H920      1.0  0.08785  0.04030  0.41775  1.0000
  H   H921      1.0  0.11418  0.98719  0.10961  1.0000
  H   H922      1.0  0.65868  0.84901  0.38866  1.0000
  C   C575      1.0  0.02074  0.06635  0.35462  1.0000
  H   H923      1.0  0.67699  0.94103  0.09704  1.0000
  H   H924      1.0  0.62632  0.82852  0.09673  1.0000
  C   C576      1.0  0.07767  0.93984  0.59393  1.0000
  H   H925      1.0  0.66354  0.93637  0.76956  1.0000
  H   H926      1.0  0.78486  0.01467  0.92356  1.0000
  S   S230      1.0  0.71587  0.95768  0.76123  1.0000
  H   H927      1.0  0.73073  0.86731  0.78302  1.0000
  H   H928      1.0  0.88172  0.05840  0.01865  1.0000
  H   H929      1.0  0.67581  0.00834  0.02458  1.0000
  Fe  Fe113     1.0  0.76061  0.96131  0.75460  1.0000
  N   N60       1.0  0.73154  0.88467  0.65316  1.0000
  H   H930      1.0  0.74600  0.91140  0.77527  1.0000
  C   C577      1.0  0.89061  0.05566  0.04869  1.0000
  H   H931      1.0  0.75606  0.89405  0.60166  1.0000
  Fe  Fe114     1.0  0.62419  0.93792  0.08613  1.0000
  C   C578      1.0  0.72471  0.90728  0.77554  1.0000
  C   C579      1.0  0.71608  0.88231  0.77975  1.0000
  C   C580      1.0  0.68851  0.87697  0.78057  1.0000
  H   H932      1.0  0.87794  0.98277  0.65717  1.0000
  C   C581      1.0  0.67330  0.97401  0.05938  1.0000
  H   H933      1.0  0.08743  0.89897  0.82513  1.0000
  C   C582      1.0  0.70574  0.92676  0.77129  1.0000
  S   S231      1.0  0.64146  0.96578  0.04218  1.0000
  H   H934      1.0  0.70879  0.99781  0.87333  1.0000
  C   C583      1.0  0.75297  0.02589  0.86149  1.0000
  C   C584      1.0  0.68561  0.99634  0.04636  1.0000
  C   C585      1.0  0.73255  0.02689  0.92725  1.0000
  C   C586      1.0  0.77085  0.99976  0.91438  1.0000
  C   C587      1.0  0.73787  0.88299  0.61007  1.0000
  H   H935      1.0  0.93395  0.00792  0.02588  1.0000
  Fe  Fe115     1.0  0.77419  0.02750  0.07941  1.0000
  C   C588      1.0  0.72769  0.99028  0.88650  1.0000
  C   C589      1.0  0.66962  0.89653  0.77777  1.0000
  S   S232      1.0  0.76607  0.06883  0.08513  1.0000
  H   H936      1.0  0.74577  0.04270  0.93562  1.0000
  H   H937      1.0  0.73480  0.03464  0.84796  1.0000
  S   S233      1.0  0.78751  0.93403  0.72249  1.0000
  H   H938      1.0  0.64829  0.89247  0.77854  1.0000
  H   H939      1.0  0.62935  0.84864  0.97379  1.0000
  H   H940      1.0  0.72736  0.01619  0.95511  1.0000
  H   H941      1.0  0.71360  0.03538  0.91570  1.0000
  H   H942      1.0  0.91842  0.96272  0.71365  1.0000
  H   H943      1.0  0.96834  0.82906  0.59997  1.0000
  H   H944      1.0  0.63821  0.84517  0.84748  1.0000
  N   N61       1.0  0.74599  0.01070  0.89741  1.0000
  C   C590      1.0  0.72493  0.91095  0.66313  1.0000
  C   C591      1.0  0.71029  0.00350  0.06249  1.0000
  H   H945      1.0  0.76586  0.96688  0.63939  1.0000
  H   H946      1.0  0.10945  0.92162  0.80209  1.0000
  H   H947      1.0  0.70315  0.86910  0.69588  1.0000
  S   S234      1.0  0.77831  0.99532  0.72427  1.0000
  H   H948      1.0  0.76307  0.01428  0.83825  1.0000
  C   C592      1.0  0.01063  0.03851  0.06565  1.0000
  H   H949      1.0  0.78199  0.98797  0.89238  1.0000
  C   C593      1.0  0.67822  0.92136  0.77278  1.0000
  S   S235      1.0  0.77551  0.02778  0.01278  1.0000
  C   C594      1.0  0.72259  0.98827  0.09148  1.0000
  H   H950      1.0  0.91138  0.99493  0.66166  1.0000
  H   H951      1.0  0.72200  0.97843  0.91294  1.0000
  C   C595      1.0  0.00594  0.01342  0.05647  1.0000
  S   S236      1.0  0.78596  0.96333  0.80883  1.0000
  H   H952      1.0  0.76077  0.85639  0.66904  1.0000
  H   H953      1.0  0.76709  0.04128  0.86850  1.0000
  H   H954      1.0  0.71237  0.84867  0.65589  1.0000
  H   H955      1.0  0.73729  0.97772  0.86400  1.0000
  H   H956      1.0  0.76644  0.98783  0.94123  1.0000
  C   C596      1.0  0.70821  0.86859  0.66343  1.0000
  H   H957      1.0  0.86744  0.83813  0.73899  1.0000
  S   S237      1.0  0.81892  0.03044  0.08566  1.0000
  H   H958      1.0  0.02277  0.82601  0.99753  1.0000
  C   C597      1.0  0.80043  0.95661  0.60327  1.0000
  H   H959      1.0  0.77318  0.88790  0.66894  1.0000
  Fe  Fe116     1.0  0.80616  0.99516  0.77603  1.0000
  S   S238      1.0  0.81420  0.03174  0.80502  1.0000
  H   H960      1.0  0.81699  0.06498  0.87067  1.0000
  Fe  Fe117     1.0  0.81466  0.93894  0.77430  1.0000
  C   C598      1.0  0.83264  0.04297  0.91966  1.0000
  S   S239      1.0  0.83740  0.90675  0.80153  1.0000
  H   H961      1.0  0.06819  0.94601  0.74733  1.0000
  S   S240      1.0  0.82387  0.96972  0.63481  1.0000
  H   H962      1.0  0.01268  0.91092  0.64066  1.0000
  S   S241      1.0  0.02976  0.84789  0.75507  1.0000
  C   C599      1.0  0.62008  0.83637  0.86166  1.0000
  Fe  Fe118     1.0  0.96347  0.86761  0.70395  1.0000
  S   S242      1.0  0.98495  0.89385  0.74379  1.0000
  S   S243      1.0  0.92479  0.87588  0.67311  1.0000
  Fe  Fe119     1.0  0.02212  0.87981  0.71228  1.0000
  S   S244      1.0  0.05622  0.90566  0.69740  1.0000
  Fe  Fe120     1.0  0.99066  0.85992  0.78349  1.0000
  S   S245      1.0  0.98498  0.86291  0.84977  1.0000
  S   S246      1.0  0.00020  0.85655  0.66862  1.0000
  S   S247      1.0  0.08626  0.94370  0.08018  1.0000
  Fe  Fe121     1.0  0.05967  0.94609  0.02721  1.0000
  H   H963      1.0  0.71824  0.91261  0.69471  1.0000
  C   C600      1.0  0.82493  0.04688  0.88009  1.0000
  H   H964      1.0  0.08499  0.85438  0.03478  1.0000
  H   H965      1.0  0.83843  0.98860  0.84447  1.0000
  S   S248      1.0  0.05861  0.90459  0.01956  1.0000
  Fe  Fe122     1.0  0.81116  0.07194  0.08531  1.0000
  H   H966      1.0  0.08589  0.90497  0.77245  1.0000
  C   C601      1.0  0.84277  0.01958  0.93205  1.0000
  C   C602      1.0  0.07211  0.94485  0.84836  1.0000
  H   H967      1.0  0.09648  0.92944  0.64915  1.0000
  H   H968      1.0  0.09252  0.95310  0.85076  1.0000
  C   C603      1.0  0.04097  0.92290  0.80720  1.0000
  C   C604      1.0  0.90805  0.94861  0.69547  1.0000
  C   C605      1.0  0.03526  0.04952  0.05509  1.0000
  C   C606      1.0  0.89312  0.93743  0.63002  1.0000
  H   H969      1.0  0.89948  0.00639  0.04359  1.0000
  S   S249      1.0  0.96519  0.83514  0.74670  1.0000
  C   C607      1.0  0.84537  0.00012  0.90471  1.0000
  H   H970      1.0  0.83070  0.05810  0.94052  1.0000
  C   C608      1.0  0.01572  0.86828  0.87300  1.0000
  C   C609      1.0  0.03931  0.85608  0.86007  1.0000
  C   C610      1.0  0.06427  0.86249  0.87578  1.0000
  C   C611      1.0  0.06573  0.88117  0.90441  1.0000
  C   C612      1.0  0.04207  0.89295  0.91807  1.0000
  C   C613      1.0  0.01706  0.88628  0.90275  1.0000
  H   H971      1.0  0.95640  0.04963  0.01971  1.0000
  H   H972      1.0  0.05557  0.96885  0.78171  1.0000
  H   H973      1.0  0.04302  0.90793  0.93923  1.0000
  H   H974      1.0  0.99888  0.89591  0.91262  1.0000
  H   H975      1.0  0.03736  0.91443  0.77774  1.0000
  C   C614      1.0  0.05470  0.91888  0.64929  1.0000
  N   N62       1.0  0.06817  0.93388  0.80875  1.0000
  C   C615      1.0  0.07092  0.95371  0.77761  1.0000
  H   H976      1.0  0.68997  0.87472  0.64696  1.0000
  C   C616      1.0  0.86116  0.89667  0.76616  1.0000
  C   C617      1.0  0.88710  0.88978  0.77799  1.0000
  C   C618      1.0  0.90661  0.88296  0.74941  1.0000
  C   C619      1.0  0.90002  0.88262  0.70908  1.0000
  C   C620      1.0  0.87386  0.88884  0.69736  1.0000
  C   C621      1.0  0.85454  0.89619  0.72585  1.0000
  H   H977      1.0  0.89233  0.89049  0.80913  1.0000
  H   H978      1.0  0.92684  0.87842  0.75869  1.0000
  H   H979      1.0  0.86862  0.88835  0.66625  1.0000
  H   H980      1.0  0.83446  0.90133  0.71665  1.0000
  H   H981      1.0  0.87710  0.84160  0.81111  1.0000
  H   H982      1.0  0.90715  0.02055  0.99610  1.0000
  C   C622      1.0  0.05517  0.03558  0.03510  1.0000
  H   H983      1.0  0.85309  0.98197  0.91427  1.0000
  C   C623      1.0  0.83697  0.00384  0.86531  1.0000
  H   H984      1.0  0.95104  0.96639  0.65489  1.0000
  N   N63       1.0  0.91725  0.04302  0.04622  1.0000
  C   C624      1.0  0.04014  0.83880  0.00098  1.0000
  S   S250      1.0  0.09319  0.95303  0.98272  1.0000
  H   H985      1.0  0.10791  0.83258  0.01147  1.0000
  C   C625      1.0  0.82666  0.02721  0.85308  1.0000
  H   H986      1.0  0.09121  0.96242  0.77787  1.0000
  C   C626      1.0  0.08866  0.91402  0.80177  1.0000
  C   C627      1.0  0.05075  0.01026  0.02693  1.0000
  H   H987      1.0  0.70841  0.91866  0.64442  1.0000
  H   H988      1.0  0.87600  0.04438  0.06686  1.0000
  H   H989      1.0  0.89931  0.98617  0.61372  1.0000
  C   C628      1.0  0.75521  0.87615  0.67603  1.0000
  Fe  Fe123     1.0  0.81961  0.03470  0.01934  1.0000
  N   N64       1.0  0.90957  0.95512  0.65248  1.0000
  H   H990      1.0  0.94767  0.02938  0.08632  1.0000
  C   C629      1.0  0.93795  0.95347  0.63841  1.0000
  S   S251      1.0  0.83766  0.97105  0.74684  1.0000
  Fe  Fe124     1.0  0.00392  0.82591  0.71473  1.0000
  C   C630      1.0  0.02613  0.99921  0.03770  1.0000
  H   H991      1.0  0.03614  0.85013  0.02810  1.0000
  H   H992      1.0  0.65986  0.84578  0.04875  1.0000
  H   H993      1.0  0.02487  0.93717  0.81257  1.0000
  S   S252      1.0  0.63517  0.89708  0.09279  1.0000
  H   H994      1.0  0.05691  0.95981  0.85478  1.0000
  S   S253      1.0  0.85026  0.01417  0.98229  1.0000
  H   H995      1.0  0.91138  0.83259  0.80006  1.0000
  C   C631      1.0  0.91442  0.01838  0.02720  1.0000
  H   H996      1.0  0.75127  0.87724  0.70870  1.0000
  H   H997      1.0  0.87179  0.93739  0.64095  1.0000
  H   H998      1.0  0.03832  0.84168  0.83794  1.0000
  Fe  Fe125     1.0  0.09427  0.91102  0.97902  1.0000
  C   C632      1.0  0.89914  0.98092  0.64600  1.0000
  H   H999      1.0  0.62500  0.83246  0.89338  1.0000
  H   H1000     1.0  0.88677  0.94746  0.70647  1.0000
  C   C633      1.0  0.07799  0.92955  0.63254  1.0000
  C   C634      1.0  0.08820  0.84250  0.00820  1.0000
  H   H1001     1.0  0.99529  0.04931  0.08117  1.0000
  C   C635      1.0  0.03079  0.91899  0.62765  1.0000
  S   S254      1.0  0.09736  0.89053  0.92107  1.0000
  S   S255      1.0  0.02069  0.96741  0.02969  1.0000
  S   S256      1.0  0.67696  0.84604  0.78417  1.0000
  H   H1002     1.0  0.08249  0.85326  0.86519  1.0000
  C   C636      1.0  0.77285  0.95782  0.61245  1.0000
  H   H1003     1.0  0.06634  0.99930  0.01232  1.0000
  Fe  Fe126     1.0  0.80806  0.96831  0.69769  1.0000
  H   H1004     1.0  0.07430  0.04404  0.02708  1.0000
  C   C637      1.0  0.67078  0.82742  0.04983  1.0000
  H   H1005     1.0  0.91778  0.93014  0.70180  1.0000
  H   H1006     1.0  0.90110  0.91794  0.63270  1.0000
  H   H1007     1.0  0.94621  0.93407  0.64242  1.0000
  H   H1008     1.0  0.03832  0.90774  0.82999  1.0000
  H   H1009     1.0  0.07016  0.93040  0.87253  1.0000
  H   H1010     1.0  0.74270  0.92328  0.65895  1.0000
  H   H1011     1.0  0.71944  0.02103  0.05317  1.0000
  C   C638      1.0  0.68600  0.95859  0.08760  1.0000
  C   C639      1.0  0.93612  0.05871  0.02226  1.0000
  H   H1012     1.0  0.98706  0.00470  0.06503  1.0000
  H   H1013     1.0  0.92862  0.06197  0.99151  1.0000
  H   H1014     1.0  0.71450  0.06882  0.04150  1.0000
  H   H1015     1.0  0.09946  0.01230  0.08091  1.0000
  H   H1016     1.0  0.69246  0.83113  0.04328  1.0000
  Fe  Fe127     1.0  0.77107  0.06943  0.01849  1.0000
  C   C640      1.0  0.92787  0.03932  0.08677  1.0000
  H   H1017     1.0  0.74199  0.86327  0.60121  1.0000
  H   H1018     1.0  0.93991  0.95841  0.60615  1.0000
  H   H1019     1.0  0.09002  0.85534  0.98193  1.0000
  H   H1020     1.0  0.04040  0.85204  0.97493  1.0000
  H   H1021     1.0  0.90146  0.82805  0.72881  1.0000
  H   H1022     1.0  0.62387  0.82778  0.78316  1.0000
  Fe  Fe128     1.0  0.08857  0.90252  0.06848  1.0000
  H   H1023     1.0  0.89188  0.07438  0.06280  1.0000
  H   H1024     1.0  0.89294  0.94247  0.59771  1.0000
