data_image0
_chemical_formula_structural       FeS2FeS2FeSFeS3FeS2NH3SHFeCSH4CHCH2CHNHC6H4C2H2FeC6H4C2H3CH4C2H2C6HCNCHC2H4SH3SH2CH2CH7NHCH4FeS2FeS2FeSFeS3FeS2FeS2FeSFeS3HFeS3HFeS3FeS2HFeSHFeS2FeS2FeSFeS3HCH6SHC6H4C6H5FeCSC3H2C7H4C6HNHC6H4C6H4CH6CHC3H4C2HC2H2CHNC2NHNHCSC2HCHC2H3NSNC4H12CHCHNC3H7CH4SH9CH4CH3FeH4CH3C2H3C2HCH2C2HFeHCHNCH3N2H6CHCH5NH2C2H2C4FeH2CH5SH2NHCHCHFeC3H2CH8C2H5SHCHCSCH3CH3C3H5FeCFeS2FeS2FeSFeS3FeS2FeS2HCH10CHCHNC7H4C6H4C3H3SH2CHSCH3FeCHCH5C2S2C2NHCHCSH5FeH3CH5NFeSC2H2CH4CHCH2C3H4FeS2H3FeCHFeS2FeS2FeSFeS3FeS2H4C7H5C2H2CH5C6H8SH2NC4H13CHSH3C2NCHCHC2HNHC3HCHSCFeH8CSC2HC2HSHFeS2FeS2FeS2FeS2FeSFeS3FeS2FeS2FeSFeS3FeS2FeS2FeSFeS3FeS2CHNH3FeS2H3C2H3CH4SH3CH2C6H4CH2C6H4C6H10CH2C6H3C6H5C6H3C7H4C2H2NC4HSH2C2HFeH6NSH10CNC2H4CH8CHSHNH2C2FeH2SHSHCH3NHCH3FeHC2HCH5CHCNH2CH4NCHCH2CH3SCHCH3C3H2CH3C2HCH2CH2CHNHCSCHCH4C4H3NCH2CH2C3HCHC2FeH3NH3CHCH3CH3CHSFeHC2NFeS2FeS2FeS2FeCFeS3H2SHCHFeC2HCSCNC2H2C7H4C2H3C6H9SH3CSH2CH4FeH2NC4H12CHCH3SHCHNHCH2C3FeSFeS2FeS2FeSFeS3FeS2HFeS2FeS2FeSFeS3HCHFeS2H2CNCH2CHCNHCHCH2C6H4CHCH2C7H7CHC6H4C6H7NFeCH2CNC4H12CHSH5CHNC4H14CH6CH2SH3CHCSH2NC2H2CH4C3SH2FeCSC2FeSFeS3CSFeS2HC2HC2H2CNCHC6H7NH2FeCS2CSC4HCH2CHCH3CH2SC2HCH3CH3C2H7NHS2C4H5SFeCH4CH5C2H3SHNH7C2HCH2SCSFeSFeHCFeS2FeS2FeSFeS3NHSFeCH2SNFeS2FeS2FeSFeS3FeS2FeHC2H3SHC6H4C2H3CHC7H4C2SH2C6H5C7H4CH4N2C4H2CH2CSH4CH3FeNC3H3C2H5CHCH9SH2CHCH4CH9CH2CHNCH2FeH7CH2NHCHCSH5CHC2H5CH2FeH2S2FeSFeS2FeS2FeSFeS3FeS2HC3HFeS2FeS2FeSFeS3HSHFeS2H5CHFeHC2H2FeC6H4CH2CHC6H4C6H4CHC6H4CHNC3SH6C2HNH2NC2NCNSH4CHSC2HNC4H7CH10SCH4SC2NC4H12SH4CSCH4CHCHC3HCH2NCHFeH5C2H4CH2C2HFeH2C3H9S2FeS2HCFeHS2HSCFeS2HC6H4SCH2CHC3H2S2FeHCH2C6H3FeH3SCHNCH6CH4CS2C4FeC2HCHSH7CH2FeH2CH2NC2HC2H2CH2NCH3CHCH2NHCH3FeHFeHSHC2H2SFe2S2FeS2FeSFeS3FeS2FeS2FeS2FeSFeS3CS3CH3CHCH2FeCHC3HC6H5CHCHSHC6H4C2SH2C6H6C6H5C2H2NC4H12C2HC2SHCNCH7NC4H4FeH12C3HC2HCHSH3CHFeH12CH4NH3NCH2CH2NSH2C3HSC3HC4H3NH3CFeCHCFeSFeS2FeS2FeSFeS3FeS2FeS2FeS2FeSFeS3H6FeS2H2C2NC2HSC2H3SC7H9NHC6H4C6H4C2H3C6H4NH2NC2H2CHCHCH5CH6SH9SC2HNHSC3H5C2HCH2C2NC4H16C3HCHFeH2CHSCHC3H2CHCH2CHCH2CHCHC3NH5NHFeH3CH5C2HCH3C5H5SHSFeSFeS2H2CHFeSFeSC2HSH4CSFeS2H3SCHCH2CH2C6H5C4H2FeCSHCFeHCHC7H2SH2CH5CH4NH2CHCNH2FeC3HFeSCNFeHCHSH2C2H2CH2CH3SH4C2NCH2CHFeHSFeS3FeS2FeS2FeSFeS3FeS2HNH4FeS2FeS2FeSFeS3HCH2CHFeS2C2HC2HC6H4CHC2SH2C6H4C6H5C2H5C6H4CHS2CHCH8CHCH3CH3CHCH3NFeC2H2NC4H13CH4CH2NH4CH2NC3NC3HSH2FeCH5SHCFeHCH5SFeSFeS2FeS2FeSFeS3HFeCNH2FeS2FeS2FeS2FeSFeS3FeS2CNHCFeH2CHC4H2C6H5CH4CHC6H4C3H3CHC6H4C6H5C2H3NC4H4CH7NC4H12C2H4CH6CH2CNHCS2CHCHFeH2CSCHCH2SHNHCH4CH4CHC2H2CHCH4SH5CH2SH2CHCH2CSCSHFe2S2NH3C2FeSHSNS2C3H4FeSH2C9H4CNH2CHCH4CH4CSHC2H2C7H2NH2NHCH2SFeSHSCH2SH5CH3CH3CHCH3CH2CHC3HCH3CHFeHC2HFeH2SH2FeHSH3SFeS2FeS2FeSFeS3FeS2FeS2FeS2FeSFeS3FeS2HC3H2C6H4CH5NH3C6H4C6H5CH5C7H5SH2CH5C2H2CNC2HFeH2CHC3H5NC4H12SCH10NC3H4CSCH4NCHCH2SHCNH3CHNH3C2HC3HCH6SCFe2S2FeS2FeSFeS3H3CNHFeSHFeHSC2HC2NCH2C6H4C3H2C6H4SC2H2CH3C2H4FeCHSH3C2SHNC4H13CH7CH4CSCH3FeS2FeS2FeSFeS3FeS2FeS2FeSFeS3HSHCHFeS2FeHSH3CHFeS2FeS2HCSFeS2FeS2FeSFeS3CHC6H5C7H4CH2CH2C6H4C6H4C5H2C6H4C6H5C3HN2FeHCH2CH4NHCH3CHC3H3C3H4C2H3CH2CHCHS2HSCNC3H9NC4H4CH7NC4H15CNC3H5C2H3C2H5C2H4CH4SCH2CH3CHNH2C2HCH2C2FeH7C2H3SH3CSCHFeS2FeS2FeSFeS3FeS2FeS2H2SH6C2SHNHCHC6H4C2H3C6H5C3H3CNC4H2FeCHFeCHFeHNC4H12NC4H13SH2CSH2SC2HNHSH2CH2C2HC2H2CH2CH4CFeS2FeS2FeS2FeSFeS3FeS2FeS2H3C6H4C2H2C2HCH2C6H5CH4NC4H12NH2CHSC4FeC3H8SNCH4CHCH6NH5CH2C2FeS2H2FeS2FeS2FeS2FeSFeS3FeS2FeS2FeSFeS3FeS2FeS2FeSFeS3FeS2FeS2NH5C6H4CHC2SH2C6H4C6H4C2H4CHCH5C6H3C6H4C6H2C7H4C3SH4CNCH6SHCHCHC2HNHC2H5CFe2HNC4H12FeH2CSC2H3CH2C2HCNC4H12NH3CH2CHNCH4CH3FeCH4SNH6CH2CH2C2HCHSH4FeNH4SCNC2HCHCHCH4CH3CH2CHCHCH2CS2H5NH4CH2C2HCHCFeSCFeS2FeS2FeSFeS3C2FeHSH3C6H6C2H2C3SH2C7H9N2HCH5SCH3CH2NC4H12CH3CNH2SHCSCHCH3CSFeH
_chemical_formula_sum              "Fe288 S576 N144 H2304 C1440"
_cell_length_a       71.5756
_cell_length_b       71.5406
_cell_length_c       71.639
_cell_angle_alpha    84.2818
_cell_angle_beta     84.2006
_cell_angle_gamma    84.4383

_space_group_name_H-M_alt    "P 1"
_space_group_IT_number       1

loop_
  _space_group_symop_operation_xyz
  'x, y, z'

loop_
  _atom_site_type_symbol
  _atom_site_label
  _atom_site_symmetry_multiplicity
  _atom_site_fract_x
  _atom_site_fract_y
  _atom_site_fract_z
  _atom_site_occupancy
  Fe  Fe1       1.0  0.17936  0.39419  0.14254  1.0000
  S   S1        1.0  0.15813  0.37246  0.14767  1.0000
  S   S2        1.0  0.20616  0.39146  0.12214  1.0000
  Fe  Fe2       1.0  0.15148  0.42456  0.16029  1.0000
  S   S3        1.0  0.12881  0.40442  0.16663  1.0000
  S   S4        1.0  0.13989  0.45461  0.16576  1.0000
  Fe  Fe3       1.0  0.15142  0.38300  0.17674  1.0000
  S   S5        1.0  0.14772  0.36108  0.20272  1.0000
  Fe  Fe4       1.0  0.13715  0.39577  0.13735  1.0000
  S   S6        1.0  0.11291  0.39395  0.11922  1.0000
  S   S7        1.0  0.17404  0.40363  0.17209  1.0000
  S   S8        1.0  0.15840  0.41687  0.13065  1.0000
  Fe  Fe5       1.0  0.09187  0.40433  0.00975  1.0000
  S   S9        1.0  0.06464  0.42249  0.00823  1.0000
  S   S10       1.0  0.11499  0.40628  0.02923  1.0000
  N   N1        1.0  0.10533  0.34614  0.17335  1.0000
  H   H1        1.0  0.20624  0.16211  0.31005  1.0000
  H   H2        1.0  0.09537  0.43788  0.13369  1.0000
  H   H3        1.0  0.10420  0.45484  0.14690  1.0000
  S   S11       1.0  0.06640  0.30754  0.31213  1.0000
  H   H4        1.0  0.09004  0.32497  0.19000  1.0000
  Fe  Fe6       1.0  0.08675  0.33039  0.30859  1.0000
  C   C1        1.0  0.10279  0.48611  0.01564  1.0000
  S   S12       1.0  0.09398  0.34808  0.28021  1.0000
  H   H5        1.0  0.13553  0.34476  0.17261  1.0000
  H   H6        1.0  0.14975  0.38122  0.01412  1.0000
  H   H7        1.0  0.12479  0.44473  0.03313  1.0000
  H   H8        1.0  0.07623  0.34066  0.17448  1.0000
  C   C2        1.0  0.12383  0.33540  0.17545  1.0000
  H   H9        1.0  0.12477  0.32856  0.19004  1.0000
  C   C3        1.0  0.22724  0.37595  0.12156  1.0000
  H   H10       1.0  0.12673  0.32428  0.16548  1.0000
  H   H11       1.0  0.11872  0.37447  0.99022  1.0000
  C   C4        1.0  0.09039  0.33299  0.17583  1.0000
  H   H12       1.0  0.09180  0.36473  0.15217  1.0000
  N   N2        1.0  0.14868  0.36869  0.98819  1.0000
  H   H13       1.0  0.08785  0.36826  0.18659  1.0000
  C   C5        1.0  0.13286  0.35812  0.22444  1.0000
  C   C6        1.0  0.13575  0.34150  0.23653  1.0000
  C   C7        1.0  0.12420  0.33821  0.25360  1.0000
  C   C8        1.0  0.10936  0.35147  0.25888  1.0000
  C   C9        1.0  0.10639  0.36804  0.24670  1.0000
  C   C10       1.0  0.11805  0.37140  0.22971  1.0000
  H   H14       1.0  0.14712  0.33108  0.23273  1.0000
  H   H15       1.0  0.12677  0.32540  0.26268  1.0000
  H   H16       1.0  0.09505  0.37847  0.25056  1.0000
  H   H17       1.0  0.11558  0.38432  0.22076  1.0000
  C   C11       1.0  0.15166  0.47556  0.16278  1.0000
  C   C12       1.0  0.17132  0.47530  0.16111  1.0000
  H   H18       1.0  0.12663  0.47700  0.13090  1.0000
  H   H19       1.0  0.17987  0.46196  0.16129  1.0000
  Fe  Fe7       1.0  0.05282  0.39731  0.99856  1.0000
  C   C13       1.0  0.11389  0.39708  0.09415  1.0000
  C   C14       1.0  0.13047  0.40097  0.08294  1.0000
  C   C15       1.0  0.13050  0.40378  0.06314  1.0000
  C   C16       1.0  0.11402  0.40260  0.05427  1.0000
  C   C17       1.0  0.09741  0.39882  0.06547  1.0000
  C   C18       1.0  0.09737  0.39611  0.08528  1.0000
  H   H20       1.0  0.14333  0.40169  0.08950  1.0000
  H   H21       1.0  0.14346  0.40665  0.05466  1.0000
  H   H22       1.0  0.08461  0.39788  0.05890  1.0000
  H   H23       1.0  0.08443  0.39315  0.09377  1.0000
  C   C19       1.0  0.10161  0.35977  0.18778  1.0000
  C   C20       1.0  0.08888  0.45798  0.02972  1.0000
  H   H24       1.0  0.09329  0.48082  0.12393  1.0000
  H   H25       1.0  0.22375  0.36452  0.15049  1.0000
  H   H26       1.0  0.16599  0.38960  0.99497  1.0000
  C   C21       1.0  0.00053  0.32270  0.31398  1.0000
  H   H27       1.0  0.01413  0.32230  0.30585  1.0000
  H   H28       1.0  0.09267  0.32257  0.16509  1.0000
  H   H29       1.0  0.11651  0.36658  0.15220  1.0000
  H   H30       1.0  0.14185  0.45738  0.12334  1.0000
  C   C22       1.0  0.09711  0.47122  0.11254  1.0000
  C   C23       1.0  0.23272  0.36447  0.13739  1.0000
  H   H31       1.0  0.10146  0.35253  0.20230  1.0000
  H   H32       1.0  0.10853  0.34669  0.14305  1.0000
  C   C24       1.0  0.12953  0.36282  0.99372  1.0000
  C   C25       1.0  0.05161  0.47159  0.99301  1.0000
  C   C26       1.0  0.23921  0.37574  0.10469  1.0000
  C   C27       1.0  0.04691  0.48540  0.00567  1.0000
  C   C28       1.0  0.11763  0.44480  0.10186  1.0000
  C   C29       1.0  0.10549  0.35642  0.15439  1.0000
  H   H33       1.0  0.04637  0.45787  0.99613  1.0000
  C   C30       1.0  0.15162  0.38484  0.99859  1.0000
  N   N3        1.0  0.11302  0.45735  0.11718  1.0000
  C   C31       1.0  0.00377  0.38695  0.00269  1.0000
  H   H34       1.0  0.12723  0.35875  0.00914  1.0000
  C   C32       1.0  0.10939  0.45698  0.00091  1.0000
  C   C33       1.0  0.12965  0.46739  0.11945  1.0000
  H   H35       1.0  0.10542  0.43689  0.09985  1.0000
  H   H36       1.0  0.09708  0.46007  0.99239  1.0000
  H   H37       1.0  0.11944  0.43546  0.13885  1.0000
  H   H38       1.0  0.11271  0.36981  0.18645  1.0000
  S   S13       1.0  0.07970  0.37844  0.00233  1.0000
  H   H39       1.0  0.14125  0.39710  0.99535  1.0000
  H   H40       1.0  0.12947  0.43405  0.10508  1.0000
  H   H41       1.0  0.13532  0.46546  0.02244  1.0000
  S   S14       1.0  0.02342  0.39364  0.01283  1.0000
  H   H42       1.0  0.12188  0.45279  0.08823  1.0000
  H   H43       1.0  0.09077  0.44235  0.03273  1.0000
  C   C34       1.0  0.10767  0.44593  0.13491  1.0000
  H   H44       1.0  0.03839  0.48215  0.01874  1.0000
  H   H45       1.0  0.02738  0.27142  0.31571  1.0000
  C   C35       1.0  0.16272  0.35277  0.99276  1.0000
  H   H46       1.0  0.11215  0.44139  0.00305  1.0000
  H   H47       1.0  0.12007  0.46654  0.04391  1.0000
  H   H48       1.0  0.13427  0.47603  0.10633  1.0000
  H   H49       1.0  0.08433  0.46411  0.11074  1.0000
  H   H50       1.0  0.08549  0.46421  0.04340  1.0000
  H   H51       1.0  0.16149  0.34818  0.00812  1.0000
  H   H52       1.0  0.10068  0.48017  0.09929  1.0000
  N   N4        1.0  0.10583  0.46536  0.01911  1.0000
  H   H53       1.0  0.17737  0.35669  0.98877  1.0000
  C   C36       1.0  0.12224  0.46032  0.03015  1.0000
  H   H54       1.0  0.07631  0.46125  0.02164  1.0000
  H   H55       1.0  0.23512  0.38454  0.09234  1.0000
  H   H56       1.0  0.17177  0.16331  0.31992  1.0000
  H   H57       1.0  0.12176  0.46258  0.99224  1.0000
  Fe  Fe8       1.0  0.13345  0.13337  0.40775  1.0000
  S   S15       1.0  0.12809  0.16350  0.41497  1.0000
  S   S16       1.0  0.11294  0.11015  0.41283  1.0000
  Fe  Fe9       1.0  0.17666  0.13655  0.39858  1.0000
  S   S17       1.0  0.17395  0.16669  0.40612  1.0000
  S   S18       1.0  0.20228  0.11850  0.38505  1.0000
  Fe  Fe10      1.0  0.15395  0.15728  0.43101  1.0000
  S   S19       1.0  0.14967  0.16990  0.45949  1.0000
  Fe  Fe11      1.0  0.14831  0.17090  0.38969  1.0000
  S   S20       1.0  0.14886  0.19630  0.36731  1.0000
  S   S21       1.0  0.15850  0.12684  0.42487  1.0000
  S   S22       1.0  0.15176  0.14109  0.38113  1.0000
  Fe  Fe12      1.0  0.14395  0.14138  0.60140  1.0000
  S   S23       1.0  0.13973  0.16393  0.57779  1.0000
  S   S24       1.0  0.12406  0.11804  0.60787  1.0000
  Fe  Fe13      1.0  0.18352  0.15279  0.60759  1.0000
  S   S25       1.0  0.18114  0.17650  0.58436  1.0000
  S   S26       1.0  0.21236  0.15041  0.62018  1.0000
  Fe  Fe14      1.0  0.15119  0.18279  0.59674  1.0000
  S   S27       1.0  0.13696  0.21297  0.59678  1.0000
  Fe  Fe15      1.0  0.16985  0.15587  0.56761  1.0000
  S   S28       1.0  0.18289  0.14726  0.53895  1.0000
  S   S29       1.0  0.15398  0.16044  0.62110  1.0000
  S   S30       1.0  0.17351  0.13200  0.59016  1.0000
  H   H58       1.0  0.13646  0.28870  0.63791  1.0000
  Fe  Fe16      1.0  0.00877  0.07892  0.40480  1.0000
  S   S31       1.0  0.02914  0.10106  0.39367  1.0000
  S   S32       1.0  0.01526  0.04848  0.41467  1.0000
  S   S33       1.0  0.02249  0.08387  0.55606  1.0000
  H   H59       1.0  0.02394  0.37892  0.58836  1.0000
  Fe  Fe17      1.0  0.01988  0.10287  0.57943  1.0000
  S   S34       1.0  0.04026  0.12457  0.58335  1.0000
  S   S35       1.0  0.08278  0.31083  0.63943  1.0000
  S   S36       1.0  0.10943  0.35550  0.61754  1.0000
  Fe  Fe18      1.0  0.08780  0.33009  0.35180  1.0000
  S   S37       1.0  0.06773  0.30783  0.35765  1.0000
  S   S38       1.0  0.10199  0.33984  0.37603  1.0000
  H   H60       1.0  0.99997  0.28659  0.34746  1.0000
  Fe  Fe19      1.0  0.08445  0.29298  0.33448  1.0000
  S   S39       1.0  0.08526  0.26113  0.34331  1.0000
  H   H61       1.0  0.22734  0.10935  0.57444  1.0000
  Fe  Fe20      1.0  0.08538  0.41627  0.49529  1.0000
  S   S40       1.0  0.09900  0.38864  0.48517  1.0000
  S   S41       1.0  0.10088  0.44291  0.49052  1.0000
  Fe  Fe21      1.0  0.05068  0.39899  0.51333  1.0000
  S   S42       1.0  0.06095  0.37064  0.50441  1.0000
  S   S43       1.0  0.02342  0.39934  0.53174  1.0000
  Fe  Fe22      1.0  0.08852  0.37593  0.51400  1.0000
  S   S44       1.0  0.10076  0.34983  0.53085  1.0000
  Fe  Fe23      1.0  0.07039  0.38490  0.47624  1.0000
  S   S45       1.0  0.06094  0.36974  0.45244  1.0000
  S   S46       1.0  0.07759  0.40362  0.52484  1.0000
  S   S47       1.0  0.05740  0.41337  0.48441  1.0000
  H   H62       1.0  0.99681  0.26415  0.36035  1.0000
  C   C37       1.0  0.00790  0.42526  0.50579  1.0000
  H   H63       1.0  0.03692  0.35905  0.57840  1.0000
  H   H64       1.0  0.13077  0.12350  0.56759  1.0000
  H   H65       1.0  0.00629  0.38828  0.42458  1.0000
  H   H66       1.0  0.02130  0.43135  0.50411  1.0000
  H   H67       1.0  0.01360  0.41191  0.46679  1.0000
  H   H68       1.0  0.16717  0.27928  0.59428  1.0000
  S   S48       1.0  0.01662  0.03330  0.57310  1.0000
  H   H69       1.0  0.20831  0.18142  0.32377  1.0000
  C   C38       1.0  0.09025  0.34864  0.39694  1.0000
  C   C39       1.0  0.10079  0.35626  0.40946  1.0000
  C   C40       1.0  0.09208  0.36312  0.42633  1.0000
  C   C41       1.0  0.07271  0.36221  0.43099  1.0000
  C   C42       1.0  0.06222  0.35438  0.41859  1.0000
  C   C43       1.0  0.07088  0.34774  0.40163  1.0000
  H   H70       1.0  0.11576  0.35714  0.40593  1.0000
  H   H71       1.0  0.10035  0.36923  0.43560  1.0000
  H   H72       1.0  0.04725  0.35352  0.42203  1.0000
  H   H73       1.0  0.06257  0.34191  0.39218  1.0000
  C   C44       1.0  0.10603  0.35366  0.59372  1.0000
  C   C45       1.0  0.10131  0.33695  0.58749  1.0000
  C   C46       1.0  0.09965  0.33587  0.56819  1.0000
  C   C47       1.0  0.10204  0.35168  0.55513  1.0000
  C   C48       1.0  0.10617  0.36852  0.56150  1.0000
  C   C49       1.0  0.10848  0.36939  0.58065  1.0000
  H   H74       1.0  0.09916  0.32484  0.59748  1.0000
  H   H75       1.0  0.09639  0.32280  0.56337  1.0000
  H   H76       1.0  0.10819  0.38074  0.55157  1.0000
  H   H77       1.0  0.11217  0.38236  0.58534  1.0000
  H   H78       1.0  0.02168  0.13331  0.47728  1.0000
  Fe  Fe24      1.0  0.99411  0.09701  0.54926  1.0000
  C   C50       1.0  0.05959  0.48615  0.49499  1.0000
  S   S49       1.0  0.01952  0.32592  0.34546  1.0000
  C   C51       1.0  0.12976  0.22692  0.61595  1.0000
  C   C52       1.0  0.11786  0.24358  0.61285  1.0000
  C   C53       1.0  0.11237  0.25553  0.62736  1.0000
  H   H79       1.0  0.18392  0.13201  0.34992  1.0000
  H   H80       1.0  0.11271  0.24716  0.59914  1.0000
  C   C54       1.0  0.22685  0.11662  0.37653  1.0000
  C   C55       1.0  0.06371  0.12210  0.58981  1.0000
  C   C56       1.0  0.07341  0.13838  0.58907  1.0000
  C   C57       1.0  0.09189  0.13734  0.59447  1.0000
  C   C58       1.0  0.10085  0.11997  0.60084  1.0000
  C   C59       1.0  0.09115  0.10367  0.60159  1.0000
  C   C60       1.0  0.07270  0.10469  0.59601  1.0000
  H   H81       1.0  0.06653  0.15195  0.58441  1.0000
  H   H82       1.0  0.09908  0.15002  0.59406  1.0000
  H   H83       1.0  0.09797  0.09017  0.60654  1.0000
  H   H84       1.0  0.06540  0.09205  0.59671  1.0000
  C   C61       1.0  0.13109  0.21474  0.36187  1.0000
  C   C62       1.0  0.13596  0.23012  0.34905  1.0000
  C   C63       1.0  0.12229  0.24474  0.34370  1.0000
  C   C64       1.0  0.10344  0.24407  0.35096  1.0000
  C   C65       1.0  0.09857  0.22872  0.36382  1.0000
  C   C66       1.0  0.11230  0.21425  0.36940  1.0000
  H   H85       1.0  0.15039  0.23056  0.34295  1.0000
  N   N5        1.0  0.14786  0.29805  0.61002  1.0000
  H   H86       1.0  0.10827  0.20248  0.37918  1.0000
  C   C67       1.0  0.15881  0.16283  0.48152  1.0000
  C   C68       1.0  0.17280  0.14794  0.48385  1.0000
  C   C69       1.0  0.18001  0.14335  0.50152  1.0000
  C   C70       1.0  0.17318  0.15342  0.51708  1.0000
  C   C71       1.0  0.15900  0.16811  0.51482  1.0000
  C   C72       1.0  0.15191  0.17279  0.49713  1.0000
  H   H87       1.0  0.17827  0.14017  0.47197  1.0000
  H   H88       1.0  0.19101  0.13197  0.50309  1.0000
  H   H89       1.0  0.15379  0.17616  0.52657  1.0000
  H   H90       1.0  0.14117  0.18441  0.49544  1.0000
  C   C73       1.0  0.08954  0.10815  0.40743  1.0000
  C   C74       1.0  0.07922  0.12257  0.39722  1.0000
  C   C75       1.0  0.06077  0.12013  0.39315  1.0000
  C   C76       1.0  0.05235  0.10336  0.39937  1.0000
  C   C77       1.0  0.06260  0.08896  0.40967  1.0000
  C   C78       1.0  0.08109  0.09137  0.41364  1.0000
  H   H91       1.0  0.08553  0.13553  0.39233  1.0000
  H   H92       1.0  0.05299  0.13134  0.38512  1.0000
  H   H93       1.0  0.05642  0.07592  0.41444  1.0000
  H   H94       1.0  0.08899  0.08011  0.42151  1.0000
  C   C79       1.0  0.02489  0.11780  0.63134  1.0000
  H   H95       1.0  0.02740  0.10896  0.64467  1.0000
  H   H96       1.0  0.16156  0.28885  0.63520  1.0000
  H   H97       1.0  0.10820  0.14989  0.55685  1.0000
  H   H98       1.0  0.00080  0.11919  0.44626  1.0000
  H   H99       1.0  0.02395  0.99677  0.55999  1.0000
  H   H100      1.0  0.03800  0.08461  0.46535  1.0000
  C   C80       1.0  0.13578  0.12191  0.55257  1.0000
  H   H101      1.0  0.22788  0.13545  0.53748  1.0000
  C   C81       1.0  0.17500  0.16704  0.33388  1.0000
  C   C82       1.0  0.08858  0.46563  0.49110  1.0000
  C   C83       1.0  0.06898  0.46793  0.49480  1.0000
  H   H102      1.0  0.03743  0.12590  0.62716  1.0000
  H   H103      1.0  0.06104  0.45567  0.49740  1.0000
  H   H104      1.0  0.06601  0.34591  0.61859  1.0000
  H   H105      1.0  0.05296  0.11578  0.43712  1.0000
  C   C84       1.0  0.22956  0.13270  0.62900  1.0000
  C   C85       1.0  0.23455  0.10039  0.36784  1.0000
  H   H106      1.0  0.17789  0.29753  0.60376  1.0000
  C   C86       1.0  0.01193  0.99621  0.57042  1.0000
  C   C87       1.0  0.99931  0.32472  0.33329  1.0000
  H   H107      1.0  0.03976  0.09200  0.34871  1.0000
  H   H108      1.0  0.13369  0.31624  0.36198  1.0000
  C   C88       1.0  0.13073  0.23439  0.64830  1.0000
  H   H109      1.0  0.18706  0.15808  0.36848  1.0000
  N   N6        1.0  0.04570  0.36512  0.60485  1.0000
  C   C89       1.0  0.06022  0.37727  0.59576  1.0000
  C   C90       1.0  0.03719  0.37273  0.62251  1.0000
  N   N7        1.0  0.19383  0.15868  0.33864  1.0000
  H   H110      1.0  0.02897  0.28915  0.36244  1.0000
  N   N8        1.0  0.23470  0.13757  0.56568  1.0000
  H   H111      1.0  0.01507  0.13880  0.44326  1.0000
  C   C91       1.0  0.03093  0.36459  0.59194  1.0000
  S   S50       1.0  0.07001  0.34720  0.33098  1.0000
  C   C92       1.0  0.01551  0.12324  0.44302  1.0000
  C   C93       1.0  0.00379  0.27113  0.34727  1.0000
  H   H112      1.0  0.01106  0.07215  0.52175  1.0000
  C   C94       1.0  0.00864  0.14307  0.64819  1.0000
  H   H113      1.0  0.01405  0.08782  0.45972  1.0000
  C   C95       1.0  0.02830  0.09267  0.45564  1.0000
  C   C96       1.0  0.09868  0.48175  0.48776  1.0000
  H   H114      1.0  0.16454  0.30315  0.58367  1.0000
  H   H115      1.0  0.12621  0.25614  0.33341  1.0000
  H   H116      1.0  0.02315  0.99848  0.43805  1.0000
  N   N9        1.0  0.02818  0.11323  0.45655  1.0000
  S   S51       1.0  0.10591  0.31461  0.32941  1.0000
  N   N10       1.0  0.09500  0.32357  0.47997  1.0000
  C   C97       1.0  0.09243  0.31706  0.46152  1.0000
  C   C98       1.0  0.07650  0.32595  0.49105  1.0000
  C   C99       1.0  0.10341  0.34181  0.47695  1.0000
  C   C100      1.0  0.10763  0.30963  0.49041  1.0000
  H   H117      1.0  0.10606  0.31547  0.45261  1.0000
  H   H118      1.0  0.08280  0.32735  0.45350  1.0000
  H   H119      1.0  0.08622  0.30326  0.46321  1.0000
  H   H120      1.0  0.07793  0.33100  0.50504  1.0000
  H   H121      1.0  0.06662  0.33645  0.48358  1.0000
  H   H122      1.0  0.06972  0.31247  0.49369  1.0000
  H   H123      1.0  0.09410  0.35276  0.46939  1.0000
  H   H124      1.0  0.11728  0.34071  0.46843  1.0000
  H   H125      1.0  0.10569  0.34707  0.49058  1.0000
  H   H126      1.0  0.10974  0.31437  0.50438  1.0000
  H   H127      1.0  0.12178  0.30756  0.48253  1.0000
  H   H128      1.0  0.10173  0.29568  0.49307  1.0000
  C   C101      1.0  0.01329  0.39384  0.43580  1.0000
  H   H129      1.0  0.14420  0.32768  0.60069  1.0000
  C   C102      1.0  0.13134  0.29366  0.60097  1.0000
  H   H130      1.0  0.15782  0.32206  0.62063  1.0000
  N   N11       1.0  0.12059  0.12775  0.54011  1.0000
  C   C103      1.0  0.12792  0.12551  0.52033  1.0000
  C   C104      1.0  0.11391  0.14772  0.54210  1.0000
  C   C105      1.0  0.10477  0.11587  0.54551  1.0000
  H   H131      1.0  0.13312  0.11062  0.51829  1.0000
  H   H132      1.0  0.13992  0.13424  0.51586  1.0000
  H   H133      1.0  0.11692  0.12997  0.51047  1.0000
  H   H134      1.0  0.12556  0.15705  0.53835  1.0000
  H   H135      1.0  0.10255  0.15270  0.53280  1.0000
  H   H136      1.0  0.09903  0.11717  0.56040  1.0000
  H   H137      1.0  0.10928  0.10069  0.54422  1.0000
  C   C106      1.0  0.00497  0.40987  0.51905  1.0000
  H   H138      1.0  0.04156  0.06379  0.38324  1.0000
  H   H139      1.0  0.02363  0.24044  0.33405  1.0000
  H   H140      1.0  0.99263  0.00874  0.53800  1.0000
  H   H141      1.0  0.17385  0.18272  0.33356  1.0000
  S   S52       1.0  0.00540  0.08211  0.60052  1.0000
  H   H142      1.0  0.15671  0.30466  0.36493  1.0000
  H   H143      1.0  0.99755  0.26656  0.33503  1.0000
  H   H144      1.0  0.06484  0.06931  0.33450  1.0000
  H   H145      1.0  0.04787  0.37267  0.63283  1.0000
  H   H146      1.0  0.12966  0.30268  0.58755  1.0000
  H   H147      1.0  0.21364  0.10890  0.62791  1.0000
  H   H148      1.0  0.07159  0.37802  0.60514  1.0000
  H   H149      1.0  0.03000  0.11004  0.48657  1.0000
  H   H150      1.0  0.01980  0.35541  0.59830  1.0000
  C   C107      1.0  0.00582  0.05780  0.49804  1.0000
  H   H151      1.0  0.19589  0.17956  0.35788  1.0000
  H   H152      1.0  0.06700  0.37182  0.58244  1.0000
  H   H153      1.0  0.01749  0.04899  0.36894  1.0000
  H   H154      1.0  0.10291  0.26805  0.62485  1.0000
  C   C108      1.0  0.16515  0.29435  0.59735  1.0000
  H   H155      1.0  0.14117  0.10690  0.55156  1.0000
  H   H156      1.0  0.03082  0.38745  0.61991  1.0000
  H   H157      1.0  0.21157  0.15840  0.36119  1.0000
  Fe  Fe25      1.0  0.09936  0.33526  0.64212  1.0000
  H   H158      1.0  0.01973  0.04649  0.34422  1.0000
  H   H159      1.0  0.14794  0.13059  0.54892  1.0000
  H   H160      1.0  0.01300  0.40942  0.43275  1.0000
  H   H161      1.0  0.09293  0.12000  0.53658  1.0000
  C   C109      1.0  0.13607  0.22233  0.63384  1.0000
  H   H162      1.0  0.08402  0.22788  0.36939  1.0000
  H   H163      1.0  0.99696  0.03301  0.53786  1.0000
  H   H164      1.0  0.14522  0.20959  0.63649  1.0000
  C   C110      1.0  0.05451  0.34584  0.60923  1.0000
  C   C111      1.0  0.19730  0.16399  0.35732  1.0000
  H   H165      1.0  0.05753  0.11151  0.46139  1.0000
  H   H166      1.0  0.02874  0.39052  0.46888  1.0000
  H   H167      1.0  0.99586  0.44460  0.48431  1.0000
  C   C112      1.0  0.22676  0.11348  0.63130  1.0000
  C   C113      1.0  0.02910  0.24611  0.34615  1.0000
  H   H168      1.0  0.13907  0.25878  0.38543  1.0000
  C   C114      1.0  0.00278  0.07243  0.50992  1.0000
  H   H169      1.0  0.21303  0.15923  0.55830  1.0000
  H   H170      1.0  0.02055  0.00280  0.46244  1.0000
  C   C115      1.0  0.04750  0.11898  0.45167  1.0000
  C   C116      1.0  0.14565  0.31812  0.61382  1.0000
  H   H171      1.0  0.23324  0.14332  0.38453  1.0000
  Fe  Fe26      1.0  0.05093  0.32354  0.33531  1.0000
  H   H172      1.0  0.02297  0.23855  0.35934  1.0000
  C   C117      1.0  0.22106  0.12420  0.57417  1.0000
  H   H173      1.0  0.22563  0.08923  0.36681  1.0000
  N   N12       1.0  0.04110  0.06172  0.35361  1.0000
  C   C118      1.0  0.14542  0.27001  0.37558  1.0000
  H   H174      1.0  0.02837  0.38812  0.43455  1.0000
  H   H175      1.0  0.99232  0.02391  0.51644  1.0000
  H   H176      1.0  0.05988  0.04783  0.37335  1.0000
  N   N13       1.0  0.00733  0.13045  0.63333  1.0000
  N   N14       1.0  0.02447  0.26672  0.34598  1.0000
  H   H177      1.0  0.06298  0.04435  0.33916  1.0000
  H   H178      1.0  0.04772  0.27064  0.36156  1.0000
  H   H179      1.0  0.06073  0.33943  0.59624  1.0000
  H   H180      1.0  0.14681  0.26500  0.36125  1.0000
  H   H181      1.0  0.19206  0.13330  0.32529  1.0000
  H   H182      1.0  0.01702  0.15023  0.61061  1.0000
  C   C119      1.0  0.01375  0.39629  0.46911  1.0000
  H   H183      1.0  0.01968  0.36153  0.45756  1.0000
  C   C120      1.0  0.03038  0.08028  0.35027  1.0000
  H   H184      1.0  0.04440  0.48774  0.49771  1.0000
  H   H185      1.0  0.15049  0.27078  0.62575  1.0000
  H   H186      1.0  0.02017  0.11990  0.42832  1.0000
  H   H187      1.0  0.02591  0.36407  0.62953  1.0000
  H   H188      1.0  0.10788  0.27469  0.38151  1.0000
  N   N15       1.0  0.13377  0.28823  0.37610  1.0000
  H   H189      1.0  0.11446  0.28150  0.35721  1.0000
  H   H190      1.0  0.12656  0.28462  0.40601  1.0000
  C   C121      1.0  0.22586  0.15708  0.56614  1.0000
  C   C122      1.0  0.14922  0.28607  0.62796  1.0000
  H   H191      1.0  0.04409  0.33640  0.61668  1.0000
  H   H192      1.0  0.14722  0.29701  0.39888  1.0000
  C   C123      1.0  0.13294  0.29488  0.39508  1.0000
  C   C124      1.0  0.03212  0.27362  0.36218  1.0000
  C   C125      1.0  0.11449  0.28575  0.37170  1.0000
  C   C126      1.0  0.14218  0.30233  0.36203  1.0000
  Fe  Fe27      1.0  0.99316  0.05347  0.43843  1.0000
  H   H193      1.0  0.99564  0.15283  0.65009  1.0000
  H   H194      1.0  0.15990  0.27117  0.37946  1.0000
  C   C127      1.0  0.02791  0.04679  0.35659  1.0000
  H   H195      1.0  0.11384  0.48008  0.48471  1.0000
  H   H196      1.0  0.21616  0.12697  0.58897  1.0000
  H   H197      1.0  0.10517  0.29908  0.37264  1.0000
  H   H198      1.0  0.12422  0.30864  0.39582  1.0000
  H   H199      1.0  0.03536  0.03252  0.35933  1.0000
  S   S53       1.0  0.99985  0.04064  0.46711  1.0000
  H   H200      1.0  0.01656  0.04637  0.50066  1.0000
  H   H201      1.0  0.00653  0.11458  0.47963  1.0000
  N   N16       1.0  0.00397  0.38863  0.45473  1.0000
  H   H202      1.0  0.05409  0.39193  0.59211  1.0000
  C   C128      1.0  0.00514  0.01243  0.57941  1.0000
  H   H203      1.0  0.14291  0.29785  0.34750  1.0000
  C   C129      1.0  0.05468  0.05827  0.33710  1.0000
  H   H204      1.0  0.16369  0.16212  0.34454  1.0000
  Fe  Fe28      1.0  0.00589  0.06395  0.57628  1.0000
  C   C130      1.0  0.02136  0.11801  0.47582  1.0000
  C   C131      1.0  0.99348  0.43281  0.49468  1.0000
  C   C132      1.0  0.05143  0.06152  0.37050  1.0000
  H   H205      1.0  0.02601  0.26690  0.37580  1.0000
  H   H206      1.0  0.13263  0.27868  0.59769  1.0000
  C   C133      1.0  0.11897  0.25112  0.64513  1.0000
  H   H207      1.0  0.13279  0.32124  0.62346  1.0000
  H   H208      1.0  0.03278  0.08863  0.44114  1.0000
  H   H209      1.0  0.11810  0.29599  0.61035  1.0000
  H   H210      1.0  0.20862  0.13114  0.34284  1.0000
  H   H211      1.0  0.22280  0.15965  0.32758  1.0000
  H   H212      1.0  0.02078  0.15185  0.64465  1.0000
  H   H213      1.0  0.04800  0.13440  0.45230  1.0000
  H   H214      1.0  0.06114  0.07295  0.36902  1.0000
  C   C134      1.0  0.20844  0.16580  0.32435  1.0000
  C   C135      1.0  0.19463  0.13791  0.33911  1.0000
  H   H215      1.0  0.01967  0.08311  0.36225  1.0000
  H   H216      1.0  0.02273  0.08114  0.33740  1.0000
  H   H217      1.0  0.04468  0.24249  0.34516  1.0000
  H   H218      1.0  0.23566  0.16757  0.55971  1.0000
  H   H219      1.0  0.20842  0.12533  0.56612  1.0000
  S   S54       1.0  0.99723  0.01691  0.38314  1.0000
  H   H220      1.0  0.02444  0.10811  0.62021  1.0000
  C   C136      1.0  0.00475  0.14189  0.61528  1.0000
  H   H221      1.0  0.22150  0.16052  0.58085  1.0000
  C   C137      1.0  0.23873  0.13084  0.37772  1.0000
  S   S55       1.0  0.99248  0.11768  0.57076  1.0000
  C   C138      1.0  0.03298  0.27606  0.32826  1.0000
  H   H222      1.0  0.04858  0.27288  0.32677  1.0000
  H   H223      1.0  0.23832  0.08536  0.64034  1.0000
  H   H224      1.0  0.00342  0.13278  0.60387  1.0000
  C   C139      1.0  0.99531  0.05824  0.48255  1.0000
  H   H225      1.0  0.00702  0.39273  0.48356  1.0000
  H   H226      1.0  0.02999  0.29164  0.32775  1.0000
  H   H227      1.0  0.99180  0.15182  0.61627  1.0000
  C   C140      1.0  0.00481  0.36788  0.45827  1.0000
  C   C141      1.0  0.02150  0.99149  0.45266  1.0000
  C   C142      1.0  0.99105  0.11910  0.63847  1.0000
  H   H228      1.0  0.99752  0.36160  0.44771  1.0000
  H   H229      1.0  0.99795  0.36354  0.47250  1.0000
  H   H230      1.0  0.99425  0.34650  0.65106  1.0000
  H   H231      1.0  0.04735  0.05831  0.32410  1.0000
  H   H232      1.0  0.99249  0.11015  0.65195  1.0000
  Fe  Fe29      1.0  0.99067  0.04264  0.39964  1.0000
  C   C143      1.0  0.99450  0.33132  0.65360  1.0000
  Fe  Fe30      1.0  0.18651  0.38440  0.82631  1.0000
  S   S56       1.0  0.16189  0.36641  0.83063  1.0000
  S   S57       1.0  0.21787  0.37456  0.82780  1.0000
  Fe  Fe31      1.0  0.16224  0.41897  0.80957  1.0000
  S   S58       1.0  0.13643  0.40303  0.81272  1.0000
  S   S59       1.0  0.15821  0.44856  0.79468  1.0000
  Fe  Fe32      1.0  0.14556  0.39258  0.84149  1.0000
  S   S60       1.0  0.12240  0.39911  0.86486  1.0000
  Fe  Fe33      1.0  0.15469  0.37855  0.80141  1.0000
  S   S61       1.0  0.15242  0.36106  0.77623  1.0000
  S   S62       1.0  0.17060  0.40984  0.83866  1.0000
  S   S63       1.0  0.18013  0.39519  0.79677  1.0000
  Fe  Fe34      1.0  0.08800  0.38851  0.97187  1.0000
  S   S64       1.0  0.06004  0.40498  0.96758  1.0000
  S   S65       1.0  0.10706  0.37051  0.95194  1.0000
  Fe  Fe35      1.0  0.09538  0.33112  0.68612  1.0000
  S   S66       1.0  0.07776  0.30636  0.68631  1.0000
  S   S67       1.0  0.09862  0.34682  0.71250  1.0000
  H   H233      1.0  0.18488  0.30602  0.80443  1.0000
  C   C144      1.0  0.19788  0.32610  0.82940  1.0000
  H   H234      1.0  0.14412  0.43173  0.86808  1.0000
  H   H235      1.0  0.14031  0.38635  0.96380  1.0000
  H   H236      1.0  0.16891  0.42212  0.76305  1.0000
  H   H237      1.0  0.18641  0.48322  0.83947  1.0000
  H   H238      1.0  0.01967  0.37327  0.97996  1.0000
  H   H239      1.0  0.15135  0.40912  0.71917  1.0000
  H   H240      1.0  0.11388  0.45831  0.88713  1.0000
  H   H241      1.0  0.10994  0.43791  0.87587  1.0000
  H   H242      1.0  0.11780  0.41784  0.76081  1.0000
  H   H243      1.0  0.22750  0.33831  0.88924  1.0000
  C   C145      1.0  0.23108  0.36097  0.84498  1.0000
  H   H244      1.0  0.99508  0.27708  0.66271  1.0000
  C   C146      1.0  0.15609  0.48697  0.79729  1.0000
  H   H245      1.0  0.14403  0.39133  0.73709  1.0000
  N   N17       1.0  0.14592  0.41842  0.74703  1.0000
  C   C147      1.0  0.22549  0.32632  0.80703  1.0000
  C   C148      1.0  0.13698  0.35713  0.75888  1.0000
  C   C149      1.0  0.14374  0.34526  0.74462  1.0000
  C   C150      1.0  0.13235  0.34190  0.73042  1.0000
  C   C151      1.0  0.11387  0.35041  0.73013  1.0000
  C   C152      1.0  0.10716  0.36238  0.74434  1.0000
  C   C153      1.0  0.11852  0.36568  0.75859  1.0000
  H   H246      1.0  0.15794  0.33851  0.74454  1.0000
  H   H247      1.0  0.13783  0.33266  0.71971  1.0000
  H   H248      1.0  0.09290  0.36899  0.74444  1.0000
  H   H249      1.0  0.11284  0.37464  0.76947  1.0000
  C   C154      1.0  0.11186  0.37894  0.92792  1.0000
  C   C155      1.0  0.12663  0.36990  0.91670  1.0000
  C   C156      1.0  0.13040  0.37607  0.89744  1.0000
  C   C157      1.0  0.11916  0.39114  0.88918  1.0000
  C   C158      1.0  0.10445  0.40015  0.90046  1.0000
  C   C159      1.0  0.10095  0.39427  0.91974  1.0000
  H   H250      1.0  0.13507  0.35795  0.92285  1.0000
  H   H251      1.0  0.14168  0.36890  0.88892  1.0000
  H   H252      1.0  0.09544  0.41159  0.89423  1.0000
  H   H253      1.0  0.08946  0.40127  0.92816  1.0000
  C   C160      1.0  0.13275  0.41493  0.76401  1.0000
  C   C161      1.0  0.16329  0.46906  0.80471  1.0000
  C   C162      1.0  0.17416  0.46783  0.82001  1.0000
  H   H254      1.0  0.16505  0.37868  0.96288  1.0000
  H   H255      1.0  0.18007  0.45420  0.82567  1.0000
  H   H256      1.0  0.13245  0.48336  0.86914  1.0000
  S   S68       1.0  0.10159  0.41312  0.97956  1.0000
  H   H257      1.0  0.20789  0.35732  0.86620  1.0000
  H   H258      1.0  0.09807  0.46039  0.86889  1.0000
  C   C163      1.0  0.14511  0.44725  0.86562  1.0000
  H   H259      1.0  0.20489  0.31460  0.83856  1.0000
  S   S69       1.0  0.03193  0.33274  0.65822  1.0000
  C   C164      1.0  0.23402  0.34347  0.87566  1.0000
  H   H260      1.0  0.19885  0.35489  0.80210  1.0000
  H   H261      1.0  0.02454  0.29267  0.66365  1.0000
  H   H262      1.0  0.11088  0.45722  0.83559  1.0000
  Fe  Fe36      1.0  0.09914  0.29640  0.66290  1.0000
  C   C165      1.0  0.06322  0.47552  0.97647  1.0000
  H   H263      1.0  0.16774  0.39837  0.75723  1.0000
  C   C166      1.0  0.16548  0.41352  0.75189  1.0000
  H   H264      1.0  0.12709  0.40949  0.72868  1.0000
  H   H265      1.0  0.12889  0.44281  0.73638  1.0000
  H   H266      1.0  0.14772  0.48812  0.78541  1.0000
  H   H267      1.0  0.13465  0.40000  0.77007  1.0000
  H   H268      1.0  0.14654  0.44776  0.75093  1.0000
  C   C167      1.0  0.14354  0.43858  0.74006  1.0000
  C   C168      1.0  0.15072  0.37432  0.96770  1.0000
  S   S70       1.0  0.07873  0.34780  0.66397  1.0000
  S   S71       1.0  0.11746  0.32030  0.66400  1.0000
  C   C169      1.0  0.12937  0.47758  0.85603  1.0000
  C   C170      1.0  0.14192  0.40663  0.73232  1.0000
  N   N18       1.0  0.12751  0.45706  0.85904  1.0000
  H   H269      1.0  0.23127  0.32555  0.79209  1.0000
  C   C171      1.0  0.11164  0.45330  0.87337  1.0000
  H   H270      1.0  0.14830  0.45223  0.87908  1.0000
  C   C172      1.0  0.12393  0.45002  0.84113  1.0000
  S   S72       1.0  0.07160  0.45769  0.96195  1.0000
  H   H271      1.0  0.13504  0.42406  0.77515  1.0000
  H   H272      1.0  0.20704  0.29486  0.81143  1.0000
  H   H273      1.0  0.15737  0.44965  0.85509  1.0000
  H   H274      1.0  0.13585  0.23076  0.66202  1.0000
  H   H275      1.0  0.14104  0.48089  0.84506  1.0000
  Fe  Fe37      1.0  0.07327  0.42885  0.97754  1.0000
  H   H276      1.0  0.20064  0.33967  0.83450  1.0000
  H   H277      1.0  0.17998  0.34082  0.79948  1.0000
  H   H278      1.0  0.20547  0.30603  0.78793  1.0000
  C   C173      1.0  0.17782  0.48432  0.82776  1.0000
  H   H279      1.0  0.01066  0.13490  0.66201  1.0000
  H   H280      1.0  0.15329  0.44179  0.72727  1.0000
  H   H281      1.0  0.18239  0.32501  0.83171  1.0000
  H   H282      1.0  0.11627  0.48546  0.85124  1.0000
  H   H283      1.0  0.17586  0.41603  0.73946  1.0000
  N   N19       1.0  0.20485  0.32517  0.80933  1.0000
  Fe  Fe38      1.0  0.06267  0.32253  0.66262  1.0000
  S   S73       1.0  0.11351  0.26630  0.66358  1.0000
  C   C174      1.0  0.22284  0.35422  0.86259  1.0000
  C   C175      1.0  0.19560  0.34109  0.79788  1.0000
  H   H284      1.0  0.22928  0.33985  0.81145  1.0000
  H   H285      1.0  0.14810  0.36259  0.95943  1.0000
  C   C176      1.0  0.99486  0.29226  0.66011  1.0000
  H   H286      1.0  0.13575  0.45233  0.83010  1.0000
  H   H287      1.0  0.20025  0.34077  0.78261  1.0000
  H   H288      1.0  0.99394  0.45798  0.95570  1.0000
  H   H289      1.0  0.12231  0.43461  0.84289  1.0000
  C   C177      1.0  0.20038  0.30720  0.80301  1.0000
  H   H290      1.0  0.99536  0.40592  0.95603  1.0000
  C   C178      1.0  0.00575  0.37712  0.98657  1.0000
  H   H291      1.0  0.00119  0.41829  0.97491  1.0000
  H   H292      1.0  0.23295  0.31474  0.81575  1.0000
  C   C179      1.0  0.99705  0.42020  0.96021  1.0000
  C   C180      1.0  0.01160  0.30105  0.66067  1.0000
  C   C181      1.0  0.01148  0.32067  0.65747  1.0000
  H   H293      1.0  0.99127  0.36405  0.96692  1.0000
  H   H294      1.0  0.00905  0.42589  0.95102  1.0000
  H   H295      1.0  0.16079  0.34036  0.98514  1.0000
  H   H296      1.0  0.12664  0.35072  0.98610  1.0000
  Fe  Fe39      1.0  0.08738  0.65488  0.30135  1.0000
  S   S74       1.0  0.07352  0.68382  0.30744  1.0000
  S   S75       1.0  0.09516  0.65072  0.26972  1.0000
  H   H297      1.0  0.19777  0.65402  0.20187  1.0000
  H   H298      1.0  0.23202  0.93614  0.31746  1.0000
  H   H299      1.0  0.22029  0.59484  0.12968  1.0000
  Fe  Fe40      1.0  0.05511  0.58698  0.99653  1.0000
  C   C182      1.0  0.00964  0.60950  0.99051  1.0000
  H   H300      1.0  0.12556  0.49338  0.16389  1.0000
  Fe  Fe41      1.0  0.13649  0.58877  0.14015  1.0000
  S   S76       1.0  0.16678  0.58044  0.13029  1.0000
  S   S77       1.0  0.11125  0.59101  0.12265  1.0000
  Fe  Fe42      1.0  0.14486  0.59049  0.18173  1.0000
  S   S78       1.0  0.17554  0.58173  0.17423  1.0000
  S   S79       1.0  0.13838  0.59198  0.21384  1.0000
  Fe  Fe43      1.0  0.17393  0.60229  0.14856  1.0000
  S   S80       1.0  0.19405  0.62583  0.14325  1.0000
  Fe  Fe44      1.0  0.16585  0.56059  0.15690  1.0000
  S   S81       1.0  0.18047  0.53081  0.15939  1.0000
  S   S82       1.0  0.14343  0.61211  0.15670  1.0000
  S   S83       1.0  0.13536  0.56786  0.16593  1.0000
  Fe  Fe45      1.0  0.09020  0.57367  0.01690  1.0000
  S   S84       1.0  0.05928  0.57101  0.02460  1.0000
  S   S85       1.0  0.11230  0.58187  0.03476  1.0000
  H   H301      1.0  0.14856  0.65447  0.18858  1.0000
  H   H302      1.0  0.00932  0.58045  0.00117  1.0000
  H   H303      1.0  0.17449  0.60943  0.20474  1.0000
  H   H304      1.0  0.19570  0.61952  0.20843  1.0000
  C   C183      1.0  0.22749  0.60761  0.12783  1.0000
  C   C184      1.0  0.11213  0.58694  0.09848  1.0000
  C   C185      1.0  0.09544  0.58370  0.09093  1.0000
  C   C186      1.0  0.09535  0.58126  0.07162  1.0000
  C   C187      1.0  0.11192  0.58253  0.05956  1.0000
  C   C188      1.0  0.12858  0.58575  0.06712  1.0000
  C   C189      1.0  0.12876  0.58774  0.08649  1.0000
  H   H305      1.0  0.08251  0.58302  0.10011  1.0000
  H   H306      1.0  0.08245  0.57860  0.06612  1.0000
  H   H307      1.0  0.14146  0.58682  0.05792  1.0000
  H   H308      1.0  0.14168  0.59031  0.09207  1.0000
  H   H309      1.0  0.15595  0.63122  0.22542  1.0000
  C   C190      1.0  0.16904  0.50983  0.15957  1.0000
  C   C191      1.0  0.14940  0.51008  0.16069  1.0000
  H   H310      1.0  0.14796  0.62937  0.19242  1.0000
  H   H311      1.0  0.14081  0.52338  0.16031  1.0000
  C   C192      1.0  0.00520  0.66556  0.30483  1.0000
  H   H312      1.0  0.13839  0.52118  0.24051  1.0000
  H   H313      1.0  0.15681  0.65618  0.22064  1.0000
  H   H314      1.0  0.13084  0.52562  0.20714  1.0000
  H   H315      1.0  0.16278  0.63950  0.17299  1.0000
  H   H316      1.0  0.15465  0.50025  0.21662  1.0000
  C   C193      1.0  0.10704  0.63393  0.25456  1.0000
  C   C194      1.0  0.11684  0.61713  0.26138  1.0000
  C   C195      1.0  0.12614  0.60450  0.24873  1.0000
  C   C196      1.0  0.12577  0.60833  0.22906  1.0000
  C   C197      1.0  0.11595  0.62510  0.22223  1.0000
  C   C198      1.0  0.10677  0.63779  0.23488  1.0000
  H   H317      1.0  0.11723  0.61388  0.27642  1.0000
  H   H318      1.0  0.13365  0.59163  0.25428  1.0000
  H   H319      1.0  0.11520  0.62826  0.20724  1.0000
  H   H320      1.0  0.09917  0.65065  0.22939  1.0000
  H   H321      1.0  0.16661  0.55792  0.21410  1.0000
  H   H322      1.0  0.13574  0.54993  0.20629  1.0000
  H   H323      1.0  0.14776  0.53494  0.18937  1.0000
  H   H324      1.0  0.17853  0.54263  0.19743  1.0000
  S   S86       1.0  0.08589  0.59164  0.98974  1.0000
  H   H325      1.0  0.99947  0.54938  0.00382  1.0000
  H   H326      1.0  0.17676  0.64184  0.22925  1.0000
  N   N20       1.0  0.07507  0.63143  0.03546  1.0000
  C   C199      1.0  0.08560  0.63104  0.01663  1.0000
  C   C200      1.0  0.06113  0.64808  0.03557  1.0000
  C   C201      1.0  0.08839  0.63232  0.04978  1.0000
  C   C202      1.0  0.06513  0.61416  0.03977  1.0000
  H   H327      1.0  0.09320  0.64391  0.01276  1.0000
  H   H328      1.0  0.07599  0.63002  0.00552  1.0000
  H   H329      1.0  0.09633  0.61866  0.01615  1.0000
  H   H330      1.0  0.05295  0.64876  0.04959  1.0000
  H   H331      1.0  0.06809  0.66141  0.03221  1.0000
  H   H332      1.0  0.05085  0.64761  0.02495  1.0000
  H   H333      1.0  0.08109  0.63185  0.06428  1.0000
  H   H334      1.0  0.09587  0.64538  0.04725  1.0000
  H   H335      1.0  0.09937  0.62016  0.04960  1.0000
  H   H336      1.0  0.07527  0.60138  0.03959  1.0000
  H   H337      1.0  0.05491  0.61303  0.02925  1.0000
  H   H338      1.0  0.05720  0.61372  0.05397  1.0000
  H   H339      1.0  0.18405  0.53955  0.22148  1.0000
  C   C203      1.0  0.18574  0.65444  0.19309  1.0000
  H   H340      1.0  0.19515  0.49201  0.15886  1.0000
  S   S87       1.0  0.04987  0.51945  0.01860  1.0000
  H   H341      1.0  0.23782  0.66515  0.03144  1.0000
  H   H342      1.0  0.22036  0.65412  0.13470  1.0000
  H   H343      1.0  0.14347  0.54542  0.23922  1.0000
  C   C204      1.0  0.21791  0.62452  0.13315  1.0000
  C   C205      1.0  0.14224  0.53535  0.20440  1.0000
  N   N21       1.0  0.15747  0.52993  0.21684  1.0000
  C   C206      1.0  0.22759  0.64096  0.13061  1.0000
  H   H344      1.0  0.01935  0.66241  0.29839  1.0000
  C   C207      1.0  0.17233  0.54309  0.21231  1.0000
  H   H345      1.0  0.18953  0.61837  0.18490  1.0000
  C   C208      1.0  0.00118  0.59250  0.99490  1.0000
  C   C209      1.0  0.05380  0.50314  0.00173  1.0000
  H   H346      1.0  0.23239  0.64558  0.04821  1.0000
  N   N22       1.0  0.17305  0.63966  0.20012  1.0000
  H   H347      1.0  0.00745  0.50730  0.00794  1.0000
  C   C210      1.0  0.15739  0.64082  0.18800  1.0000
  C   C211      1.0  0.16535  0.64238  0.21970  1.0000
  C   C212      1.0  0.18368  0.62093  0.19954  1.0000
  H   H348      1.0  0.17698  0.50581  0.22315  1.0000
  C   C213      1.0  0.14971  0.53089  0.23667  1.0000
  H   H349      1.0  0.16081  0.52695  0.24651  1.0000
  S   S88       1.0  0.09468  0.54692  0.00244  1.0000
  C   C214      1.0  0.16556  0.51052  0.21385  1.0000
  Fe  Fe46      1.0  0.06345  0.54589  0.00781  1.0000
  H   H350      1.0  0.99167  0.65792  0.28139  1.0000
  H   H351      1.0  0.17813  0.66876  0.19313  1.0000
  H   H352      1.0  0.09946  0.49299  0.02899  1.0000
  H   H353      1.0  0.19178  0.65258  0.17832  1.0000
  H   H354      1.0  0.02190  0.53732  0.99729  1.0000
  H   H355      1.0  0.17177  0.50952  0.19903  1.0000
  H   H356      1.0  0.11537  0.49225  0.00788  1.0000
  H   H357      1.0  0.09081  0.49028  0.00698  1.0000
  C   C215      1.0  0.99436  0.51345  0.00164  1.0000
  S   S89       1.0  0.03327  0.61198  0.99464  1.0000
  C   C216      1.0  0.17994  0.49237  0.15972  1.0000
  C   C217      1.0  0.00813  0.54274  0.99205  1.0000
  H   H358      1.0  0.22560  0.66927  0.05405  1.0000
  C   C218      1.0  0.23693  0.66015  0.04671  1.0000
  C   C219      1.0  0.14078  0.49302  0.16258  1.0000
  H   H359      1.0  0.03456  0.98212  0.45499  1.0000
  S   S90       1.0  0.99888  0.88925  0.54814  1.0000
  H   H360      1.0  0.02219  0.59767  0.45254  1.0000
  Fe  Fe47      1.0  0.09270  0.64941  0.63054  1.0000
  S   S91       1.0  0.09699  0.64516  0.59908  1.0000
  S   S92       1.0  0.06960  0.67223  0.63679  1.0000
  Fe  Fe48      1.0  0.08491  0.64195  0.34400  1.0000
  S   S93       1.0  0.07135  0.66974  0.35252  1.0000
  S   S94       1.0  0.09004  0.61630  0.36501  1.0000
  Fe  Fe49      1.0  0.07620  0.58187  0.51930  1.0000
  S   S95       1.0  0.04972  0.56837  0.51641  1.0000
  S   S96       1.0  0.08383  0.57864  0.54978  1.0000
  Fe  Fe50      1.0  0.08249  0.59134  0.47625  1.0000
  S   S97       1.0  0.05692  0.57771  0.47076  1.0000
  S   S98       1.0  0.09770  0.61032  0.45327  1.0000
  Fe  Fe51      1.0  0.04305  0.59243  0.49529  1.0000
  S   S99       1.0  0.01429  0.60775  0.49378  1.0000
  Fe  Fe52      1.0  0.06589  0.55435  0.49232  1.0000
  S   S100      1.0  0.05683  0.52476  0.49184  1.0000
  S   S101      1.0  0.06793  0.60741  0.49999  1.0000
  S   S102      1.0  0.09307  0.56660  0.49605  1.0000
  Fe  Fe53      1.0  0.14268  0.78919  0.39428  1.0000
  S   S103      1.0  0.15344  0.80846  0.36955  1.0000
  S   S104      1.0  0.12777  0.76207  0.39421  1.0000
  Fe  Fe54      1.0  0.14692  0.81843  0.42266  1.0000
  S   S105      1.0  0.15702  0.83982  0.39954  1.0000
  S   S106      1.0  0.13996  0.82856  0.45205  1.0000
  Fe  Fe55      1.0  0.13435  0.83103  0.38350  1.0000
  S   S107      1.0  0.11568  0.85102  0.36543  1.0000
  Fe  Fe56      1.0  0.17546  0.81570  0.38772  1.0000
  S   S108      1.0  0.20767  0.81716  0.38053  1.0000
  S   S109      1.0  0.12283  0.81178  0.40729  1.0000
  S   S110      1.0  0.16610  0.79432  0.41179  1.0000
  Fe  Fe57      1.0  0.18436  0.83205  0.59328  1.0000
  S   S111      1.0  0.18609  0.80366  0.58163  1.0000
  S   S112      1.0  0.20658  0.85065  0.60203  1.0000
  Fe  Fe58      1.0  0.14262  0.83988  0.58479  1.0000
  S   S113      1.0  0.14130  0.81217  0.57278  1.0000
  S   S114      1.0  0.12184  0.86624  0.58372  1.0000
  Fe  Fe59      1.0  0.15741  0.79939  0.59716  1.0000
  S   S115      1.0  0.15535  0.76820  0.60837  1.0000
  Fe  Fe60      1.0  0.16972  0.81717  0.55776  1.0000
  S   S116      1.0  0.17930  0.80723  0.52856  1.0000
  S   S117      1.0  0.15667  0.82701  0.61056  1.0000
  S   S118      1.0  0.17011  0.84575  0.56793  1.0000
  Fe  Fe61      1.0  0.00556  0.87751  0.39172  1.0000
  S   S119      1.0  0.01175  0.89668  0.41284  1.0000
  S   S120      1.0  0.02685  0.87101  0.36706  1.0000
  C   C220      1.0  0.06722  0.87010  0.43509  1.0000
  H   H361      1.0  0.20295  0.81102  0.44325  1.0000
  N   N23       1.0  0.07334  0.85206  0.44560  1.0000
  H   H362      1.0  0.07048  0.51890  0.53497  1.0000
  H   H363      1.0  0.08532  0.52854  0.51555  1.0000
  H   H364      1.0  0.17103  0.72471  0.56211  1.0000
  Fe  Fe62      1.0  0.01123  0.89544  0.57417  1.0000
  S   S121      1.0  0.01461  0.92586  0.56409  1.0000
  S   S122      1.0  0.03194  0.87383  0.58869  1.0000
  H   H365      1.0  0.03128  0.63833  0.57848  1.0000
  H   H366      1.0  0.08434  0.78109  0.33133  1.0000
  H   H367      1.0  0.22830  0.88180  0.60643  1.0000
  C   C221      1.0  0.06957  0.85381  0.46606  1.0000
  C   C222      1.0  0.04157  0.91544  0.60935  1.0000
  H   H368      1.0  0.12771  0.52791  0.54106  1.0000
  H   H369      1.0  0.17038  0.87415  0.62128  1.0000
  H   H370      1.0  0.07479  0.88190  0.43877  1.0000
  C   C223      1.0  0.21754  0.85102  0.35994  1.0000
  H   H371      1.0  0.06535  0.83508  0.42508  1.0000
  H   H372      1.0  0.10227  0.85824  0.44520  1.0000
  H   H373      1.0  0.13740  0.90132  0.58952  1.0000
  H   H374      1.0  0.00195  0.98233  0.48569  1.0000
  S   S123      1.0  0.00727  0.93263  0.50983  1.0000
  H   H375      1.0  0.09730  0.84644  0.42558  1.0000
  H   H376      1.0  0.05056  0.63913  0.44822  1.0000
  H   H377      1.0  0.01152  0.89493  0.61703  1.0000
  C   C224      1.0  0.01566  0.63550  0.61397  1.0000
  H   H378      1.0  0.15487  0.67695  0.38804  1.0000
  H   H379      1.0  0.09877  0.83364  0.44830  1.0000
  C   C225      1.0  0.05698  0.87135  0.58538  1.0000
  C   C226      1.0  0.06668  0.85466  0.59281  1.0000
  C   C227      1.0  0.08656  0.85252  0.59167  1.0000
  C   C228      1.0  0.09695  0.86730  0.58349  1.0000
  C   C229      1.0  0.08725  0.88400  0.57602  1.0000
  C   C230      1.0  0.06740  0.88593  0.57669  1.0000
  H   H380      1.0  0.05878  0.84331  0.59960  1.0000
  H   H381      1.0  0.09378  0.83965  0.59761  1.0000
  H   H382      1.0  0.09516  0.89551  0.56965  1.0000
  H   H383      1.0  0.06018  0.89881  0.57078  1.0000
  C   C231      1.0  0.22364  0.83326  0.36838  1.0000
  H   H384      1.0  0.19323  0.81793  0.42123  1.0000
  H   H385      1.0  0.14497  0.77095  0.57021  1.0000
  C   C232      1.0  0.15080  0.82184  0.47328  1.0000
  C   C233      1.0  0.14378  0.83065  0.48958  1.0000
  C   C234      1.0  0.15218  0.82621  0.50664  1.0000
  C   C235      1.0  0.16786  0.81299  0.50756  1.0000
  C   C236      1.0  0.17488  0.80412  0.49126  1.0000
  C   C237      1.0  0.16634  0.80843  0.47423  1.0000
  H   H386      1.0  0.13176  0.84104  0.48903  1.0000
  H   H387      1.0  0.14661  0.83315  0.51904  1.0000
  H   H388      1.0  0.18697  0.79383  0.49182  1.0000
  H   H389      1.0  0.17178  0.80139  0.46188  1.0000
  C   C238      1.0  0.05141  0.86550  0.36830  1.0000
  C   C239      1.0  0.05928  0.85586  0.38416  1.0000
  C   C240      1.0  0.07902  0.85092  0.38364  1.0000
  C   C241      1.0  0.09085  0.85609  0.36744  1.0000
  C   C242      1.0  0.08284  0.86568  0.35181  1.0000
  C   C243      1.0  0.06333  0.87008  0.35214  1.0000
  H   H390      1.0  0.05008  0.85194  0.39656  1.0000
  H   H391      1.0  0.08509  0.84325  0.39563  1.0000
  H   H392      1.0  0.09178  0.86972  0.33924  1.0000
  H   H393      1.0  0.05743  0.87735  0.33979  1.0000
  H   H394      1.0  0.12243  0.68878  0.38188  1.0000
  H   H395      1.0  0.09476  0.75608  0.64576  1.0000
  H   H396      1.0  0.05425  0.85704  0.47009  1.0000
  H   H397      1.0  0.09715  0.51229  0.48498  1.0000
  H   H398      1.0  0.07707  0.86531  0.47050  1.0000
  H   H399      1.0  0.08518  0.77108  0.35533  1.0000
  C   C244      1.0  0.00461  0.57394  0.48458  1.0000
  H   H400      1.0  0.00544  0.92841  0.60631  1.0000
  H   H401      1.0  0.01873  0.56824  0.48729  1.0000
  C   C245      1.0  0.11475  0.72275  0.35036  1.0000
  C   C246      1.0  0.10447  0.72286  0.36804  1.0000
  C   C247      1.0  0.10858  0.73507  0.38115  1.0000
  C   C248      1.0  0.12272  0.74764  0.37668  1.0000
  C   C249      1.0  0.13265  0.74789  0.35881  1.0000
  C   C250      1.0  0.12874  0.73546  0.34582  1.0000
  H   H402      1.0  0.09353  0.71337  0.37173  1.0000
  H   H403      1.0  0.10078  0.73473  0.39491  1.0000
  H   H404      1.0  0.14366  0.75732  0.35516  1.0000
  C   C251      1.0  0.08995  0.61538  0.38986  1.0000
  C   C252      1.0  0.09077  0.63153  0.39917  1.0000
  C   C253      1.0  0.09295  0.62985  0.41865  1.0000
  C   C254      1.0  0.09343  0.61211  0.42914  1.0000
  C   C255      1.0  0.09137  0.59614  0.42003  1.0000
  C   C256      1.0  0.08998  0.59775  0.40044  1.0000
  H   H405      1.0  0.09031  0.64519  0.39123  1.0000
  H   H406      1.0  0.09437  0.64230  0.42563  1.0000
  H   H407      1.0  0.09180  0.58240  0.42790  1.0000
  H   H408      1.0  0.08930  0.58517  0.39339  1.0000
  H   H409      1.0  0.17580  0.84546  0.43473  1.0000
  C   C257      1.0  0.01170  0.93200  0.61893  1.0000
  C   C258      1.0  0.12069  0.76181  0.62884  1.0000
  C   C259      1.0  0.13754  0.75406  0.61987  1.0000
  C   C260      1.0  0.14080  0.73426  0.62047  1.0000
  C   C261      1.0  0.12743  0.72237  0.62974  1.0000
  C   C262      1.0  0.99835  0.97807  0.38628  1.0000
  H   H410      1.0  0.11795  0.77696  0.62866  1.0000
  H   H411      1.0  0.15382  0.72804  0.61378  1.0000
  H   H412      1.0  0.13015  0.70723  0.62985  1.0000
  C   C263      1.0  0.10495  0.50118  0.53620  1.0000
  C   C264      1.0  0.09310  0.62635  0.58587  1.0000
  C   C265      1.0  0.08994  0.60829  0.59429  1.0000
  C   C266      1.0  0.08697  0.59389  0.58307  1.0000
  C   C267      1.0  0.08678  0.59745  0.56339  1.0000
  C   C268      1.0  0.08951  0.61561  0.55505  1.0000
  C   C269      1.0  0.09285  0.62989  0.56621  1.0000
  H   H413      1.0  0.09024  0.60529  0.60937  1.0000
  H   H414      1.0  0.08499  0.57986  0.58967  1.0000
  H   H415      1.0  0.08953  0.61855  0.53994  1.0000
  H   H416      1.0  0.09528  0.64381  0.55954  1.0000
  C   C270      1.0  0.22695  0.85209  0.61466  1.0000
  C   C271      1.0  0.06964  0.50226  0.49157  1.0000
  H   H417      1.0  0.99624  0.54723  0.47843  1.0000
  H   H418      1.0  0.16502  0.92518  0.60452  1.0000
  N   N24       1.0  0.03196  0.62240  0.43645  1.0000
  C   C272      1.0  0.04597  0.62460  0.44970  1.0000
  C   C273      1.0  0.01455  0.63449  0.44125  1.0000
  C   C274      1.0  0.02763  0.60248  0.43792  1.0000
  C   C275      1.0  0.03977  0.62795  0.41700  1.0000
  H   H419      1.0  0.22574  0.87679  0.34417  1.0000
  S   S124      1.0  0.99657  0.85414  0.41284  1.0000
  H   H420      1.0  0.19484  0.89140  0.60202  1.0000
  H   H421      1.0  0.05875  0.61477  0.44731  1.0000
  C   C276      1.0  0.00257  0.67227  0.32270  1.0000
  C   C277      1.0  0.99248  0.96039  0.39390  1.0000
  H   H422      1.0  0.01676  0.60034  0.42847  1.0000
  Fe  Fe63      1.0  0.00079  0.87410  0.43378  1.0000
  H   H423      1.0  0.06422  0.79931  0.36547  1.0000
  H   H424      1.0  0.10660  0.77465  0.34078  1.0000
  H   H425      1.0  0.11828  0.53284  0.51857  1.0000
  H   H426      1.0  0.04406  0.63427  0.63583  1.0000
  H   H427      1.0  0.13382  0.67221  0.34358  1.0000
  H   H428      1.0  0.14675  0.68698  0.35515  1.0000
  N   N25       1.0  0.13680  0.66306  0.37271  1.0000
  S   S125      1.0  0.11129  0.70673  0.33364  1.0000
  H   H429      1.0  0.00676  0.89968  0.64120  1.0000
  H   H430      1.0  0.04835  0.92883  0.60561  1.0000
  H   H431      1.0  0.16435  0.65406  0.38148  1.0000
  H   H432      1.0  0.12794  0.63605  0.38441  1.0000
  H   H433      1.0  0.04042  0.59297  0.43409  1.0000
  H   H434      1.0  0.09338  0.49183  0.54046  1.0000
  H   H435      1.0  0.10856  0.67540  0.36957  1.0000
  H   H436      1.0  0.14487  0.63512  0.36421  1.0000
  H   H437      1.0  0.18772  0.88349  0.58114  1.0000
  H   H438      1.0  0.05537  0.63522  0.58366  1.0000
  C   C278      1.0  0.18494  0.89487  0.59088  1.0000
  N   N26       1.0  0.16512  0.89615  0.59912  1.0000
  C   C279      1.0  0.15116  0.66250  0.38625  1.0000
  C   C280      1.0  0.18125  0.76002  0.56001  1.0000
  H   H439      1.0  0.18540  0.77356  0.55246  1.0000
  H   H440      1.0  0.17863  0.76227  0.57523  1.0000
  H   H441      1.0  0.19357  0.74939  0.55842  1.0000
  H   H442      1.0  0.02958  0.62661  0.40656  1.0000
  C   C281      1.0  0.10754  0.74989  0.63857  1.0000
  H   H443      1.0  0.04353  0.64280  0.41537  1.0000
  H   H444      1.0  0.23557  0.83621  0.43612  1.0000
  H   H445      1.0  0.00836  0.63044  0.45586  1.0000
  H   H446      1.0  0.99249  0.59874  0.35434  1.0000
  H   H447      1.0  0.01741  0.94596  0.61518  1.0000
  H   H448      1.0  0.15437  0.88912  0.57398  1.0000
  H   H449      1.0  0.13680  0.73555  0.33219  1.0000
  H   H450      1.0  0.00579  0.64285  0.60403  1.0000
  C   C282      1.0  0.09487  0.52130  0.56123  1.0000
  H   H451      1.0  0.01881  0.95589  0.44431  1.0000
  S   S126      1.0  0.02168  0.67539  0.33578  1.0000
  H   H452      1.0  0.05183  0.87394  0.43823  1.0000
  N   N27       1.0  0.09923  0.52078  0.54067  1.0000
  H   H453      1.0  0.03343  0.66541  0.62011  1.0000
  H   H454      1.0  0.10168  0.82685  0.33983  1.0000
  C   C283      1.0  0.00566  0.91692  0.47702  1.0000
  C   C284      1.0  0.10144  0.79884  0.36782  1.0000
  Fe  Fe64      1.0  0.05336  0.66849  0.32846  1.0000
  H   H455      1.0  0.05221  0.66266  0.60171  1.0000
  H   H456      1.0  0.10730  0.51596  0.56898  1.0000
  S   S127      1.0  0.06586  0.63983  0.32116  1.0000
  H   H457      1.0  0.11334  0.66768  0.39347  1.0000
  S   S128      1.0  0.10747  0.65472  0.32369  1.0000
  H   H458      1.0  0.15746  0.66439  0.34866  1.0000
  C   C285      1.0  0.14410  0.67201  0.35426  1.0000
  H   H459      1.0  0.99856  0.93022  0.47204  1.0000
  H   H460      1.0  0.20260  0.85530  0.36028  1.0000
  H   H461      1.0  0.15183  0.78217  0.54726  1.0000
  N   N28       1.0  0.16442  0.75391  0.55275  1.0000
  H   H462      1.0  0.17245  0.76455  0.52426  1.0000
  C   C286      1.0  0.14849  0.76848  0.55511  1.0000
  H   H463      1.0  0.14664  0.73103  0.55838  1.0000
  H   H464      1.0  0.09492  0.81338  0.32215  1.0000
  H   H465      1.0  0.01370  0.62017  0.61519  1.0000
  Fe  Fe65      1.0  0.99985  0.92011  0.53935  1.0000
  H   H466      1.0  0.18058  0.74030  0.53016  1.0000
  C   C287      1.0  0.15932  0.73606  0.56340  1.0000
  C   C288      1.0  0.16859  0.75118  0.53252  1.0000
  H   H467      1.0  0.15602  0.73792  0.57870  1.0000
  C   C289      1.0  0.09376  0.84741  0.44095  1.0000
  H   H468      1.0  0.11670  0.80683  0.33267  1.0000
  H   H469      1.0  0.07419  0.84051  0.47444  1.0000
  H   H470      1.0  0.15618  0.74666  0.52653  1.0000
  H   H471      1.0  0.06684  0.82313  0.44822  1.0000
  H   H472      1.0  0.13553  0.76434  0.54983  1.0000
  C   C290      1.0  0.06276  0.83690  0.44038  1.0000
  H   H473      1.0  0.01536  0.96157  0.47793  1.0000
  C   C291      1.0  0.18819  0.84712  0.44246  1.0000
  N   N29       1.0  0.09176  0.80002  0.35043  1.0000
  H   H474      1.0  0.04727  0.84008  0.44357  1.0000
  H   H475      1.0  0.06986  0.86934  0.41959  1.0000
  C   C292      1.0  0.00295  0.97176  0.47516  1.0000
  H   H476      1.0  0.01736  0.64959  0.44050  1.0000
  H   H477      1.0  0.05284  0.61890  0.41301  1.0000
  H   H478      1.0  0.99988  0.93380  0.63014  1.0000
  H   H479      1.0  0.11749  0.49510  0.54344  1.0000
  N   N30       1.0  0.20601  0.83982  0.43230  1.0000
  C   C293      1.0  0.20508  0.81974  0.42958  1.0000
  H   H480      1.0  0.14598  0.65606  0.40041  1.0000
  C   C294      1.0  0.99086  0.67642  0.64855  1.0000
  H   H481      1.0  0.05271  0.90407  0.61305  1.0000
  H   H482      1.0  0.99436  0.62259  0.35926  1.0000
  C   C295      1.0  0.11077  0.73010  0.63908  1.0000
  H   H483      1.0  0.00774  0.97249  0.42740  1.0000
  H   H484      1.0  0.12079  0.64351  0.36144  1.0000
  H   H485      1.0  0.01122  0.64066  0.62803  1.0000
  S   S129      1.0  0.11389  0.66254  0.64526  1.0000
  C   C296      1.0  0.08927  0.50001  0.48798  1.0000
  H   H486      1.0  0.14608  0.87819  0.61585  1.0000
  C   C297      1.0  0.03428  0.92247  0.64167  1.0000
  H   H487      1.0  0.14723  0.91247  0.61852  1.0000
  H   H488      1.0  0.18865  0.90829  0.58280  1.0000
  H   H489      1.0  0.04714  0.61380  0.62289  1.0000
  C   C298      1.0  0.11950  0.67418  0.37975  1.0000
  C   C299      1.0  0.02105  0.89713  0.50140  1.0000
  C   C300      1.0  0.03738  0.65954  0.60629  1.0000
  H   H490      1.0  0.09449  0.78963  0.37940  1.0000
  H   H491      1.0  0.00362  0.63326  0.43155  1.0000
  C   C301      1.0  0.04789  0.62933  0.62159  1.0000
  H   H492      1.0  0.02630  0.89530  0.51516  1.0000
  H   H493      1.0  0.23012  0.82292  0.62543  1.0000
  H   H494      1.0  0.99967  0.94751  0.38903  1.0000
  C   C302      1.0  0.00322  0.97930  0.57465  1.0000
  C   C303      1.0  0.02284  0.88195  0.49019  1.0000
  H   H495      1.0  0.02822  0.66739  0.59595  1.0000
  C   C304      1.0  0.16206  0.91125  0.61203  1.0000
  H   H496      1.0  0.16337  0.86635  0.60040  1.0000
  H   H497      1.0  0.02917  0.86836  0.49548  1.0000
  C   C305      1.0  0.16102  0.87799  0.60972  1.0000
  H   H498      1.0  0.15521  0.91396  0.57544  1.0000
  H   H499      1.0  0.22217  0.84549  0.40568  1.0000
  C   C306      1.0  0.01570  0.88419  0.47255  1.0000
  H   H500      1.0  0.22308  0.85664  0.44573  1.0000
  N   N31       1.0  0.03543  0.63905  0.60774  1.0000
  H   H501      1.0  0.07723  0.54247  0.53473  1.0000
  C   C307      1.0  0.00739  0.90176  0.46586  1.0000
  S   S130      1.0  0.01606  0.86482  0.45940  1.0000
  C   C308      1.0  0.04086  0.63188  0.58912  1.0000
  H   H502      1.0  0.03601  0.91170  0.59640  1.0000
  C   C309      1.0  0.99888  0.59295  0.48654  1.0000
  H   H503      1.0  0.04066  0.61628  0.58982  1.0000
  H   H504      1.0  0.00179  0.90360  0.45229  1.0000
  H   H505      1.0  0.19723  0.84937  0.40483  1.0000
  H   H506      1.0  0.20953  0.86595  0.41511  1.0000
  C   C310      1.0  0.07208  0.80809  0.35419  1.0000
  C   C311      1.0  0.09193  0.78090  0.34417  1.0000
  C   C312      1.0  0.01211  0.91450  0.49495  1.0000
  C   C313      1.0  0.13245  0.64362  0.37059  1.0000
  H   H507      1.0  0.02883  0.88736  0.63305  1.0000
  H   H508      1.0  0.10164  0.81301  0.37289  1.0000
  H   H509      1.0  0.00852  0.96704  0.56744  1.0000
  N   N32       1.0  0.02639  0.91724  0.62483  1.0000
  C   C314      1.0  0.20885  0.85069  0.41373  1.0000
  H   H510      1.0  0.04541  0.91158  0.64645  1.0000
  H   H511      1.0  0.04030  0.62150  0.46460  1.0000
  C   C315      1.0  0.22193  0.84165  0.44342  1.0000
  H   H512      1.0  0.01004  0.97867  0.37548  1.0000
  H   H513      1.0  0.99370  0.95795  0.44394  1.0000
  C   C316      1.0  0.15250  0.90041  0.58385  1.0000
  C   C317      1.0  0.08231  0.52798  0.53110  1.0000
  C   C318      1.0  0.10168  0.81228  0.33558  1.0000
  H   H514      1.0  0.18577  0.83945  0.45668  1.0000
  C   C319      1.0  0.00632  0.96616  0.44226  1.0000
  H   H515      1.0  0.21815  0.81380  0.42164  1.0000
  C   C320      1.0  0.11470  0.53281  0.53407  1.0000
  C   C321      1.0  0.01801  0.89904  0.62932  1.0000
  Fe  Fe66      1.0  0.09252  0.68278  0.33094  1.0000
  H   H516      1.0  0.06286  0.63204  0.61757  1.0000
  H   H517      1.0  0.11632  0.79280  0.36547  1.0000
  H   H518      1.0  0.08308  0.51257  0.56662  1.0000
  N   N33       1.0  0.00461  0.98081  0.45566  1.0000
  H   H519      1.0  0.11072  0.54774  0.53710  1.0000
  H   H520      1.0  0.07149  0.82256  0.35883  1.0000
  H   H521      1.0  0.09057  0.53600  0.56493  1.0000
  C   C322      1.0  0.23077  0.86324  0.35079  1.0000
  H   H522      1.0  0.18815  0.86235  0.44442  1.0000
  C   C323      1.0  0.99185  0.56201  0.47962  1.0000
  H   H523      1.0  0.23454  0.95437  0.33238  1.0000
  H   H524      1.0  0.17142  0.90837  0.62370  1.0000
  H   H525      1.0  0.04069  0.93615  0.63874  1.0000
  C   C324      1.0  0.23464  0.86960  0.61433  1.0000
  H   H526      1.0  0.22022  0.83356  0.45752  1.0000
  H   H527      1.0  0.06431  0.80919  0.34137  1.0000
  H   H528      1.0  0.10859  0.50044  0.52079  1.0000
  C   C325      1.0  0.23567  0.83651  0.62492  1.0000
  H   H529      1.0  0.02029  0.67869  0.65179  1.0000
  S   S131      1.0  0.09417  0.71579  0.65256  1.0000
  Fe  Fe67      1.0  0.09043  0.68420  0.65293  1.0000
  H   H530      1.0  0.02316  0.92396  0.65361  1.0000
  C   C326      1.0  0.01125  0.65222  0.66468  1.0000
  C   C327      1.0  0.99590  0.64107  0.66841  1.0000
  N   N34       1.0  0.17747  0.61352  0.89007  1.0000
  Fe  Fe68      1.0  0.10358  0.64546  0.67212  1.0000
  S   S132      1.0  0.12650  0.63426  0.69208  1.0000
  S   S133      1.0  0.08066  0.66772  0.68024  1.0000
  Fe  Fe69      1.0  0.15055  0.58910  0.80125  1.0000
  S   S134      1.0  0.18017  0.57446  0.80164  1.0000
  S   S135      1.0  0.12989  0.60100  0.77904  1.0000
  Fe  Fe70      1.0  0.14458  0.58563  0.84487  1.0000
  S   S136      1.0  0.17336  0.57113  0.84849  1.0000
  S   S137      1.0  0.12223  0.59646  0.86713  1.0000
  Fe  Fe71      1.0  0.18407  0.59214  0.82542  1.0000
  C   C328      1.0  0.13817  0.71254  0.68931  1.0000
  Fe  Fe72      1.0  0.16777  0.55409  0.82487  1.0000
  S   S138      1.0  0.17539  0.52237  0.83121  1.0000
  S   S139      1.0  0.15544  0.60794  0.82336  1.0000
  S   S140      1.0  0.13817  0.56736  0.82304  1.0000
  H   H531      1.0  0.13474  0.71856  0.70311  1.0000
  H   H532      1.0  0.99782  0.62733  0.67612  1.0000
  S   S141      1.0  0.10774  0.55609  0.95021  1.0000
  H   H533      1.0  0.19107  0.59549  0.91152  1.0000
  C   C329      1.0  0.17527  0.63024  0.90092  1.0000
  H   H534      1.0  0.14617  0.68714  0.71860  1.0000
  Fe  Fe73      1.0  0.06225  0.65362  0.66308  1.0000
  C   C330      1.0  0.14072  0.68484  0.67236  1.0000
  C   C331      1.0  0.19345  0.60058  0.89635  1.0000
  H   H535      1.0  0.01099  0.55398  0.98047  1.0000
  C   C332      1.0  0.11659  0.68860  0.69808  1.0000
  S   S142      1.0  0.03322  0.64354  0.67306  1.0000
  C   C333      1.0  0.99888  0.62539  0.98317  1.0000
  N   N35       1.0  0.13619  0.69204  0.69104  1.0000
  C   C334      1.0  0.17060  0.50225  0.82040  1.0000
  C   C335      1.0  0.15965  0.50349  0.80512  1.0000
  H   H536      1.0  0.14783  0.66661  0.70580  1.0000
  H   H537      1.0  0.15406  0.51718  0.79928  1.0000
  C   C336      1.0  0.14918  0.68213  0.70430  1.0000
  C   C337      1.0  0.11818  0.58500  0.89012  1.0000
  C   C338      1.0  0.10488  0.59347  0.90325  1.0000
  C   C339      1.0  0.10149  0.58488  0.92174  1.0000
  C   C340      1.0  0.11139  0.56771  0.92724  1.0000
  C   C341      1.0  0.12474  0.55932  0.91409  1.0000
  C   C342      1.0  0.12813  0.56789  0.89564  1.0000
  H   H538      1.0  0.09715  0.60674  0.89915  1.0000
  H   H539      1.0  0.09119  0.59149  0.93171  1.0000
  H   H540      1.0  0.13246  0.54603  0.91822  1.0000
  H   H541      1.0  0.13840  0.56118  0.88569  1.0000
  C   C343      1.0  0.22524  0.61170  0.84332  1.0000
  C   C344      1.0  0.22741  0.59794  0.85845  1.0000
  H   H542      1.0  0.16414  0.68425  0.69938  1.0000
  H   H543      1.0  0.01472  0.52866  0.95856  1.0000
  H   H544      1.0  0.21925  0.58585  0.85982  1.0000
  C   C345      1.0  0.12702  0.62510  0.71635  1.0000
  C   C346      1.0  0.14458  0.61956  0.72350  1.0000
  C   C347      1.0  0.14581  0.61224  0.74251  1.0000
  C   C348      1.0  0.12945  0.61032  0.75479  1.0000
  C   C349      1.0  0.11190  0.61600  0.74767  1.0000
  C   C350      1.0  0.11066  0.62333  0.72866  1.0000
  H   H545      1.0  0.15738  0.62076  0.71421  1.0000
  H   H546      1.0  0.15944  0.60796  0.74761  1.0000
  H   H547      1.0  0.09909  0.61463  0.75688  1.0000
  H   H548      1.0  0.09704  0.62746  0.72351  1.0000
  H   H549      1.0  0.07819  0.49671  0.95923  1.0000
  H   H550      1.0  0.10640  0.69583  0.68837  1.0000
  H   H551      1.0  0.18332  0.60727  0.86122  1.0000
  H   H552      1.0  0.17242  0.62619  0.91628  1.0000
  H   H553      1.0  0.14761  0.61313  0.88881  1.0000
  S   S143      1.0  0.20830  0.61082  0.82674  1.0000
  H   H554      1.0  0.15529  0.68746  0.66641  1.0000
  H   H555      1.0  0.16919  0.62895  0.86437  1.0000
  H   H556      1.0  0.13090  0.69176  0.66215  1.0000
  C   C351      1.0  0.06925  0.49359  0.97207  1.0000
  S   S144      1.0  0.08468  0.63014  0.65635  1.0000
  H   H557      1.0  0.11459  0.67325  0.69946  1.0000
  H   H558      1.0  0.20682  0.60763  0.89440  1.0000
  C   C352      1.0  0.23646  0.62704  0.84154  1.0000
  H   H559      1.0  0.11265  0.69381  0.71218  1.0000
  H   H560      1.0  0.15276  0.71571  0.68393  1.0000
  H   H561      1.0  0.15684  0.59862  0.90828  1.0000
  H   H562      1.0  0.16337  0.64034  0.89644  1.0000
  Fe  Fe74      1.0  0.08818  0.56470  0.97568  1.0000
  H   H563      1.0  0.16109  0.59122  0.88492  1.0000
  H   H564      1.0  0.13963  0.66934  0.67315  1.0000
  N   N36       1.0  0.08665  0.60216  0.82231  1.0000
  C   C353      1.0  0.06922  0.61502  0.82204  1.0000
  C   C354      1.0  0.08592  0.58943  0.83990  1.0000
  C   C355      1.0  0.10307  0.61336  0.82136  1.0000
  C   C356      1.0  0.08846  0.59087  0.80591  1.0000
  H   H565      1.0  0.06940  0.62480  0.80892  1.0000
  H   H566      1.0  0.06752  0.62378  0.83421  1.0000
  H   H567      1.0  0.05652  0.60705  0.82275  1.0000
  H   H568      1.0  0.09901  0.57971  0.84065  1.0000
  H   H569      1.0  0.08468  0.59748  0.85257  1.0000
  H   H570      1.0  0.07380  0.58064  0.84111  1.0000
  H   H571      1.0  0.11640  0.60407  0.82130  1.0000
  H   H572      1.0  0.10249  0.62178  0.83370  1.0000
  H   H573      1.0  0.10421  0.62309  0.80823  1.0000
  H   H574      1.0  0.10158  0.58111  0.80560  1.0000
  H   H575      1.0  0.08933  0.60003  0.79238  1.0000
  H   H576      1.0  0.07635  0.58221  0.80605  1.0000
  C   C357      1.0  0.16002  0.60371  0.89320  1.0000
  H   H577      1.0  0.19407  0.62726  0.86687  1.0000
  C   C358      1.0  0.18114  0.61956  0.86980  1.0000
  H   H578      1.0  0.19571  0.58794  0.88820  1.0000
  H   H579      1.0  0.18827  0.63790  0.89886  1.0000
  H   H580      1.0  0.12847  0.72024  0.67929  1.0000
  S   S145      1.0  0.05694  0.56157  0.98018  1.0000
  H   H581      1.0  0.00413  0.50689  0.96541  1.0000
  C   C359      1.0  0.01099  0.51835  0.97074  1.0000
  H   H582      1.0  0.00519  0.63861  0.97984  1.0000
  N   N37       1.0  0.99857  0.52753  0.98557  1.0000
  H   H583      1.0  0.07001  0.52106  0.98158  1.0000
  C   C360      1.0  0.06457  0.50741  0.98471  1.0000
  H   H584      1.0  0.02444  0.51197  0.97615  1.0000
  H   H585      1.0  0.23502  0.63774  0.82987  1.0000
  C   C361      1.0  0.00868  0.66988  0.65457  1.0000
  C   C362      1.0  0.46955  0.00007  0.11269  1.0000
  C   C363      1.0  0.35246  0.07663  0.15985  1.0000
  Fe  Fe75      1.0  0.33942  0.07768  0.30509  1.0000
  S   S146      1.0  0.35343  0.07958  0.27469  1.0000
  Fe  Fe76      1.0  0.39538  0.12791  0.14064  1.0000
  S   S147      1.0  0.40666  0.11841  0.16846  1.0000
  S   S148      1.0  0.38356  0.10761  0.12302  1.0000
  Fe  Fe77      1.0  0.39819  0.17018  0.14493  1.0000
  S   S149      1.0  0.41030  0.16297  0.17304  1.0000
  S   S150      1.0  0.39500  0.20229  0.13614  1.0000
  Fe  Fe78      1.0  0.42813  0.13953  0.15946  1.0000
  S   S151      1.0  0.45816  0.12814  0.16497  1.0000
  Fe  Fe79      1.0  0.38803  0.14253  0.17983  1.0000
  S   S152      1.0  0.36824  0.14372  0.20700  1.0000
  S   S153      1.0  0.41777  0.14780  0.13082  1.0000
  S   S154      1.0  0.37501  0.15089  0.15253  1.0000
  Fe  Fe80      1.0  0.41317  0.00329  0.08488  1.0000
  S   S155      1.0  0.41585  0.00562  0.05307  1.0000
  S   S156      1.0  0.41909  0.02512  0.10453  1.0000
  H   H586      1.0  0.32131  0.23596  0.04021  1.0000
  Fe  Fe81      1.0  0.32117  0.32611  0.05454  1.0000
  S   S157      1.0  0.35067  0.31623  0.06155  1.0000
  S   S158      1.0  0.30881  0.32748  0.02609  1.0000
  Fe  Fe82      1.0  0.30709  0.33205  0.09588  1.0000
  S   S159      1.0  0.33573  0.32204  0.10560  1.0000
  S   S160      1.0  0.28409  0.33907  0.11945  1.0000
  Fe  Fe83      1.0  0.34693  0.34040  0.08018  1.0000
  S   S161      1.0  0.37031  0.35926  0.08338  1.0000
  Fe  Fe84      1.0  0.33712  0.29866  0.08646  1.0000
  S   S162      1.0  0.34158  0.26609  0.09207  1.0000
  S   S163      1.0  0.31832  0.35145  0.07153  1.0000
  S   S164      1.0  0.30765  0.30765  0.07841  1.0000
  H   H587      1.0  0.35422  0.06006  0.19523  1.0000
  C   C364      1.0  0.37369  0.45415  0.01960  1.0000
  H   H588      1.0  0.33705  0.08083  0.16035  1.0000
  Fe  Fe85      1.0  0.39542  0.46875  0.07008  1.0000
  S   S165      1.0  0.37224  0.44890  0.06884  1.0000
  S   S166      1.0  0.42278  0.46742  0.05178  1.0000
  H   H589      1.0  0.38832  0.08275  0.18570  1.0000
  H   H590      1.0  0.40159  0.43668  0.03852  1.0000
  C   C365      1.0  0.31655  0.26903  0.01874  1.0000
  N   N38       1.0  0.36096  0.08366  0.17548  1.0000
  C   C366      1.0  0.47193  0.48194  0.00647  1.0000
  H   H591      1.0  0.35818  0.08089  0.20579  1.0000
  H   H592      1.0  0.29315  0.33089  0.99056  1.0000
  C   C367      1.0  0.26196  0.35289  0.11950  1.0000
  H   H593      1.0  0.36258  0.44626  0.02807  1.0000
  C   C368      1.0  0.25636  0.36416  0.10358  1.0000
  N   N39       1.0  0.47743  0.01575  0.10031  1.0000
  H   H594      1.0  0.26523  0.36406  0.09044  1.0000
  C   C369      1.0  0.31884  0.32166  0.00339  1.0000
  H   H595      1.0  0.33065  0.29410  0.03821  1.0000
  C   C370      1.0  0.33733  0.31350  0.00018  1.0000
  H   H596      1.0  0.39952  0.46160  0.99022  1.0000
  H   H597      1.0  0.34648  0.31165  0.01145  1.0000
  C   C371      1.0  0.37062  0.38419  0.07898  1.0000
  C   C372      1.0  0.38660  0.39273  0.08274  1.0000
  C   C373      1.0  0.38739  0.41246  0.07974  1.0000
  C   C374      1.0  0.37210  0.42395  0.07306  1.0000
  C   C375      1.0  0.35616  0.41542  0.06918  1.0000
  C   C376      1.0  0.35544  0.39567  0.07203  1.0000
  H   H598      1.0  0.39845  0.38400  0.08808  1.0000
  H   H599      1.0  0.39977  0.41876  0.08276  1.0000
  H   H600      1.0  0.34431  0.42414  0.06384  1.0000
  H   H601      1.0  0.34319  0.38932  0.06877  1.0000
  C   C377      1.0  0.48538  0.47610  0.07956  1.0000
  H   H602      1.0  0.37862  0.46375  0.02905  1.0000
  C   C378      1.0  0.47102  0.03383  0.10825  1.0000
  H   H603      1.0  0.47676  0.04596  0.09931  1.0000
  H   H604      1.0  0.46211  0.47289  0.01544  1.0000
  C   C379      1.0  0.35794  0.10447  0.17423  1.0000
  C   C380      1.0  0.37969  0.21974  0.12403  1.0000
  C   C381      1.0  0.36432  0.21520  0.11526  1.0000
  C   C382      1.0  0.35285  0.22956  0.10571  1.0000
  C   C383      1.0  0.35638  0.24871  0.10489  1.0000
  C   C384      1.0  0.37159  0.25326  0.11391  1.0000
  C   C385      1.0  0.38315  0.23889  0.12334  1.0000
  H   H605      1.0  0.36140  0.20061  0.11559  1.0000
  H   H606      1.0  0.34115  0.22577  0.09886  1.0000
  H   H607      1.0  0.37463  0.26783  0.11341  1.0000
  H   H608      1.0  0.39500  0.24266  0.12998  1.0000
  H   H609      1.0  0.40961  0.46165  0.01212  1.0000
  H   H610      1.0  0.30599  0.25915  0.01676  1.0000
  H   H611      1.0  0.40900  0.41889  0.02263  1.0000
  C   C386      1.0  0.40454  0.45236  0.00246  1.0000
  H   H612      1.0  0.46529  0.16734  0.15247  1.0000
  C   C387      1.0  0.39396  0.08494  0.11753  1.0000
  C   C388      1.0  0.38543  0.07490  0.10525  1.0000
  C   C389      1.0  0.39293  0.05666  0.10095  1.0000
  C   C390      1.0  0.40894  0.04814  0.10912  1.0000
  C   C391      1.0  0.41732  0.05812  0.12159  1.0000
  C   C392      1.0  0.41002  0.07645  0.12563  1.0000
  H   H613      1.0  0.37298  0.08131  0.09892  1.0000
  H   H614      1.0  0.38628  0.04918  0.09138  1.0000
  H   H615      1.0  0.42955  0.05166  0.12822  1.0000
  H   H616      1.0  0.41679  0.08397  0.13508  1.0000
  C   C393      1.0  0.35793  0.09803  0.25656  1.0000
  C   C394      1.0  0.34878  0.11621  0.25694  1.0000
  C   C395      1.0  0.35220  0.13000  0.24173  1.0000
  C   C396      1.0  0.36495  0.12593  0.22606  1.0000
  C   C397      1.0  0.37435  0.10785  0.22583  1.0000
  C   C398      1.0  0.37071  0.09398  0.24089  1.0000
  H   H617      1.0  0.33886  0.11955  0.26881  1.0000
  H   H618      1.0  0.34484  0.14391  0.24211  1.0000
  H   H619      1.0  0.38445  0.10456  0.21410  1.0000
  H   H620      1.0  0.37797  0.08002  0.24050  1.0000
  H   H621      1.0  0.47542  0.03402  0.12268  1.0000
  H   H622      1.0  0.45519  0.01838  0.08189  1.0000
  H   H623      1.0  0.36694  0.46310  0.00810  1.0000
  N   N40       1.0  0.38939  0.44125  0.01204  1.0000
  Fe  Fe86      1.0  0.43585  0.47795  0.07555  1.0000
  C   C399      1.0  0.30656  0.26926  0.05192  1.0000
  H   H624      1.0  0.45383  0.00182  0.11421  1.0000
  H   H625      1.0  0.30985  0.28366  0.01594  1.0000
  C   C400      1.0  0.47085  0.01606  0.08137  1.0000
  N   N41       1.0  0.31173  0.38780  0.11810  1.0000
  C   C401      1.0  0.32169  0.40499  0.11787  1.0000
  C   C402      1.0  0.29805  0.38628  0.13498  1.0000
  C   C403      1.0  0.32556  0.37106  0.11851  1.0000
  C   C404      1.0  0.30158  0.38879  0.10101  1.0000
  H   H626      1.0  0.31173  0.41794  0.11727  1.0000
  H   H627      1.0  0.33231  0.40635  0.10543  1.0000
  H   H628      1.0  0.32940  0.40477  0.13064  1.0000
  H   H629      1.0  0.30518  0.38535  0.14818  1.0000
  H   H630      1.0  0.28727  0.39858  0.13510  1.0000
  H   H631      1.0  0.29031  0.37341  0.13550  1.0000
  H   H632      1.0  0.33388  0.37005  0.13093  1.0000
  H   H633      1.0  0.33575  0.37139  0.10569  1.0000
  H   H634      1.0  0.31844  0.35783  0.11922  1.0000
  H   H635      1.0  0.29441  0.37574  0.10052  1.0000
  H   H636      1.0  0.31137  0.39036  0.08797  1.0000
  H   H637      1.0  0.29055  0.40086  0.10050  1.0000
  C   C405      1.0  0.33151  0.24648  0.04139  1.0000
  H   H638      1.0  0.48793  0.46414  0.03665  1.0000
  S   S167      1.0  0.46542  0.46364  0.07829  1.0000
  H   H639      1.0  0.32855  0.26715  0.00774  1.0000
  H   H640      1.0  0.47434  0.99922  0.12706  1.0000
  H   H641      1.0  0.34402  0.24360  0.03122  1.0000
  H   H642      1.0  0.38850  0.08384  0.16053  1.0000
  H   H643      1.0  0.41687  0.44311  0.99703  1.0000
  C   C406      1.0  0.33698  0.27930  0.03969  1.0000
  H   H644      1.0  0.34270  0.27694  0.05366  1.0000
  N   N42       1.0  0.36839  0.20677  0.18917  1.0000
  C   C407      1.0  0.36173  0.19638  0.17467  1.0000
  C   C408      1.0  0.37261  0.19349  0.20570  1.0000
  C   C409      1.0  0.35355  0.22147  0.19488  1.0000
  C   C410      1.0  0.38564  0.21570  0.18137  1.0000
  H   H645      1.0  0.35834  0.20591  0.16195  1.0000
  H   H646      1.0  0.34900  0.18903  0.18011  1.0000
  H   H647      1.0  0.37277  0.18549  0.16983  1.0000
  H   H648      1.0  0.37760  0.20077  0.21703  1.0000
  H   H649      1.0  0.36002  0.18618  0.21176  1.0000
  H   H650      1.0  0.38379  0.18223  0.20184  1.0000
  H   H651      1.0  0.35808  0.22963  0.20582  1.0000
  H   H652      1.0  0.34033  0.21519  0.20076  1.0000
  H   H653      1.0  0.35008  0.23166  0.18265  1.0000
  H   H654      1.0  0.39714  0.20498  0.17689  1.0000
  H   H655      1.0  0.39106  0.22379  0.19183  1.0000
  H   H656      1.0  0.38305  0.22553  0.16862  1.0000
  H   H657      1.0  0.29576  0.25924  0.05127  1.0000
  H   H658      1.0  0.34913  0.27793  0.02879  1.0000
  C   C411      1.0  0.47812  0.15995  0.15720  1.0000
  H   H659      1.0  0.29958  0.28381  0.04950  1.0000
  H   H660      1.0  0.33635  0.24396  0.05585  1.0000
  H   H661      1.0  0.36419  0.11086  0.16050  1.0000
  H   H662      1.0  0.31779  0.01041  0.30412  1.0000
  H   H663      1.0  0.38586  0.41967  0.03495  1.0000
  H   H664      1.0  0.36448  0.11035  0.18557  1.0000
  C   C412      1.0  0.25004  0.35315  0.13638  1.0000
  H   H665      1.0  0.47673  0.02747  0.07149  1.0000
  H   H666      1.0  0.33667  0.07985  0.19530  1.0000
  S   S168      1.0  0.30959  0.07005  0.31463  1.0000
  H   H667      1.0  0.35891  0.08238  0.14589  1.0000
  H   H668      1.0  0.38427  0.06224  0.17455  1.0000
  H   H669      1.0  0.35458  0.06098  0.16022  1.0000
  C   C413      1.0  0.39683  0.42855  0.02767  1.0000
  H   H670      1.0  0.34268  0.10941  0.17553  1.0000
  C   C414      1.0  0.38140  0.07785  0.17405  1.0000
  S   S169      1.0  0.40879  0.47705  0.09493  1.0000
  H   H671      1.0  0.31093  0.26758  0.06654  1.0000
  H   H672      1.0  0.37088  0.42153  0.00515  1.0000
  N   N43       1.0  0.32289  0.26598  0.03791  1.0000
  C   C415      1.0  0.47829  0.14095  0.16410  1.0000
  C   C416      1.0  0.35211  0.07574  0.19373  1.0000
  H   H673      1.0  0.47502  0.00247  0.07516  1.0000
  H   H674      1.0  0.45538  0.03637  0.10921  1.0000
  C   C417      1.0  0.31790  0.99686  0.31233  1.0000
  H   H675      1.0  0.48030  0.08829  0.31637  1.0000
  H   H676      1.0  0.39390  0.41996  0.99247  1.0000
  H   H677      1.0  0.25421  0.34451  0.14880  1.0000
  H   H678      1.0  0.47958  0.47344  0.99542  1.0000
  C   C418      1.0  0.38246  0.42995  0.99841  1.0000
  C   C419      1.0  0.30745  0.32455  0.98828  1.0000
  C   C420      1.0  0.41399  0.11695  0.65245  1.0000
  S   S170      1.0  0.37067  0.09683  0.63246  1.0000
  H   H679      1.0  0.40173  0.10337  0.60463  1.0000
  H   H680      1.0  0.47461  0.10245  0.47305  1.0000
  Fe  Fe87      1.0  0.47716  0.06584  0.59995  1.0000
  C   C421      1.0  0.25142  0.13530  0.57651  1.0000
  S   S171      1.0  0.45370  0.05631  0.62176  1.0000
  C   C422      1.0  0.37537  0.04344  0.61399  1.0000
  C   C423      1.0  0.38669  0.01059  0.61301  1.0000
  Fe  Fe88      1.0  0.31085  0.08858  0.33839  1.0000
  S   S172      1.0  0.28993  0.11108  0.35237  1.0000
  Fe  Fe89      1.0  0.35171  0.07233  0.34550  1.0000
  S   S173      1.0  0.37189  0.06800  0.36879  1.0000
  S   S174      1.0  0.48297  0.05388  0.39660  1.0000
  S   S175      1.0  0.31726  0.01641  0.34417  1.0000
  C   C424      1.0  0.46828  0.03143  0.51460  1.0000
  S   S176      1.0  0.32293  0.06451  0.35717  1.0000
  Fe  Fe90      1.0  0.47095  0.08291  0.40278  1.0000
  S   S177      1.0  0.45073  0.09761  0.38205  1.0000
  S   S178      1.0  0.46768  0.07615  0.43446  1.0000
  H   H681      1.0  0.34602  0.99324  0.36314  1.0000
  C   C425      1.0  0.26556  0.11261  0.36157  1.0000
  C   C426      1.0  0.25785  0.12886  0.37025  1.0000
  H   H682      1.0  0.31300  0.09405  0.38439  1.0000
  C   C427      1.0  0.25371  0.09836  0.36046  1.0000
  C   C428      1.0  0.48981  0.10302  0.51679  1.0000
  H   H683      1.0  0.36127  0.09878  0.39683  1.0000
  H   H684      1.0  0.25927  0.08575  0.35389  1.0000
  C   C429      1.0  0.36937  0.02037  0.36035  1.0000
  N   N44       1.0  0.33398  0.11163  0.39038  1.0000
  C   C430      1.0  0.47114  0.99738  0.56845  1.0000
  H   H685      1.0  0.31487  0.12398  0.41183  1.0000
  C   C431      1.0  0.42917  0.08879  0.37801  1.0000
  C   C432      1.0  0.41905  0.09721  0.36301  1.0000
  C   C433      1.0  0.40172  0.09080  0.35963  1.0000
  C   C434      1.0  0.39421  0.07602  0.37141  1.0000
  C   C435      1.0  0.40432  0.06764  0.38639  1.0000
  C   C436      1.0  0.42175  0.07385  0.38959  1.0000
  H   H686      1.0  0.42461  0.10881  0.35399  1.0000
  H   H687      1.0  0.39412  0.09745  0.34808  1.0000
  H   H688      1.0  0.39865  0.05626  0.39565  1.0000
  H   H689      1.0  0.42931  0.06724  0.40120  1.0000
  H   H690      1.0  0.34541  0.02907  0.63440  1.0000
  H   H691      1.0  0.39628  0.02741  0.64180  1.0000
  H   H692      1.0  0.34689  0.12953  0.36776  1.0000
  N   N45       1.0  0.37362  0.00151  0.35338  1.0000
  H   H693      1.0  0.26677  0.14001  0.37127  1.0000
  H   H694      1.0  0.46248  0.10754  0.50612  1.0000
  Fe  Fe91      1.0  0.32373  0.04646  0.33316  1.0000
  C   C437      1.0  0.26096  0.12486  0.64049  1.0000
  S   S179      1.0  0.33995  0.09758  0.32759  1.0000
  S   S180      1.0  0.47157  0.02123  0.44301  1.0000
  C   C438      1.0  0.39342  0.08489  0.62909  1.0000
  S   S181      1.0  0.27499  0.08804  0.65252  1.0000
  C   C439      1.0  0.41783  0.06100  0.63896  1.0000
  C   C440      1.0  0.43060  0.06761  0.62412  1.0000
  C   C441      1.0  0.42469  0.08289  0.61174  1.0000
  C   C442      1.0  0.40615  0.09148  0.61422  1.0000
  H   H695      1.0  0.36664  0.05426  0.62202  1.0000
  C   C443      1.0  0.32526  0.09354  0.39293  1.0000
  H   H696      1.0  0.43440  0.08809  0.60025  1.0000
  H   H697      1.0  0.27410  0.12944  0.64382  1.0000
  C   C444      1.0  0.24680  0.13824  0.63361  1.0000
  H   H698      1.0  0.37280  0.03485  0.65119  1.0000
  C   C445      1.0  0.25803  0.10566  0.64310  1.0000
  H   H699      1.0  0.35569  0.00794  0.33084  1.0000
  H   H700      1.0  0.24746  0.13831  0.59144  1.0000
  H   H701      1.0  0.46326  0.02188  0.50516  1.0000
  C   C446      1.0  0.35047  0.11012  0.40149  1.0000
  H   H702      1.0  0.32809  0.11722  0.36145  1.0000
  H   H703      1.0  0.34639  0.10668  0.41675  1.0000
  S   S182      1.0  0.32787  0.06620  0.64607  1.0000
  C   C447      1.0  0.38130  0.02420  0.64278  1.0000
  C   C448      1.0  0.31788  0.99593  0.33192  1.0000
  H   H704      1.0  0.42238  0.04926  0.64866  1.0000
  C   C449      1.0  0.35491  0.01915  0.62598  1.0000
  H   H705      1.0  0.32009  0.08991  0.40789  1.0000
  H   H706      1.0  0.24692  0.11905  0.54498  1.0000
  H   H707      1.0  0.32595  0.14070  0.39484  1.0000
  C   C450      1.0  0.48425  0.10123  0.48390  1.0000
  H   H708      1.0  0.25062  0.14354  0.53901  1.0000
  H   H709      1.0  0.39006  0.04770  0.61198  1.0000
  H   H710      1.0  0.34923  0.01922  0.61208  1.0000
  C   C451      1.0  0.47936  0.05214  0.48788  1.0000
  C   C452      1.0  0.47983  0.00294  0.42898  1.0000
  H   H711      1.0  0.48106  0.02314  0.57484  1.0000
  H   H712      1.0  0.37010  0.04421  0.59982  1.0000
  H   H713      1.0  0.37973  0.01258  0.32457  1.0000
  H   H714      1.0  0.39639  0.99378  0.37086  1.0000
  H   H715      1.0  0.30737  0.12806  0.38846  1.0000
  H   H716      1.0  0.38199  0.01026  0.59871  1.0000
  H   H717      1.0  0.33555  0.08172  0.38855  1.0000
  N   N46       1.0  0.37456  0.02435  0.62393  1.0000
  H   H718      1.0  0.37839  0.03088  0.35240  1.0000
  S   S183      1.0  0.48098  0.10772  0.53995  1.0000
  S   S184      1.0  0.35312  0.05295  0.32257  1.0000
  C   C453      1.0  0.31995  0.12679  0.39670  1.0000
  C   C454      1.0  0.37049  0.00270  0.33318  1.0000
  C   C455      1.0  0.34019  0.11600  0.37026  1.0000
  C   C456      1.0  0.48391  0.09675  0.32752  1.0000
  H   H719      1.0  0.25831  0.12066  0.57676  1.0000
  H   H720      1.0  0.35747  0.12350  0.39985  1.0000
  H   H721      1.0  0.35073  0.10480  0.36498  1.0000
  H   H722      1.0  0.48661  0.05955  0.33784  1.0000
  H   H723      1.0  0.40226  0.11803  0.64318  1.0000
  S   S185      1.0  0.47863  0.06205  0.56913  1.0000
  Fe  Fe92      1.0  0.48173  0.04784  0.42793  1.0000
  C   C457      1.0  0.39350  0.99478  0.35578  1.0000
  H   H724      1.0  0.35378  0.00482  0.63345  1.0000
  H   H725      1.0  0.38646  0.99605  0.62018  1.0000
  H   H726      1.0  0.38012  0.01025  0.65102  1.0000
  H   H727      1.0  0.45626  0.04181  0.51850  1.0000
  C   C458      1.0  0.47741  0.10415  0.50262  1.0000
  H   H728      1.0  0.35440  0.02580  0.35890  1.0000
  H   H729      1.0  0.26208  0.14511  0.57050  1.0000
  H   H730      1.0  0.45782  0.99955  0.57689  1.0000
  H   H731      1.0  0.47054  0.10069  0.33624  1.0000
  H   H732      1.0  0.47699  0.07206  0.35764  1.0000
  C   C459      1.0  0.39932  0.06958  0.64144  1.0000
  C   C460      1.0  0.24083  0.10013  0.63840  1.0000
  H   H733      1.0  0.40164  0.01411  0.61116  1.0000
  H   H734      1.0  0.47462  0.04308  0.47779  1.0000
  H   H735      1.0  0.48749  0.99584  0.60562  1.0000
  S   S186      1.0  0.48865  0.09424  0.59529  1.0000
  H   H736      1.0  0.42338  0.10408  0.64922  1.0000
  N   N47       1.0  0.48464  0.04099  0.50537  1.0000
  H   H737      1.0  0.47188  0.02274  0.52776  1.0000
  H   H738      1.0  0.24922  0.15303  0.63183  1.0000
  H   H739      1.0  0.42220  0.12936  0.64821  1.0000
  H   H740      1.0  0.46771  0.06323  0.49086  1.0000
  H   H741      1.0  0.37171  0.02016  0.37549  1.0000
  H   H742      1.0  0.47923  0.06470  0.52208  1.0000
  H   H743      1.0  0.40331  0.00452  0.34779  1.0000
  C   C461      1.0  0.48427  0.01083  0.56717  1.0000
  C   C462      1.0  0.24034  0.13371  0.54591  1.0000
  H   H744      1.0  0.48923  0.10189  0.36311  1.0000
  C   C463      1.0  0.49014  0.06874  0.34839  1.0000
  H   H745      1.0  0.38974  0.06450  0.65304  1.0000
  H   H746      1.0  0.48924  0.11003  0.32045  1.0000
  S   S187      1.0  0.35463  0.06858  0.68071  1.0000
  C   C464      1.0  0.38007  0.25545  0.93113  1.0000
  S   S188      1.0  0.30921  0.06630  0.68973  1.0000
  Fe  Fe93      1.0  0.33053  0.08641  0.69444  1.0000
  S   S189      1.0  0.32940  0.09721  0.72383  1.0000
  Fe  Fe94      1.0  0.33299  0.04993  0.67381  1.0000
  H   H747      1.0  0.38016  0.23373  0.90200  1.0000
  C   C465      1.0  0.31683  0.15537  0.87533  1.0000
  Fe  Fe95      1.0  0.38574  0.16960  0.82790  1.0000
  S   S190      1.0  0.40739  0.16776  0.80245  1.0000
  S   S191      1.0  0.36691  0.19332  0.84259  1.0000
  Fe  Fe96      1.0  0.38958  0.12610  0.83670  1.0000
  S   S192      1.0  0.41108  0.12148  0.81232  1.0000
  S   S193      1.0  0.37854  0.10414  0.85940  1.0000
  Fe  Fe97      1.0  0.42450  0.14629  0.82079  1.0000
  S   S194      1.0  0.45560  0.13904  0.82633  1.0000
  Fe  Fe98      1.0  0.39257  0.14281  0.79553  1.0000
  S   S195      1.0  0.38852  0.13767  0.76486  1.0000
  S   S196      1.0  0.40376  0.14953  0.84637  1.0000
  S   S197      1.0  0.37008  0.14598  0.81965  1.0000
  N   N48       1.0  0.33326  0.14169  0.87137  1.0000
  H   H748      1.0  0.34238  0.12107  0.85171  1.0000
  S   S198      1.0  0.32492  0.10505  0.66788  1.0000
  Fe  Fe99      1.0  0.38286  0.48520  0.93040  1.0000
  C   C466      1.0  0.33579  0.12817  0.88811  1.0000
  H   H749      1.0  0.43293  0.10339  0.68208  1.0000
  H   H750      1.0  0.41961  0.10150  0.86260  1.0000
  S   S199      1.0  0.41387  0.01894  0.87010  1.0000
  N   N49       1.0  0.27452  0.11908  0.70960  1.0000
  Fe  Fe100     1.0  0.33781  0.30232  0.87613  1.0000
  S   S200      1.0  0.31565  0.29487  0.89962  1.0000
  S   S201      1.0  0.35720  0.28125  0.85860  1.0000
  Fe  Fe101     1.0  0.33324  0.34473  0.88463  1.0000
  S   S202      1.0  0.31143  0.33920  0.90893  1.0000
  S   S203      1.0  0.33732  0.37579  0.87583  1.0000
  Fe  Fe102     1.0  0.32993  0.31306  0.91690  1.0000
  S   S204      1.0  0.34130  0.30212  0.94510  1.0000
  Fe  Fe103     1.0  0.29906  0.32198  0.88933  1.0000
  S   S205      1.0  0.26694  0.32595  0.88849  1.0000
  S   S206      1.0  0.35269  0.31974  0.89375  1.0000
  S   S207      1.0  0.32020  0.32828  0.86469  1.0000
  Fe  Fe104     1.0  0.39554  0.45862  0.89953  1.0000
  S   S208      1.0  0.40713  0.46367  0.92633  1.0000
  S   S209      1.0  0.39976  0.42720  0.89526  1.0000
  Fe  Fe105     1.0  0.30511  0.08397  0.66216  1.0000
  H   H751      1.0  0.39773  0.28032  0.90643  1.0000
  C   C467      1.0  0.25355  0.33947  0.87140  1.0000
  C   C468      1.0  0.26177  0.34617  0.85375  1.0000
  H   H752      1.0  0.35827  0.30122  0.97998  1.0000
  H   H753      1.0  0.46408  0.07676  0.84281  1.0000
  H   H754      1.0  0.27673  0.34305  0.85017  1.0000
  S   S210      1.0  0.45082  0.48712  0.92063  1.0000
  H   H755      1.0  0.25427  0.14332  0.70894  1.0000
  C   C469      1.0  0.35434  0.38977  0.88258  1.0000
  C   C470      1.0  0.37063  0.38179  0.89061  1.0000
  C   C471      1.0  0.38429  0.39344  0.89463  1.0000
  C   C472      1.0  0.38162  0.41319  0.89112  1.0000
  C   C473      1.0  0.36510  0.42119  0.88354  1.0000
  C   C474      1.0  0.35169  0.40953  0.87908  1.0000
  H   H756      1.0  0.37294  0.36664  0.89329  1.0000
  H   H757      1.0  0.39704  0.38709  0.90041  1.0000
  H   H758      1.0  0.36294  0.43632  0.88056  1.0000
  H   H759      1.0  0.33933  0.41591  0.87264  1.0000
  C   C475      1.0  0.31433  0.31925  0.97023  1.0000
  C   C476      1.0  0.33261  0.31061  0.96715  1.0000
  H   H760      1.0  0.40035  0.14624  0.67174  1.0000
  H   H761      1.0  0.30533  0.32151  0.95881  1.0000
  H   H762      1.0  0.36314  0.14212  0.86416  1.0000
  C   C477      1.0  0.43266  0.10687  0.86636  1.0000
  H   H763      1.0  0.43258  0.06948  0.87458  1.0000
  C   C478      1.0  0.27134  0.11454  0.69056  1.0000
  C   C479      1.0  0.36464  0.21786  0.84685  1.0000
  C   C480      1.0  0.34909  0.22486  0.85869  1.0000
  C   C481      1.0  0.34649  0.24408  0.86241  1.0000
  C   C482      1.0  0.35939  0.25676  0.85424  1.0000
  C   C483      1.0  0.37502  0.24973  0.84255  1.0000
  C   C484      1.0  0.37766  0.23049  0.83890  1.0000
  H   H764      1.0  0.33885  0.21536  0.86492  1.0000
  H   H765      1.0  0.33437  0.24913  0.87138  1.0000
  H   H766      1.0  0.38516  0.25928  0.83615  1.0000
  H   H767      1.0  0.38969  0.22550  0.82977  1.0000
  C   C485      1.0  0.47690  0.15037  0.82149  1.0000
  C   C486      1.0  0.47782  0.16800  0.81122  1.0000
  S   S211      1.0  0.41196  0.48083  0.88218  1.0000
  H   H768      1.0  0.46519  0.17532  0.80596  1.0000
  H   H769      1.0  0.40633  0.08600  0.67508  1.0000
  C   C487      1.0  0.38794  0.08026  0.86190  1.0000
  C   C488      1.0  0.40086  0.07263  0.84812  1.0000
  C   C489      1.0  0.40852  0.05378  0.85084  1.0000
  C   C490      1.0  0.40325  0.04233  0.86728  1.0000
  C   C491      1.0  0.39012  0.04987  0.88095  1.0000
  C   C492      1.0  0.38252  0.06877  0.87826  1.0000
  H   H770      1.0  0.40492  0.08126  0.83535  1.0000
  H   H771      1.0  0.41864  0.04806  0.84016  1.0000
  H   H772      1.0  0.38598  0.04121  0.89368  1.0000
  H   H773      1.0  0.37250  0.07453  0.88900  1.0000
  H   H774      1.0  0.46891  0.11368  0.85934  1.0000
  C   C493      1.0  0.35031  0.15193  0.86673  1.0000
  C   C494      1.0  0.34639  0.10786  0.73513  1.0000
  C   C495      1.0  0.36248  0.11483  0.72517  1.0000
  C   C496      1.0  0.37518  0.12375  0.73453  1.0000
  C   C497      1.0  0.37210  0.12579  0.75402  1.0000
  C   C498      1.0  0.35606  0.11869  0.76401  1.0000
  C   C499      1.0  0.34328  0.10990  0.75460  1.0000
  H   H775      1.0  0.36488  0.11364  0.71021  1.0000
  H   H776      1.0  0.38746  0.12927  0.72666  1.0000
  H   H777      1.0  0.35340  0.12015  0.77894  1.0000
  H   H778      1.0  0.33089  0.10465  0.76251  1.0000
  C   C500      1.0  0.38520  0.24802  0.89865  1.0000
  H   H779      1.0  0.45747  0.06464  0.87623  1.0000
  H   H780      1.0  0.30361  0.14822  0.87869  1.0000
  H   H781      1.0  0.37290  0.26547  0.94113  1.0000
  H   H782      1.0  0.28109  0.10426  0.73612  1.0000
  N   N50       1.0  0.37566  0.26154  0.91162  1.0000
  N   N51       1.0  0.28118  0.39465  0.87291  1.0000
  C   C501      1.0  0.28781  0.37541  0.88034  1.0000
  C   C502      1.0  0.29759  0.40498  0.86522  1.0000
  C   C503      1.0  0.27058  0.40462  0.88831  1.0000
  C   C504      1.0  0.26878  0.39355  0.85784  1.0000
  H   H783      1.0  0.27589  0.36707  0.88630  1.0000
  H   H784      1.0  0.29728  0.37581  0.89167  1.0000
  C   C505      1.0  0.29089  0.13042  0.70832  1.0000
  H   H785      1.0  0.29323  0.41945  0.85908  1.0000
  H   H786      1.0  0.43035  0.12870  0.68092  1.0000
  C   C506      1.0  0.39682  0.09893  0.67768  1.0000
  S   S212      1.0  0.41170  0.99183  0.92409  1.0000
  H   H787      1.0  0.32834  0.14118  0.84228  1.0000
  H   H788      1.0  0.44448  0.41183  0.88822  1.0000
  H   H789      1.0  0.26367  0.40781  0.85171  1.0000
  H   H790      1.0  0.25616  0.38600  0.86326  1.0000
  C   C507      1.0  0.47906  0.99838  0.92666  1.0000
  H   H791      1.0  0.25928  0.10572  0.69085  1.0000
  H   H792      1.0  0.31481  0.16592  0.86299  1.0000
  H   H793      1.0  0.31745  0.12340  0.85816  1.0000
  Fe  Fe106     1.0  0.42219  0.48678  0.90959  1.0000
  N   N52       1.0  0.44901  0.09268  0.86440  1.0000
  C   C508      1.0  0.45178  0.08736  0.84483  1.0000
  C   C509      1.0  0.44552  0.07577  0.87748  1.0000
  C   C510      1.0  0.46607  0.10078  0.86891  1.0000
  H   H794      1.0  0.40692  0.01329  0.82927  1.0000
  H   H795      1.0  0.25816  0.39710  0.89447  1.0000
  H   H796      1.0  0.45144  0.99109  0.92252  1.0000
  C   C511      1.0  0.45924  0.41494  0.88962  1.0000
  C   C512      1.0  0.25057  0.35673  0.84061  1.0000
  H   H797      1.0  0.26538  0.41923  0.88323  1.0000
  H   H798      1.0  0.47979  0.45051  0.90557  1.0000
  H   H799      1.0  0.46702  0.41496  0.87536  1.0000
  H   H800      1.0  0.47879  0.09058  0.86740  1.0000
  H   H801      1.0  0.38790  0.13303  0.69086  1.0000
  C   C513      1.0  0.39344  0.13294  0.67578  1.0000
  H   H802      1.0  0.29602  0.36745  0.86917  1.0000
  C   C514      1.0  0.47923  0.43701  0.89922  1.0000
  H   H803      1.0  0.28849  0.14398  0.69949  1.0000
  H   H804      1.0  0.46575  0.40313  0.89878  1.0000
  H   H805      1.0  0.28390  0.10647  0.68392  1.0000
  H   H806      1.0  0.47555  0.01337  0.92372  1.0000
  H   H807      1.0  0.38961  0.00970  0.81381  1.0000
  H   H808      1.0  0.26634  0.09241  0.72295  1.0000
  H   H809      1.0  0.29104  0.09292  0.71589  1.0000
  H   H810      1.0  0.27960  0.40562  0.89992  1.0000
  H   H811      1.0  0.40076  0.24674  0.89922  1.0000
  S   S213      1.0  0.36961  0.47845  0.90518  1.0000
  H   H812      1.0  0.27631  0.38582  0.84615  1.0000
  H   H813      1.0  0.30633  0.39746  0.85404  1.0000
  C   C515      1.0  0.35506  0.26239  0.91070  1.0000
  H   H814      1.0  0.30386  0.12271  0.70196  1.0000
  C   C516      1.0  0.34405  0.30773  0.98225  1.0000
  H   H815      1.0  0.43498  0.11992  0.85693  1.0000
  H   H816      1.0  0.35283  0.16055  0.87818  1.0000
  H   H817      1.0  0.25710  0.36176  0.82698  1.0000
  H   H818      1.0  0.31871  0.16338  0.88747  1.0000
  C   C517      1.0  0.38224  0.28041  0.90601  1.0000
  H   H819      1.0  0.43394  0.42988  0.91548  1.0000
  H   H820      1.0  0.34904  0.16169  0.85377  1.0000
  H   H821      1.0  0.32316  0.12021  0.89208  1.0000
  H   H822      1.0  0.34806  0.11763  0.88545  1.0000
  H   H823      1.0  0.37534  0.29096  0.91556  1.0000
  H   H824      1.0  0.37901  0.28551  0.89137  1.0000
  H   H825      1.0  0.37033  0.99479  0.84089  1.0000
  H   H826      1.0  0.46454  0.10495  0.88358  1.0000
  H   H827      1.0  0.43598  0.44559  0.88292  1.0000
  C   C518      1.0  0.33016  0.13139  0.85520  1.0000
  H   H828      1.0  0.29408  0.13367  0.72249  1.0000
  H   H829      1.0  0.43919  0.08124  0.84091  1.0000
  C   C519      1.0  0.48894  0.48723  0.92046  1.0000
  H   H830      1.0  0.45007  0.46225  0.89073  1.0000
  N   N53       1.0  0.40672  0.11617  0.67256  1.0000
  C   C520      1.0  0.44889  0.43264  0.91631  1.0000
  H   H831      1.0  0.41761  0.11515  0.69960  1.0000
  H   H832      1.0  0.33845  0.13546  0.90048  1.0000
  Fe  Fe107     1.0  0.40698  0.99550  0.89315  1.0000
  H   H833      1.0  0.44871  0.44630  0.92260  1.0000
  H   H834      1.0  0.45515  0.42141  0.92626  1.0000
  H   H835      1.0  0.34956  0.24840  0.91470  1.0000
  H   H836      1.0  0.26830  0.12747  0.68099  1.0000
  H   H837      1.0  0.38247  0.25265  0.88378  1.0000
  H   H838      1.0  0.39548  0.25483  0.93244  1.0000
  H   H839      1.0  0.37531  0.24125  0.93585  1.0000
  C   C521      1.0  0.33028  0.99947  0.67077  1.0000
  H   H840      1.0  0.34742  0.27250  0.92027  1.0000
  H   H841      1.0  0.35118  0.26712  0.89624  1.0000
  N   N54       1.0  0.45955  0.43322  0.89751  1.0000
  H   H842      1.0  0.48653  0.42571  0.90834  1.0000
  C   C522      1.0  0.42261  0.11584  0.68431  1.0000
  H   H843      1.0  0.38772  0.99841  0.85617  1.0000
  C   C523      1.0  0.45068  0.44834  0.88489  1.0000
  S   S214      1.0  0.34264  0.01842  0.67595  1.0000
  H   H844      1.0  0.44353  0.07922  0.89240  1.0000
  H   H845      1.0  0.45861  0.44968  0.87072  1.0000
  H   H846      1.0  0.42992  0.11101  0.88101  1.0000
  H   H847      1.0  0.30704  0.40630  0.87637  1.0000
  H   H848      1.0  0.48757  0.43824  0.88523  1.0000
  C   C524      1.0  0.31110  0.00172  0.66799  1.0000
  H   H849      1.0  0.45432  0.09981  0.83458  1.0000
  C   C525      1.0  0.25756  0.12992  0.71778  1.0000
  C   C526      1.0  0.27832  0.10141  0.72170  1.0000
  H   H850      1.0  0.30339  0.01545  0.66872  1.0000
  H   H851      1.0  0.39140  0.09768  0.69283  1.0000
  H   H852      1.0  0.37685  0.43915  0.98635  1.0000
  H   H853      1.0  0.41385  0.00097  0.80867  1.0000
  H   H854      1.0  0.38457  0.09885  0.66927  1.0000
  C   C527      1.0  0.40243  0.00302  0.82022  1.0000
  H   H855      1.0  0.25948  0.13361  0.73216  1.0000
  H   H856      1.0  0.24496  0.12174  0.71888  1.0000
  Fe  Fe108     1.0  0.34793  0.08573  0.65395  1.0000
  H   H857      1.0  0.48625  0.48568  0.93565  1.0000
  H   H858      1.0  0.38111  0.13337  0.66736  1.0000
  S   S215      1.0  0.36699  0.48866  0.95870  1.0000
  S   S216      1.0  0.30712  0.88932  0.30051  1.0000
  Fe  Fe109     1.0  0.33498  0.87205  0.30272  1.0000
  S   S217      1.0  0.35633  0.85709  0.28163  1.0000
  Fe  Fe110     1.0  0.38052  0.81528  0.18070  1.0000
  S   S218      1.0  0.37139  0.81258  0.15191  1.0000
  S   S219      1.0  0.35594  0.82182  0.20278  1.0000
  Fe  Fe111     1.0  0.42213  0.80615  0.16709  1.0000
  S   S220      1.0  0.41566  0.80293  0.13753  1.0000
  S   S221      1.0  0.45080  0.79794  0.17835  1.0000
  Fe  Fe112     1.0  0.39604  0.82922  0.14117  1.0000
  S   S222      1.0  0.39021  0.85259  0.11803  1.0000
  Fe  Fe113     1.0  0.39145  0.78637  0.15059  1.0000
  S   S223      1.0  0.38854  0.75643  0.14176  1.0000
  S   S224      1.0  0.40395  0.83351  0.16997  1.0000
  S   S225      1.0  0.39916  0.78813  0.18010  1.0000
  Fe  Fe114     1.0  0.41489  0.95917  0.08750  1.0000
  S   S226      1.0  0.41792  0.95832  0.05599  1.0000
  S   S227      1.0  0.41940  0.93478  0.11022  1.0000
  H   H859      1.0  0.24255  0.66283  0.08296  1.0000
  C   C528      1.0  0.31088  0.63670  0.99704  1.0000
  C   C529      1.0  0.38580  0.98340  0.00045  1.0000
  C   C530      1.0  0.38022  0.61948  0.02052  1.0000
  H   H860      1.0  0.30865  0.69115  0.99332  1.0000
  Fe  Fe115     1.0  0.32938  0.67423  0.09944  1.0000
  S   S228      1.0  0.30076  0.67341  0.08840  1.0000
  S   S229      1.0  0.33198  0.70125  0.11441  1.0000
  Fe  Fe116     1.0  0.34432  0.63696  0.08208  1.0000
  S   S230      1.0  0.31699  0.63438  0.07030  1.0000
  S   S231      1.0  0.36719  0.61570  0.07011  1.0000
  Fe  Fe117     1.0  0.31694  0.66510  0.06145  1.0000
  S   S232      1.0  0.30943  0.67811  0.03255  1.0000
  Fe  Fe118     1.0  0.30273  0.64244  0.09814  1.0000
  S   S233      1.0  0.28018  0.62191  0.10800  1.0000
  S   S234      1.0  0.34514  0.66779  0.07157  1.0000
  S   S235      1.0  0.33038  0.64317  0.11086  1.0000
  H   H861      1.0  0.31684  0.98116  0.28827  1.0000
  S   S236      1.0  0.37099  0.98329  0.03838  1.0000
  H   H862      1.0  0.46586  0.95457  0.06941  1.0000
  Fe  Fe119     1.0  0.40230  0.50730  0.08288  1.0000
  S   S237      1.0  0.38913  0.53040  0.10122  1.0000
  S   S238      1.0  0.43044  0.50858  0.06585  1.0000
  H   H863      1.0  0.34042  0.55393  0.10876  1.0000
  H   H864      1.0  0.26692  0.65402  0.08116  1.0000
  H   H865      1.0  0.34658  0.86445  0.15861  1.0000
  H   H866      1.0  0.47206  0.76634  0.16383  1.0000
  H   H867      1.0  0.24998  0.69002  0.05946  1.0000
  C   C531      1.0  0.25620  0.62357  0.11774  1.0000
  H   H868      1.0  0.47375  0.96713  0.99908  1.0000
  Fe  Fe120     1.0  0.43762  0.98098  0.05519  1.0000
  H   H869      1.0  0.25387  0.65325  0.12128  1.0000
  C   C532      1.0  0.31020  0.66571  0.01219  1.0000
  C   C533      1.0  0.26858  0.92361  0.31334  1.0000
  H   H870      1.0  0.34698  0.63560  0.03433  1.0000
  H   H871      1.0  0.31163  0.63796  0.02695  1.0000
  Fe  Fe121     1.0  0.41588  0.49797  0.04334  1.0000
  C   C534      1.0  0.37357  0.59213  0.07912  1.0000
  C   C535      1.0  0.37247  0.58662  0.09847  1.0000
  C   C536      1.0  0.37756  0.56775  0.10502  1.0000
  C   C537      1.0  0.38395  0.55420  0.09233  1.0000
  C   C538      1.0  0.38540  0.55979  0.07300  1.0000
  C   C539      1.0  0.38033  0.57868  0.06646  1.0000
  H   H872      1.0  0.36794  0.59696  0.10841  1.0000
  H   H873      1.0  0.37664  0.56361  0.12000  1.0000
  H   H874      1.0  0.39040  0.54953  0.06310  1.0000
  H   H875      1.0  0.38160  0.58279  0.05149  1.0000
  C   C540      1.0  0.40816  0.50373  0.99810  1.0000
  H   H876      1.0  0.46306  0.49355  0.99919  1.0000
  H   H877      1.0  0.25370  0.59395  0.11623  1.0000
  C   C541      1.0  0.47918  0.96081  0.06730  1.0000
  H   H878      1.0  0.42462  0.95308  0.00780  1.0000
  C   C542      1.0  0.37267  0.74176  0.13322  1.0000
  C   C543      1.0  0.35352  0.74741  0.13167  1.0000
  C   C544      1.0  0.34146  0.73488  0.12590  1.0000
  C   C545      1.0  0.34827  0.71663  0.12105  1.0000
  C   C546      1.0  0.36749  0.71113  0.12227  1.0000
  C   C547      1.0  0.37947  0.72349  0.12845  1.0000
  H   H879      1.0  0.34793  0.76140  0.13493  1.0000
  H   H880      1.0  0.32670  0.73945  0.12496  1.0000
  H   H881      1.0  0.37308  0.69720  0.11873  1.0000
  H   H882      1.0  0.39418  0.71880  0.12954  1.0000
  C   C548      1.0  0.39899  0.87515  0.11565  1.0000
  C   C549      1.0  0.41200  0.87978  0.12737  1.0000
  C   C550      1.0  0.41814  0.89807  0.12543  1.0000
  C   C551      1.0  0.41155  0.91185  0.11162  1.0000
  C   C552      1.0  0.39869  0.90715  0.09977  1.0000
  C   C553      1.0  0.39242  0.88890  0.10183  1.0000
  H   H883      1.0  0.41738  0.86928  0.13787  1.0000
  H   H884      1.0  0.42816  0.90156  0.13459  1.0000
  H   H885      1.0  0.39349  0.91761  0.08912  1.0000
  H   H886      1.0  0.38240  0.88543  0.09265  1.0000
  C   C554      1.0  0.47249  0.80786  0.17094  1.0000
  H   H887      1.0  0.46172  0.82772  0.14918  1.0000
  C   C555      1.0  0.35568  0.84829  0.25926  1.0000
  C   C556      1.0  0.33881  0.84596  0.25179  1.0000
  C   C557      1.0  0.33916  0.83795  0.23447  1.0000
  C   C558      1.0  0.35634  0.83238  0.22427  1.0000
  C   C559      1.0  0.37320  0.83511  0.23152  1.0000
  C   C560      1.0  0.37284  0.84287  0.24894  1.0000
  H   H888      1.0  0.32549  0.84996  0.25954  1.0000
  H   H889      1.0  0.32601  0.83593  0.22905  1.0000
  H   H890      1.0  0.38654  0.83089  0.22392  1.0000
  H   H891      1.0  0.38599  0.84457  0.25454  1.0000
  C   C561      1.0  0.31107  0.64602  0.01341  1.0000
  H   H892      1.0  0.27434  0.68113  0.05818  1.0000
  N   N55       1.0  0.46062  0.75993  0.13881  1.0000
  C   C562      1.0  0.46179  0.77922  0.12945  1.0000
  C   C563      1.0  0.46453  0.74615  0.12454  1.0000
  C   C564      1.0  0.44150  0.75813  0.14840  1.0000
  S   S239      1.0  0.39117  0.98230  0.08784  1.0000
  H   H893      1.0  0.24934  0.63914  0.07711  1.0000
  H   H894      1.0  0.45153  0.78248  0.11864  1.0000
  H   H895      1.0  0.47386  0.98623  0.10692  1.0000
  H   H896      1.0  0.31482  0.60106  0.11203  1.0000
  H   H897      1.0  0.31130  0.62147  0.99812  1.0000
  H   H898      1.0  0.47881  0.74716  0.11695  1.0000
  C   C565      1.0  0.37029  0.98126  0.01396  1.0000
  C   C566      1.0  0.35896  0.63316  0.99771  1.0000
  H   H899      1.0  0.29636  0.59176  0.08657  1.0000
  N   N56       1.0  0.44758  0.96282  0.98863  1.0000
  H   H900      1.0  0.46390  0.93615  0.99298  1.0000
  H   H901      1.0  0.36162  0.49769  0.99724  1.0000
  N   N57       1.0  0.37018  0.63718  0.01285  1.0000
  C   C567      1.0  0.38917  0.50249  0.00458  1.0000
  C   C568      1.0  0.38399  0.65069  0.00514  1.0000
  N   N58       1.0  0.48514  0.48944  0.01784  1.0000
  C   C569      1.0  0.47468  0.75622  0.15281  1.0000
  N   N59       1.0  0.25518  0.66066  0.05455  1.0000
  S   S240      1.0  0.43656  0.98002  0.08649  1.0000
  H   H902      1.0  0.38435  0.50474  0.01902  1.0000
  H   H903      1.0  0.47427  0.74179  0.16014  1.0000
  H   H904      1.0  0.46380  0.73143  0.13111  1.0000
  H   H905      1.0  0.44007  0.74376  0.15558  1.0000
  C   C570      1.0  0.25339  0.65390  0.07479  1.0000
  H   H906      1.0  0.39382  0.64492  0.99363  1.0000
  S   S241      1.0  0.42463  0.50768  0.01339  1.0000
  C   C571      1.0  0.26071  0.68021  0.05224  1.0000
  C   C572      1.0  0.47429  0.50034  0.03244  1.0000
  H   H907      1.0  0.36561  0.64852  0.03975  1.0000
  N   N60       1.0  0.36376  0.88221  0.17087  1.0000
  C   C573      1.0  0.38259  0.88936  0.16682  1.0000
  C   C574      1.0  0.36263  0.87114  0.18946  1.0000
  C   C575      1.0  0.36066  0.87008  0.15613  1.0000
  C   C576      1.0  0.34916  0.89830  0.17100  1.0000
  H   H908      1.0  0.38387  0.89786  0.15290  1.0000
  H   H909      1.0  0.39395  0.87758  0.16637  1.0000
  H   H910      1.0  0.38553  0.89848  0.17769  1.0000
  H   H911      1.0  0.34873  0.86523  0.19286  1.0000
  H   H912      1.0  0.37357  0.85897  0.18992  1.0000
  H   H913      1.0  0.36471  0.87983  0.20101  1.0000
  H   H914      1.0  0.33499  0.59717  0.09562  1.0000
  C   C577      1.0  0.35298  0.97797  0.00794  1.0000
  H   H915      1.0  0.45915  0.98832  0.99354  1.0000
  H   H916      1.0  0.33477  0.89342  0.17404  1.0000
  H   H917      1.0  0.42706  0.83543  0.31806  1.0000
  H   H918      1.0  0.35112  0.90781  0.18191  1.0000
  H   H919      1.0  0.29729  0.55438  0.11158  1.0000
  H   H920      1.0  0.26275  0.68557  0.03709  1.0000
  H   H921      1.0  0.48926  0.75770  0.14612  1.0000
  H   H922      1.0  0.44644  0.95345  0.01820  1.0000
  H   H923      1.0  0.43049  0.76089  0.13828  1.0000
  H   H924      1.0  0.34967  0.65886  0.02293  1.0000
  S   S242      1.0  0.34808  0.89549  0.31415  1.0000
  C   C578      1.0  0.35754  0.64543  0.02808  1.0000
  H   H925      1.0  0.46505  0.49127  0.04215  1.0000
  H   H926      1.0  0.37136  0.85776  0.15567  1.0000
  H   H927      1.0  0.33454  0.58559  0.11912  1.0000
  H   H928      1.0  0.34861  0.62276  0.00298  1.0000
  S   S243      1.0  0.38732  0.49896  0.05935  1.0000
  C   C579      1.0  0.31738  0.98024  0.30338  1.0000
  C   C580      1.0  0.24649  0.60716  0.12020  1.0000
  N   N61       1.0  0.34403  0.76198  0.18974  1.0000
  C   C581      1.0  0.34454  0.77721  0.17424  1.0000
  C   C582      1.0  0.34277  0.74378  0.18198  1.0000
  C   C583      1.0  0.32747  0.76601  0.20327  1.0000
  C   C584      1.0  0.36142  0.76102  0.19943  1.0000
  H   H929      1.0  0.34534  0.79118  0.17963  1.0000
  H   H930      1.0  0.33178  0.77825  0.16639  1.0000
  H   H931      1.0  0.35700  0.77473  0.16389  1.0000
  H   H932      1.0  0.34201  0.73197  0.19329  1.0000
  H   H933      1.0  0.33014  0.74413  0.17402  1.0000
  H   H934      1.0  0.35533  0.74023  0.17202  1.0000
  H   H935      1.0  0.32662  0.75485  0.21524  1.0000
  H   H936      1.0  0.31410  0.76693  0.19639  1.0000
  H   H937      1.0  0.32813  0.77970  0.20931  1.0000
  H   H938      1.0  0.37414  0.75754  0.18966  1.0000
  H   H939      1.0  0.36137  0.74999  0.21153  1.0000
  H   H940      1.0  0.36312  0.77474  0.20496  1.0000
  S   S244      1.0  0.46522  0.98156  0.03698  1.0000
  H   H941      1.0  0.41323  0.85742  0.29274  1.0000
  H   H942      1.0  0.39287  0.84414  0.29550  1.0000
  H   H943      1.0  0.31775  0.58623  0.07208  1.0000
  H   H944      1.0  0.46977  0.50168  0.08777  1.0000
  C   C585      1.0  0.30780  0.58043  0.08370  1.0000
  S   S245      1.0  0.31493  0.94223  0.30214  1.0000
  C   C586      1.0  0.39926  0.85596  0.30081  1.0000
  H   H945      1.0  0.46495  0.51214  0.02608  1.0000
  H   H946      1.0  0.34964  0.90690  0.15713  1.0000
  H   H947      1.0  0.45865  0.79001  0.13977  1.0000
  H   H948      1.0  0.31074  0.56181  0.12896  1.0000
  C   C587      1.0  0.35102  0.97675  0.98885  1.0000
  H   H949      1.0  0.30131  0.56866  0.07848  1.0000
  C   C588      1.0  0.33261  0.55907  0.09628  1.0000
  H   H950      1.0  0.38883  0.62202  0.03201  1.0000
  C   C589      1.0  0.47404  0.82213  0.15619  1.0000
  C   C590      1.0  0.48306  0.97349  0.05158  1.0000
  C   C591      1.0  0.43732  0.96097  0.00762  1.0000
  H   H951      1.0  0.36173  0.87785  0.14183  1.0000
  C   C592      1.0  0.48871  0.80081  0.17985  1.0000
  H   H952      1.0  0.38983  0.61270  0.00945  1.0000
  H   H953      1.0  0.39263  0.65408  0.01625  1.0000
  N   N62       1.0  0.31753  0.57404  0.10075  1.0000
  C   C593      1.0  0.30384  0.56660  0.11585  1.0000
  H   H954      1.0  0.32689  0.54665  0.09144  1.0000
  Fe  Fe122     1.0  0.31961  0.91163  0.31434  1.0000
  H   H955      1.0  0.45407  0.74854  0.11384  1.0000
  H   H956      1.0  0.43250  0.97502  0.01268  1.0000
  H   H957      1.0  0.43808  0.76830  0.15931  1.0000
  H   H958      1.0  0.34316  0.56426  0.08493  1.0000
  H   H959      1.0  0.48767  0.78978  0.19129  1.0000
  C   C594      1.0  0.48363  0.49455  0.08475  1.0000
  C   C595      1.0  0.32585  0.59013  0.10716  1.0000
  H   H960      1.0  0.29224  0.57760  0.11945  1.0000
  H   H961      1.0  0.47613  0.78123  0.12240  1.0000
  H   H962      1.0  0.39001  0.86903  0.29726  1.0000
  H   H963      1.0  0.48373  0.50638  0.04126  1.0000
  C   C596      1.0  0.24661  0.64053  0.12294  1.0000
  H   H964      1.0  0.26623  0.63344  0.04597  1.0000
  H   H965      1.0  0.25941  0.91322  0.30934  1.0000
  C   C597      1.0  0.30940  0.67590  0.99441  1.0000
  C   C598      1.0  0.46381  0.97404  0.98897  1.0000
  H   H966      1.0  0.34089  0.97649  0.01818  1.0000
  Fe  Fe123     1.0  0.39578  0.98289  0.05591  1.0000
  H   H967      1.0  0.48890  0.94711  0.09310  1.0000
  H   H968      1.0  0.24582  0.95542  0.30876  1.0000
  C   C599      1.0  0.37632  0.49857  0.99225  1.0000
  C   C600      1.0  0.31738  0.96250  0.31382  1.0000
  C   C601      1.0  0.26975  0.64837  0.04443  1.0000
  H   H969      1.0  0.37016  0.60912  0.02676  1.0000
  H   H970      1.0  0.28144  0.91545  0.31816  1.0000
  H   H971      1.0  0.27148  0.65305  0.02909  1.0000
  H   H972      1.0  0.39906  0.98647  0.00490  1.0000
  H   H973      1.0  0.37680  0.66420  0.99927  1.0000
  H   H974      1.0  0.27316  0.93270  0.30046  1.0000
  H   H975      1.0  0.28371  0.64867  0.04986  1.0000
  H   H976      1.0  0.35084  0.64615  0.99188  1.0000
  H   H977      1.0  0.48915  0.51379  0.99819  1.0000
  S   S246      1.0  0.31095  0.90162  0.63396  1.0000
  S   S247      1.0  0.36124  0.88877  0.61418  1.0000
  Fe  Fe124     1.0  0.47113  0.89597  0.59200  1.0000
  S   S248      1.0  0.46646  0.90834  0.56262  1.0000
  S   S249      1.0  0.45098  0.87815  0.61106  1.0000
  H   H978      1.0  0.31813  0.94799  0.34156  1.0000
  C   C602      1.0  0.31795  0.97818  0.34234  1.0000
  Fe  Fe125     1.0  0.33773  0.88266  0.34262  1.0000
  H   H979      1.0  0.39716  0.98053  0.35073  1.0000
  S   S250      1.0  0.35676  0.87670  0.36661  1.0000
  S   S251      1.0  0.47945  0.92269  0.60143  1.0000
  H   H980      1.0  0.31781  0.86201  0.62423  1.0000
  S   S252      1.0  0.30996  0.90052  0.34378  1.0000
  C   C603      1.0  0.25051  0.87157  0.62414  1.0000
  Fe  Fe126     1.0  0.45973  0.90469  0.38658  1.0000
  S   S253      1.0  0.43626  0.91043  0.36665  1.0000
  S   S254      1.0  0.46105  0.92180  0.41108  1.0000
  H   H981      1.0  0.38697  0.87243  0.64195  1.0000
  C   C604      1.0  0.37849  0.88672  0.36696  1.0000
  C   C605      1.0  0.38392  0.90141  0.35377  1.0000
  C   C606      1.0  0.40156  0.90855  0.35405  1.0000
  C   C607      1.0  0.41396  0.90122  0.36756  1.0000
  C   C608      1.0  0.40845  0.88666  0.38090  1.0000
  C   C609      1.0  0.39080  0.87947  0.38058  1.0000
  H   H982      1.0  0.37456  0.90724  0.34330  1.0000
  H   H983      1.0  0.40567  0.91983  0.34370  1.0000
  H   H984      1.0  0.41781  0.88090  0.39139  1.0000
  H   H985      1.0  0.38670  0.86818  0.39093  1.0000
  S   S255      1.0  0.48800  0.91270  0.37315  1.0000
  C   C610      1.0  0.46808  0.89622  0.49233  1.0000
  H   H986      1.0  0.33380  0.83772  0.58130  1.0000
  H   H987      1.0  0.48800  0.85165  0.53959  1.0000
  C   C611      1.0  0.47724  0.88966  0.47562  1.0000
  H   H988      1.0  0.37446  0.84012  0.32637  1.0000
  C   C612      1.0  0.25037  0.85805  0.34990  1.0000
  C   C613      1.0  0.25647  0.84037  0.35853  1.0000
  C   C614      1.0  0.24323  0.82814  0.36766  1.0000
  H   H989      1.0  0.41044  0.86705  0.34315  1.0000
  H   H990      1.0  0.27140  0.83603  0.35806  1.0000
  S   S256      1.0  0.26635  0.87426  0.33794  1.0000
  S   S257      1.0  0.47233  0.87773  0.40123  1.0000
  Fe  Fe127     1.0  0.47695  0.93429  0.57149  1.0000
  H   H991      1.0  0.42198  0.86808  0.64006  1.0000
  C   C615      1.0  0.25919  0.85599  0.63445  1.0000
  H   H992      1.0  0.28602  0.85344  0.60235  1.0000
  H   H993      1.0  0.46915  0.95986  0.41897  1.0000
  C   C616      1.0  0.38613  0.88747  0.61445  1.0000
  C   C617      1.0  0.39522  0.87821  0.62961  1.0000
  C   C618      1.0  0.41509  0.87573  0.62849  1.0000
  C   C619      1.0  0.42608  0.88296  0.61249  1.0000
  C   C620      1.0  0.41698  0.89273  0.59756  1.0000
  C   C621      1.0  0.39712  0.89468  0.59844  1.0000
  H   H994      1.0  0.48427  0.96353  0.62073  1.0000
  H   H995      1.0  0.42520  0.89842  0.58518  1.0000
  H   H996      1.0  0.39022  0.90184  0.58663  1.0000
  Fe  Fe128     1.0  0.34034  0.89005  0.64031  1.0000
  H   H997      1.0  0.48577  0.84660  0.56483  1.0000
  H   H998      1.0  0.31778  0.97728  0.35752  1.0000
  H   H999      1.0  0.40136  0.88229  0.32411  1.0000
  S   S258      1.0  0.46421  0.88953  0.45592  1.0000
  C   C622      1.0  0.41266  0.83498  0.32551  1.0000
  H   H1000     1.0  0.25602  0.88517  0.62373  1.0000
  N   N63       1.0  0.45939  0.85131  0.55229  1.0000
  C   C623      1.0  0.44848  0.85618  0.57007  1.0000
  H   H1001     1.0  0.45339  0.90157  0.49272  1.0000
  H   H1002     1.0  0.29026  0.87098  0.58297  1.0000
  H   H1003     1.0  0.32428  0.88581  0.59737  1.0000
  H   H1004     1.0  0.38251  0.84851  0.34684  1.0000
  H   H1005     1.0  0.46433  0.82199  0.56187  1.0000
  H   H1006     1.0  0.44877  0.87136  0.57209  1.0000
  C   C624      1.0  0.31804  0.96153  0.33334  1.0000
  H   H1007     1.0  0.43661  0.86021  0.53505  1.0000
  H   H1008     1.0  0.31030  0.83101  0.58789  1.0000
  H   H1009     1.0  0.37287  0.86481  0.32905  1.0000
  H   H1010     1.0  0.31242  0.83900  0.62039  1.0000
  C   C625      1.0  0.45145  0.86297  0.53626  1.0000
  S   S259      1.0  0.46090  0.96240  0.56519  1.0000
  S   S260      1.0  0.32565  0.85832  0.33158  1.0000
  C   C626      1.0  0.31865  0.84313  0.58261  1.0000
  C   C627      1.0  0.29495  0.86506  0.59685  1.0000
  C   C628      1.0  0.24208  0.94569  0.32143  1.0000
  C   C629      1.0  0.47784  0.89609  0.50846  1.0000
  Fe  Fe129     1.0  0.29837  0.87728  0.33034  1.0000
  C   C630      1.0  0.47690  0.97214  0.41858  1.0000
  C   C631      1.0  0.25162  0.83846  0.63463  1.0000
  H   H1011     1.0  0.45978  0.86023  0.52264  1.0000
  C   C632      1.0  0.25360  0.92208  0.34507  1.0000
  H   H1012     1.0  0.25809  0.82623  0.64245  1.0000
  S   S261      1.0  0.27988  0.85730  0.64660  1.0000
  H   H1013     1.0  0.45148  0.87828  0.53790  1.0000
  H   H1014     1.0  0.34191  0.86962  0.58703  1.0000
  H   H1015     1.0  0.24398  0.91177  0.34171  1.0000
  H   H1016     1.0  0.24826  0.81450  0.37410  1.0000
  H   H1017     1.0  0.45430  0.84806  0.58259  1.0000
  H   H1018     1.0  0.46649  0.82708  0.53669  1.0000
  H   H1019     1.0  0.32288  0.88008  0.57375  1.0000
  C   C633      1.0  0.38189  0.85141  0.33133  1.0000
  H   H1020     1.0  0.31464  0.84819  0.56823  1.0000
  H   H1021     1.0  0.26615  0.91358  0.35047  1.0000
  Fe  Fe130     1.0  0.47542  0.89541  0.42515  1.0000
  H   H1022     1.0  0.33594  0.84618  0.61396  1.0000
  H   H1023     1.0  0.47075  0.90157  0.52107  1.0000
  C   C634      1.0  0.32065  0.85096  0.61426  1.0000
  H   H1024     1.0  0.41424  0.83230  0.34089  1.0000
  H   H1025     1.0  0.29181  0.87626  0.60676  1.0000
  N   N64       1.0  0.31519  0.85833  0.59540  1.0000
  C   C635      1.0  0.32652  0.87412  0.58799  1.0000
  C   C636      1.0  0.36111  0.98821  0.36419  1.0000
  H   H1026     1.0  0.44356  0.82784  0.54957  1.0000
  C   C637      1.0  0.40963  0.86862  0.32761  1.0000
  C   C638      1.0  0.45838  0.83114  0.55000  1.0000
  H   H1027     1.0  0.48520  0.92210  0.45427  1.0000
  H   H1028     1.0  0.43341  0.85344  0.57037  1.0000
  C   C639      1.0  0.27209  0.94799  0.33332  1.0000
  H   H1029     1.0  0.24641  0.92999  0.35674  1.0000
  H   H1030     1.0  0.28509  0.94019  0.33844  1.0000
  N   N65       1.0  0.25906  0.93486  0.32830  1.0000
  C   C640      1.0  0.47578  0.98054  0.56004  1.0000
  H   H1031     1.0  0.36341  0.97397  0.35889  1.0000
  H   H1032     1.0  0.48855  0.94888  0.48427  1.0000
  H   H1033     1.0  0.26550  0.95680  0.34458  1.0000
  C   C641      1.0  0.47928  0.85498  0.55283  1.0000
  H   H1034     1.0  0.47684  0.94654  0.45325  1.0000
  C   C642      1.0  0.48939  0.93655  0.44998  1.0000
  H   H1035     1.0  0.48055  0.87006  0.55445  1.0000
  H   H1036     1.0  0.27672  0.95767  0.32091  1.0000
  N   N66       1.0  0.40087  0.85274  0.32131  1.0000
  H   H1037     1.0  0.45711  0.98574  0.43887  1.0000
  C   C643      1.0  0.47008  0.98678  0.42981  1.0000
  H   H1038     1.0  0.36343  0.98660  0.37941  1.0000
  H   H1039     1.0  0.40631  0.82270  0.32110  1.0000
  H   H1040     1.0  0.42421  0.86976  0.32082  1.0000
  Fe  Fe131     1.0  0.49016  0.92737  0.39879  1.0000
  H   H1041     1.0  0.37323  0.98868  0.32748  1.0000
  Fe  Fe132     1.0  0.32907  0.88469  0.68307  1.0000
  H   H1042     1.0  0.43930  0.83539  0.73988  1.0000
  S   S262      1.0  0.34101  0.88373  0.71186  1.0000
  H   H1043     1.0  0.47818  0.83978  0.84868  1.0000
  C   C644      1.0  0.31148  0.96807  0.66374  1.0000
  C   C645      1.0  0.38951  0.65222  0.84551  1.0000
  H   H1044     1.0  0.32490  0.78617  0.88759  1.0000
  H   H1045     1.0  0.40100  0.65916  0.85068  1.0000
  S   S263      1.0  0.29875  0.89512  0.67916  1.0000
  Fe  Fe133     1.0  0.31113  0.91808  0.65915  1.0000
  Fe  Fe134     1.0  0.41438  0.81284  0.81890  1.0000
  S   S264      1.0  0.40426  0.80667  0.84934  1.0000
  S   S265      1.0  0.44426  0.81026  0.80418  1.0000
  Fe  Fe135     1.0  0.37436  0.81976  0.80686  1.0000
  S   S266      1.0  0.36097  0.81439  0.83673  1.0000
  S   S267      1.0  0.35890  0.82153  0.78007  1.0000
  Fe  Fe136     1.0  0.38318  0.83185  0.84471  1.0000
  S   S268      1.0  0.37688  0.84979  0.86975  1.0000
  Fe  Fe137     1.0  0.38251  0.78943  0.84004  1.0000
  S   S269      1.0  0.37814  0.76100  0.85783  1.0000
  S   S270      1.0  0.39474  0.83924  0.81463  1.0000
  S   S271      1.0  0.39451  0.79362  0.80985  1.0000
  Fe  Fe138     1.0  0.39681  0.95444  0.89268  1.0000
  S   S272      1.0  0.38827  0.93733  0.87011  1.0000
  S   S273      1.0  0.40069  0.94736  0.92335  1.0000
  Fe  Fe139     1.0  0.29146  0.63375  0.89282  1.0000
  S   S274      1.0  0.31574  0.64288  0.87242  1.0000
  S   S275      1.0  0.26631  0.61726  0.88826  1.0000
  Fe  Fe140     1.0  0.31120  0.64255  0.92742  1.0000
  S   S276      1.0  0.33656  0.65240  0.90932  1.0000
  S   S277      1.0  0.31062  0.63405  0.95921  1.0000
  Fe  Fe141     1.0  0.31614  0.66762  0.88983  1.0000
  S   S278      1.0  0.31954  0.69686  0.87328  1.0000
  Fe  Fe142     1.0  0.33476  0.62737  0.89303  1.0000
  S   S279      1.0  0.36275  0.61061  0.88594  1.0000
  S   S280      1.0  0.29032  0.65944  0.90919  1.0000
  S   S281      1.0  0.31092  0.61656  0.91218  1.0000
  C   C646      1.0  0.34005  0.98150  0.66973  1.0000
  S   S282      1.0  0.39844  0.50893  0.91581  1.0000
  S   S283      1.0  0.37070  0.52357  0.87163  1.0000
  S   S284      1.0  0.36251  0.97747  0.95138  1.0000
  C   C647      1.0  0.34544  0.79113  0.91610  1.0000
  H   H1046     1.0  0.28799  0.94967  0.72921  1.0000
  H   H1047     1.0  0.29430  0.92769  0.74244  1.0000
  H   H1048     1.0  0.34500  0.76903  0.88803  1.0000
  C   C648      1.0  0.37062  0.79343  0.89118  1.0000
  H   H1049     1.0  0.34400  0.78744  0.86931  1.0000
  C   C649      1.0  0.29972  0.94121  0.73612  1.0000
  H   H1050     1.0  0.35634  0.95490  0.92164  1.0000
  H   H1051     1.0  0.36455  0.93516  0.90842  1.0000
  Fe  Fe143     1.0  0.42626  0.96357  0.91789  1.0000
  C   C650      1.0  0.34360  0.81633  0.89106  1.0000
  H   H1052     1.0  0.44220  0.97470  0.96072  1.0000
  C   C651      1.0  0.40154  0.49675  0.96715  1.0000
  C   C652      1.0  0.47749  0.49076  0.88957  1.0000
  C   C653      1.0  0.47951  0.83198  0.83637  1.0000
  H   H1053     1.0  0.34407  0.92328  0.72192  1.0000
  C   C654      1.0  0.36418  0.58624  0.88282  1.0000
  C   C655      1.0  0.38026  0.57466  0.88776  1.0000
  C   C656      1.0  0.38221  0.55537  0.88480  1.0000
  C   C657      1.0  0.36834  0.54759  0.87635  1.0000
  C   C658      1.0  0.35227  0.55918  0.87138  1.0000
  C   C659      1.0  0.35006  0.57837  0.87482  1.0000
  H   H1054     1.0  0.39133  0.58066  0.89378  1.0000
  H   H1055     1.0  0.39476  0.54666  0.88847  1.0000
  H   H1056     1.0  0.34150  0.55330  0.86477  1.0000
  H   H1057     1.0  0.33768  0.58717  0.87081  1.0000
  H   H1058     1.0  0.31807  0.94189  0.93634  1.0000
  C   C660      1.0  0.48803  0.95965  0.93423  1.0000
  H   H1059     1.0  0.42894  0.50207  0.97422  1.0000
  C   C661      1.0  0.24943  0.62879  0.85479  1.0000
  H   H1060     1.0  0.30909  0.67451  0.96434  1.0000
  S   S285      1.0  0.42388  0.96824  0.88692  1.0000
  H   H1061     1.0  0.32998  0.79306  0.92006  1.0000
  C   C662      1.0  0.36178  0.74318  0.86153  1.0000
  C   C663      1.0  0.36518  0.72759  0.87480  1.0000
  C   C664      1.0  0.35249  0.71337  0.87867  1.0000
  C   C665      1.0  0.33611  0.71448  0.86928  1.0000
  C   C666      1.0  0.33272  0.73009  0.85602  1.0000
  C   C667      1.0  0.34539  0.74432  0.85218  1.0000
  H   H1062     1.0  0.37771  0.72654  0.88226  1.0000
  H   H1063     1.0  0.35529  0.70170  0.88910  1.0000
  H   H1064     1.0  0.32015  0.73118  0.84862  1.0000
  H   H1065     1.0  0.34244  0.75614  0.84194  1.0000
  C   C668      1.0  0.46457  0.81665  0.81365  1.0000
  C   C669      1.0  0.46315  0.82656  0.82968  1.0000
  S   S286      1.0  0.45258  0.95051  0.93022  1.0000
  H   H1066     1.0  0.44943  0.83022  0.83682  1.0000
  H   H1067     1.0  0.37607  0.77846  0.89445  1.0000
  C   C670      1.0  0.38161  0.87381  0.86948  1.0000
  C   C671      1.0  0.38302  0.88142  0.88664  1.0000
  C   C672      1.0  0.38580  0.90066  0.88707  1.0000
  C   C673      1.0  0.38665  0.91262  0.87036  1.0000
  C   C674      1.0  0.38523  0.90500  0.85324  1.0000
  C   C675      1.0  0.38296  0.88569  0.85276  1.0000
  H   H1068     1.0  0.38209  0.87234  0.89964  1.0000
  H   H1069     1.0  0.38710  0.90622  0.90031  1.0000
  H   H1070     1.0  0.38583  0.91408  0.84024  1.0000
  H   H1071     1.0  0.38179  0.88008  0.83949  1.0000
  H   H1072     1.0  0.35081  0.82584  0.89884  1.0000
  H   H1073     1.0  0.37836  0.80251  0.89890  1.0000
  C   C676      1.0  0.34621  0.86601  0.73041  1.0000
  C   C677      1.0  0.34135  0.84751  0.73067  1.0000
  C   C678      1.0  0.34529  0.83420  0.74601  1.0000
  C   C679      1.0  0.35420  0.83912  0.76126  1.0000
  C   C680      1.0  0.35930  0.85756  0.76089  1.0000
  C   C681      1.0  0.35526  0.87090  0.74560  1.0000
  H   H1074     1.0  0.33435  0.84350  0.71917  1.0000
  H   H1075     1.0  0.34128  0.81998  0.74610  1.0000
  H   H1076     1.0  0.36611  0.86161  0.77249  1.0000
  H   H1077     1.0  0.35912  0.88514  0.74557  1.0000
  H   H1078     1.0  0.35899  0.65122  0.82712  1.0000
  C   C682      1.0  0.36703  0.66416  0.86976  1.0000
  C   C683      1.0  0.45442  0.94390  0.98287  1.0000
  H   H1079     1.0  0.33571  0.95379  0.70409  1.0000
  H   H1080     1.0  0.34689  0.82065  0.87581  1.0000
  N   N67       1.0  0.34500  0.54078  0.93463  1.0000
  C   C684      1.0  0.36483  0.54243  0.93785  1.0000
  C   C685      1.0  0.33406  0.53617  0.95285  1.0000
  C   C686      1.0  0.34420  0.52562  0.92221  1.0000
  C   C687      1.0  0.33695  0.55885  0.92560  1.0000
  H   H1081     1.0  0.36603  0.55384  0.94702  1.0000
  H   H1082     1.0  0.37353  0.54570  0.92434  1.0000
  H   H1083     1.0  0.37132  0.52906  0.94475  1.0000
  H   H1084     1.0  0.31906  0.53470  0.95091  1.0000
  H   H1085     1.0  0.33988  0.52259  0.95999  1.0000
  H   H1086     1.0  0.33436  0.54730  0.96258  1.0000
  H   H1087     1.0  0.32953  0.52421  0.91906  1.0000
  H   H1088     1.0  0.34991  0.51173  0.92867  1.0000
  H   H1089     1.0  0.35266  0.52839  0.90851  1.0000
  H   H1090     1.0  0.33725  0.57068  0.93453  1.0000
  H   H1091     1.0  0.32207  0.55812  0.92266  1.0000
  H   H1092     1.0  0.34503  0.56272  0.91192  1.0000
  C   C688      1.0  0.31029  0.64685  0.97921  1.0000
  C   C689      1.0  0.34078  0.91118  0.92698  1.0000
  H   H1093     1.0  0.36679  0.93659  0.95068  1.0000
  C   C690      1.0  0.36223  0.92375  0.94543  1.0000
  C   C691      1.0  0.32291  0.95599  0.71410  1.0000
  S   S287      1.0  0.29882  0.94864  0.66048  1.0000
  H   H1094     1.0  0.33635  0.90099  0.93901  1.0000
  C   C692      1.0  0.33028  0.93787  0.94481  1.0000
  N   N68       1.0  0.34638  0.92857  0.93359  1.0000
  C   C693      1.0  0.35226  0.94154  0.91713  1.0000
  H   H1095     1.0  0.35264  0.90396  0.91834  1.0000
  H   H1096     1.0  0.35826  0.91406  0.95803  1.0000
  H   H1097     1.0  0.33847  0.95221  0.66532  1.0000
  H   H1098     1.0  0.33624  0.93405  0.74336  1.0000
  H   H1099     1.0  0.32546  0.92855  0.95740  1.0000
  H   H1100     1.0  0.48386  0.80440  0.79215  1.0000
  H   H1101     1.0  0.37470  0.91678  0.93745  1.0000
  N   N69       1.0  0.41569  0.82128  0.75345  1.0000
  C   C694      1.0  0.41067  0.83555  0.76708  1.0000
  C   C695      1.0  0.43594  0.82136  0.74687  1.0000
  C   C696      1.0  0.40417  0.82575  0.73731  1.0000
  C   C697      1.0  0.41196  0.80244  0.76271  1.0000
  H   H1102     1.0  0.39560  0.83558  0.77267  1.0000
  H   H1103     1.0  0.41297  0.85001  0.76056  1.0000
  H   H1104     1.0  0.41930  0.83272  0.77932  1.0000
  H   H1105     1.0  0.44031  0.81067  0.73665  1.0000
  Fe  Fe144     1.0  0.38678  0.50122  0.89007  1.0000
  H   H1106     1.0  0.44486  0.81805  0.75890  1.0000
  H   H1107     1.0  0.40767  0.81537  0.72663  1.0000
  H   H1108     1.0  0.40629  0.84004  0.73019  1.0000
  H   H1109     1.0  0.38885  0.82550  0.74195  1.0000
  H   H1110     1.0  0.41554  0.79127  0.75287  1.0000
  H   H1111     1.0  0.39680  0.80191  0.76796  1.0000
  H   H1112     1.0  0.42044  0.79864  0.77498  1.0000
  H   H1113     1.0  0.40662  0.49411  0.95288  1.0000
  H   H1114     1.0  0.41383  0.96324  0.84829  1.0000
  H   H1115     1.0  0.32656  0.96464  0.72505  1.0000
  H   H1116     1.0  0.39538  0.98470  0.97056  1.0000
  H   H1117     1.0  0.34071  0.94537  0.90779  1.0000
  C   C698      1.0  0.46983  0.96639  0.92986  1.0000
  C   C699      1.0  0.30175  0.98607  0.66462  1.0000
  C   C700      1.0  0.31091  0.92728  0.70737  1.0000
  H   H1118     1.0  0.46244  0.94483  0.96871  1.0000
  C   C701      1.0  0.41615  0.97674  0.83955  1.0000
  C   C702      1.0  0.33076  0.96592  0.66609  1.0000
  H   H1119     1.0  0.38053  0.97524  0.85530  1.0000
  C   C703      1.0  0.33156  0.92654  0.73204  1.0000
  H   H1120     1.0  0.31198  0.96448  0.70604  1.0000
  S   S288      1.0  0.37965  0.98194  0.89736  1.0000
  H   H1121     1.0  0.25776  0.64078  0.85327  1.0000
  H   H1122     1.0  0.30325  0.94901  0.74779  1.0000
  H   H1123     1.0  0.32881  0.91430  0.91803  1.0000
  C   C704      1.0  0.35618  0.65302  0.84242  1.0000
  H   H1124     1.0  0.37411  0.68177  0.82405  1.0000
  Fe  Fe145     1.0  0.38587  0.97591  0.92777  1.0000
  H   H1125     1.0  0.28685  0.98791  0.66276  1.0000
  H   H1126     1.0  0.32293  0.92489  0.69654  1.0000
  H   H1127     1.0  0.38196  0.69013  0.84458  1.0000
  H   H1128     1.0  0.40380  0.96858  0.80747  1.0000
  H   H1129     1.0  0.35726  0.69040  0.84221  1.0000
  H   H1130     1.0  0.35287  0.67150  0.87316  1.0000
  H   H1131     1.0  0.46596  0.49216  0.88074  1.0000
  H   H1132     1.0  0.34210  0.66103  0.84455  1.0000
  H   H1133     1.0  0.36732  0.64992  0.87761  1.0000
  H   H1134     1.0  0.37754  0.67206  0.87540  1.0000
  H   H1135     1.0  0.38963  0.63762  0.85271  1.0000
  H   H1136     1.0  0.29911  0.93503  0.70000  1.0000
  C   C705      1.0  0.25133  0.61523  0.87013  1.0000
  H   H1137     1.0  0.30648  0.91316  0.71303  1.0000
  H   H1138     1.0  0.32813  0.81914  0.89437  1.0000
  H   H1139     1.0  0.42778  0.97368  0.82847  1.0000
  H   H1140     1.0  0.35020  0.77609  0.92003  1.0000
  N   N70       1.0  0.35002  0.79629  0.89578  1.0000
  H   H1141     1.0  0.37441  0.79697  0.87593  1.0000
  H   H1142     1.0  0.32699  0.91269  0.73848  1.0000
  H   H1143     1.0  0.39301  0.65094  0.83017  1.0000
  N   N71       1.0  0.37099  0.66289  0.84928  1.0000
  C   C706      1.0  0.37115  0.68212  0.83957  1.0000
  H   H1144     1.0  0.33417  0.95103  0.95003  1.0000
  H   H1145     1.0  0.35518  0.63869  0.85002  1.0000
  C   C707      1.0  0.34050  0.78426  0.88474  1.0000
  H   H1146     1.0  0.35246  0.79991  0.92481  1.0000
  H   H1147     1.0  0.44251  0.93519  0.98203  1.0000
  N   N72       1.0  0.31628  0.93778  0.72243  1.0000
  S   S289      1.0  0.34110  0.90842  0.66373  1.0000
  H   H1148     1.0  0.42286  0.96385  0.97378  1.0000
  H   H1149     1.0  0.38994  0.95792  0.82730  1.0000
  C   C708      1.0  0.30962  0.66653  0.97796  1.0000
  C   C709      1.0  0.39274  0.97165  0.81911  1.0000
  C   C710      1.0  0.36632  0.97890  0.97529  1.0000
  H   H1150     1.0  0.35490  0.97960  0.67180  1.0000
  S   S290      1.0  0.33063  0.86537  0.65966  1.0000
  C   C711      1.0  0.24028  0.59976  0.87176  1.0000
  C   C712      1.0  0.38258  0.49536  0.97361  1.0000
  C   C713      1.0  0.48258  0.81207  0.80454  1.0000
  H   H1151     1.0  0.37959  0.97732  0.81270  1.0000
  C   C714      1.0  0.38376  0.98232  0.98108  1.0000
  C   C715      1.0  0.46538  0.98576  0.92600  1.0000
  C   C716      1.0  0.41426  0.50114  0.97931  1.0000
  C   C717      1.0  0.43478  0.97240  0.97505  1.0000
  H   H1152     1.0  0.42878  0.98645  0.97935  1.0000
  H   H1153     1.0  0.33745  0.97434  0.98459  1.0000
  H   H1154     1.0  0.42124  0.98650  0.84871  1.0000
  N   N73       1.0  0.39874  0.98499  0.83134  1.0000
  H   H1155     1.0  0.47174  0.97587  0.97478  1.0000
  H   H1156     1.0  0.36804  0.62723  0.98579  1.0000
  H   H1157     1.0  0.24176  0.58905  0.88341  1.0000
  C   C718      1.0  0.47381  0.48878  0.90921  1.0000
  Fe  Fe146     1.0  0.30091  0.87774  0.65410  1.0000
  C   C719      1.0  0.38366  0.98851  0.84657  1.0000
  H   H1158     1.0  0.61040  0.02745  0.11482  1.0000
  C   C720      1.0  0.71706  0.34076  0.04974  1.0000
  Fe  Fe147     1.0  0.65747  0.08605  0.30253  1.0000
  S   S291      1.0  0.66140  0.09673  0.27121  1.0000
  Fe  Fe148     1.0  0.59274  0.14191  0.18953  1.0000
  S   S292      1.0  0.61554  0.14307  0.16549  1.0000
  S   S293      1.0  0.59575  0.13383  0.22101  1.0000
  Fe  Fe149     1.0  0.56213  0.15937  0.16381  1.0000
  S   S294      1.0  0.58329  0.16219  0.13842  1.0000
  S   S295      1.0  0.53219  0.17213  0.15971  1.0000
  Fe  Fe150     1.0  0.59407  0.13260  0.14873  1.0000
  S   S296      1.0  0.60061  0.11096  0.12693  1.0000
  Fe  Fe151     1.0  0.60270  0.17267  0.15730  1.0000
  S   S297      1.0  0.62009  0.19863  0.15607  1.0000
  S   S298      1.0  0.57210  0.12948  0.17334  1.0000
  S   S299      1.0  0.58062  0.17165  0.18204  1.0000
  Fe  Fe152     1.0  0.56740  0.01202  0.10338  1.0000
  S   S300      1.0  0.56103  0.03513  0.12354  1.0000
  S   S301      1.0  0.55089  0.00808  0.07915  1.0000
  Fe  Fe153     1.0  0.65618  0.29829  0.09418  1.0000
  S   S302      1.0  0.68349  0.30434  0.07680  1.0000
  S   S303      1.0  0.64332  0.26946  0.09810  1.0000
  Fe  Fe154     1.0  0.64446  0.34066  0.09583  1.0000
  S   S304      1.0  0.67062  0.34964  0.07896  1.0000
  S   S305      1.0  0.61765  0.35963  0.10199  1.0000
  Fe  Fe155     1.0  0.66693  0.32723  0.06004  1.0000
  S   S306      1.0  0.67201  0.33813  0.02904  1.0000
  Fe  Fe156     1.0  0.68614  0.32659  0.09660  1.0000
  S   S307      1.0  0.71705  0.32975  0.10117  1.0000
  S   S308      1.0  0.63960  0.31990  0.07569  1.0000
  S   S309      1.0  0.65982  0.31889  0.11532  1.0000
  H   H1159     1.0  0.65585  0.39383  0.05753  1.0000
  H   H1160     1.0  0.70576  0.30910  0.03910  1.0000
  H   H1161     1.0  0.56694  0.13614  0.10492  1.0000
  H   H1162     1.0  0.54771  0.14480  0.09111  1.0000
  H   H1163     1.0  0.55106  0.15569  0.11197  1.0000
  H   H1164     1.0  0.51445  0.13941  0.10418  1.0000
  Fe  Fe157     1.0  0.60134  0.46895  0.09655  1.0000
  S   S310      1.0  0.61252  0.44601  0.11768  1.0000
  S   S311      1.0  0.57884  0.46440  0.07833  1.0000
  H   H1165     1.0  0.51845  0.15096  0.12436  1.0000
  H   H1166     1.0  0.55596  0.10411  0.10762  1.0000
  C   C721      1.0  0.50349  0.46702  0.07575  1.0000
  C   C722      1.0  0.63226  0.39102  0.03094  1.0000
  N   N74       1.0  0.53965  0.12875  0.11721  1.0000
  C   C723      1.0  0.71874  0.35552  0.12795  1.0000
  C   C724      1.0  0.56041  0.47423  0.98937  1.0000
  H   H1167     1.0  0.70351  0.35622  0.12981  1.0000
  S   S312      1.0  0.58544  0.00955  0.03523  1.0000
  C   C725      1.0  0.66786  0.30657  0.01047  1.0000
  C   C726      1.0  0.66996  0.32590  0.00898  1.0000
  H   H1168     1.0  0.62408  0.00002  0.16806  1.0000
  H   H1169     1.0  0.51934  0.46120  0.15293  1.0000
  H   H1170     1.0  0.66701  0.29869  0.02418  1.0000
  S   S313      1.0  0.63472  0.06882  0.31752  1.0000
  C   C727      1.0  0.54588  0.12539  0.13635  1.0000
  C   C728      1.0  0.61746  0.38392  0.10497  1.0000
  C   C729      1.0  0.60188  0.39617  0.09988  1.0000
  C   C730      1.0  0.60078  0.41544  0.10276  1.0000
  C   C731      1.0  0.61495  0.42251  0.11142  1.0000
  C   C732      1.0  0.63059  0.41028  0.11642  1.0000
  C   C733      1.0  0.63204  0.39113  0.11288  1.0000
  H   H1171     1.0  0.59050  0.39069  0.09385  1.0000
  H   H1172     1.0  0.58856  0.42463  0.09905  1.0000
  H   H1173     1.0  0.64154  0.41560  0.12325  1.0000
  H   H1174     1.0  0.64405  0.38181  0.11698  1.0000
  H   H1175     1.0  0.73714  0.09374  0.31382  1.0000
  H   H1176     1.0  0.56084  0.11963  0.13601  1.0000
  H   H1177     1.0  0.70497  0.33550  0.05901  1.0000
  H   H1178     1.0  0.62517  0.37843  0.03743  1.0000
  H   H1179     1.0  0.50472  0.02448  0.08954  1.0000
  N   N75       1.0  0.63041  0.17967  0.21260  1.0000
  H   H1180     1.0  0.65781  0.19012  0.20789  1.0000
  C   C734      1.0  0.62597  0.21840  0.13972  1.0000
  C   C735      1.0  0.62145  0.22036  0.12101  1.0000
  C   C736      1.0  0.62693  0.23597  0.10859  1.0000
  C   C737      1.0  0.63689  0.25001  0.11461  1.0000
  C   C738      1.0  0.64114  0.24823  0.13341  1.0000
  C   C739      1.0  0.63581  0.23254  0.14578  1.0000
  H   H1181     1.0  0.61398  0.20969  0.11600  1.0000
  H   H1182     1.0  0.62356  0.23706  0.09412  1.0000
  H   H1183     1.0  0.64882  0.25878  0.13835  1.0000
  H   H1184     1.0  0.63947  0.23127  0.16016  1.0000
  C   C740      1.0  0.58979  0.08967  0.12644  1.0000
  C   C741      1.0  0.57725  0.08291  0.14128  1.0000
  C   C742      1.0  0.56849  0.06631  0.14004  1.0000
  C   C743      1.0  0.57229  0.05611  0.12408  1.0000
  C   C744      1.0  0.58492  0.06276  0.10927  1.0000
  C   C745      1.0  0.59362  0.07943  0.11048  1.0000
  H   H1185     1.0  0.57432  0.09044  0.15377  1.0000
  H   H1186     1.0  0.55877  0.06129  0.15160  1.0000
  H   H1187     1.0  0.58791  0.05515  0.09684  1.0000
  H   H1188     1.0  0.60327  0.08453  0.09890  1.0000
  C   C746      1.0  0.51158  0.14101  0.16939  1.0000
  C   C747      1.0  0.51149  0.15994  0.16225  1.0000
  H   H1189     1.0  0.62209  0.99318  0.11757  1.0000
  H   H1190     1.0  0.52429  0.13368  0.17443  1.0000
  H   H1191     1.0  0.72057  0.07814  0.30909  1.0000
  C   C748      1.0  0.64282  0.10633  0.25731  1.0000
  C   C749      1.0  0.64660  0.10974  0.23763  1.0000
  C   C750      1.0  0.63234  0.11766  0.22619  1.0000
  C   C751      1.0  0.61412  0.12256  0.23435  1.0000
  C   C752      1.0  0.61040  0.11923  0.25402  1.0000
  C   C753      1.0  0.62458  0.11108  0.26541  1.0000
  H   H1192     1.0  0.66062  0.10604  0.23118  1.0000
  H   H1193     1.0  0.63545  0.11990  0.21109  1.0000
  H   H1194     1.0  0.59641  0.12298  0.26053  1.0000
  H   H1195     1.0  0.62141  0.10861  0.28050  1.0000
  N   N76       1.0  0.72923  0.32497  0.04194  1.0000
  H   H1196     1.0  0.73907  0.41088  0.13203  1.0000
  H   H1197     1.0  0.64074  0.20183  0.19294  1.0000
  N   N77       1.0  0.63120  0.40574  0.04422  1.0000
  C   C754      1.0  0.49466  0.16937  0.15626  1.0000
  C   C755      1.0  0.58768  0.99699  0.01496  1.0000
  H   H1198     1.0  0.63420  0.38525  0.06803  1.0000
  H   H1199     1.0  0.60370  0.41773  0.03739  1.0000
  C   C756      1.0  0.72860  0.34389  0.11498  1.0000
  H   H1200     1.0  0.59029  0.00416  0.13151  1.0000
  C   C757      1.0  0.59061  0.45842  0.99678  1.0000
  H   H1201     1.0  0.60363  0.39976  0.05693  1.0000
  C   C758      1.0  0.71166  0.09610  0.27587  1.0000
  H   H1202     1.0  0.57181  0.46078  0.14777  1.0000
  H   H1203     1.0  0.66550  0.28232  0.99541  1.0000
  H   H1204     1.0  0.73614  0.45974  0.14635  1.0000
  H   H1205     1.0  0.53546  0.44032  0.15249  1.0000
  H   H1206     1.0  0.50495  0.45276  0.07165  1.0000
  C   C759      1.0  0.55701  0.47952  0.00778  1.0000
  H   H1207     1.0  0.50353  0.99946  0.09322  1.0000
  H   H1208     1.0  0.54483  0.13872  0.14324  1.0000
  H   H1209     1.0  0.63387  0.42829  0.02216  1.0000
  H   H1210     1.0  0.63982  0.43368  0.04456  1.0000
  H   H1211     1.0  0.50697  0.47889  0.03564  1.0000
  H   H1212     1.0  0.55274  0.99092  0.00398  1.0000
  S   S314      1.0  0.59547  0.00249  0.08889  1.0000
  H   H1213     1.0  0.63152  0.03237  0.12426  1.0000
  H   H1214     1.0  0.60367  0.45046  0.99237  1.0000
  H   H1215     1.0  0.50371  0.01283  0.11299  1.0000
  H   H1216     1.0  0.56831  0.47928  0.03459  1.0000
  H   H1217     1.0  0.69779  0.12549  0.29489  1.0000
  H   H1218     1.0  0.72725  0.12906  0.27346  1.0000
  H   H1219     1.0  0.69575  0.10426  0.31009  1.0000
  H   H1220     1.0  0.66117  0.01440  0.29897  1.0000
  H   H1221     1.0  0.60998  0.42296  0.05972  1.0000
  S   S315      1.0  0.60606  0.46109  0.02944  1.0000
  C   C760      1.0  0.64066  0.42218  0.03501  1.0000
  C   C761      1.0  0.51987  0.13707  0.11831  1.0000
  H   H1222     1.0  0.62538  0.39634  0.01794  1.0000
  N   N78       1.0  0.72061  0.10389  0.29079  1.0000
  H   H1223     1.0  0.57374  0.46336  0.12259  1.0000
  S   S316      1.0  0.68109  0.06624  0.31401  1.0000
  C   C762      1.0  0.66700  0.29731  0.99412  1.0000
  C   C763      1.0  0.72863  0.36600  0.13885  1.0000
  C   C764      1.0  0.61049  0.18709  0.21173  1.0000
  H   H1224     1.0  0.60631  0.19807  0.22166  1.0000
  H   H1225     1.0  0.60787  0.19354  0.19731  1.0000
  H   H1226     1.0  0.60085  0.17567  0.21545  1.0000
  H   H1227     1.0  0.62994  0.18168  0.24242  1.0000
  H   H1228     1.0  0.62377  0.15959  0.23612  1.0000
  C   C765      1.0  0.50958  0.99929  0.98758  1.0000
  C   C766      1.0  0.67110  0.33585  0.99099  1.0000
  H   H1229     1.0  0.49532  0.11690  0.17566  1.0000
  C   C767      1.0  0.62423  0.01317  0.15836  1.0000
  H   H1230     1.0  0.72682  0.30257  0.02454  1.0000
  H   H1231     1.0  0.52239  0.46498  0.11799  1.0000
  C   C768      1.0  0.55186  0.14192  0.10574  1.0000
  C   C769      1.0  0.58833  0.00718  0.99712  1.0000
  N   N79       1.0  0.59377  0.30003  0.11368  1.0000
  C   C770      1.0  0.59686  0.28755  0.09818  1.0000
  C   C771      1.0  0.58905  0.31965  0.10589  1.0000
  C   C772      1.0  0.61109  0.29909  0.12347  1.0000
  C   C773      1.0  0.57812  0.29377  0.12720  1.0000
  H   H1232     1.0  0.60071  0.27265  0.10353  1.0000
  H   H1233     1.0  0.60865  0.29179  0.08774  1.0000
  H   H1234     1.0  0.58409  0.28782  0.09048  1.0000
  H   H1235     1.0  0.58720  0.32960  0.11709  1.0000
  H   H1236     1.0  0.60049  0.32465  0.09542  1.0000
  H   H1237     1.0  0.57589  0.32104  0.09866  1.0000
  H   H1238     1.0  0.61516  0.28447  0.12949  1.0000
  H   H1239     1.0  0.60944  0.30850  0.13510  1.0000
  H   H1240     1.0  0.62319  0.30348  0.11360  1.0000
  H   H1241     1.0  0.57543  0.30287  0.13910  1.0000
  H   H1242     1.0  0.58136  0.27899  0.13331  1.0000
  H   H1243     1.0  0.56481  0.29423  0.12031  1.0000
  H   H1244     1.0  0.53235  0.10030  0.11716  1.0000
  H   H1245     1.0  0.53276  0.00487  0.01381  1.0000
  H   H1246     1.0  0.51038  0.12785  0.12754  1.0000
  H   H1247     1.0  0.54005  0.45933  0.16552  1.0000
  C   C774      1.0  0.71820  0.31470  0.03055  1.0000
  C   C775      1.0  0.51972  0.47624  0.07723  1.0000
  C   C776      1.0  0.73441  0.44761  0.13826  1.0000
  H   H1248     1.0  0.64262  0.99834  0.12784  1.0000
  C   C777      1.0  0.63319  0.17113  0.23189  1.0000
  H   H1249     1.0  0.62581  0.15359  0.20216  1.0000
  Fe  Fe158     1.0  0.57880  0.99678  0.06516  1.0000
  H   H1250     1.0  0.72224  0.08848  0.26623  1.0000
  H   H1251     1.0  0.53727  0.11531  0.14549  1.0000
  C   C778      1.0  0.58770  0.46458  0.01483  1.0000
  H   H1252     1.0  0.53863  0.44412  0.11749  1.0000
  S   S317      1.0  0.62160  0.47939  0.07294  1.0000
  C   C779      1.0  0.65860  0.00098  0.30671  1.0000
  H   H1253     1.0  0.60885  0.04050  0.13506  1.0000
  C   C780      1.0  0.61685  0.02852  0.12813  1.0000
  C   C781      1.0  0.63523  0.16519  0.19917  1.0000
  C   C782      1.0  0.64266  0.19523  0.20751  1.0000
  H   H1254     1.0  0.63373  0.17124  0.18441  1.0000
  H   H1255     1.0  0.64792  0.16485  0.23301  1.0000
  C   C783      1.0  0.62762  0.99535  0.13110  1.0000
  H   H1256     1.0  0.50516  0.46505  0.01644  1.0000
  C   C784      1.0  0.56532  0.45724  0.13523  1.0000
  H   H1257     1.0  0.64714  0.38601  0.02658  1.0000
  H   H1258     1.0  0.63939  0.20652  0.21725  1.0000
  C   C785      1.0  0.73049  0.08837  0.30222  1.0000
  H   H1259     1.0  0.53650  0.11258  0.09415  1.0000
  C   C786      1.0  0.53751  0.45963  0.11840  1.0000
  H   H1260     1.0  0.72455  0.30611  0.06696  1.0000
  H   H1261     1.0  0.70131  0.08598  0.28193  1.0000
  C   C787      1.0  0.61123  0.41174  0.04981  1.0000
  H   H1262     1.0  0.53355  0.46913  0.07410  1.0000
  C   C788      1.0  0.64063  0.39805  0.06112  1.0000
  H   H1263     1.0  0.64997  0.15880  0.19980  1.0000
  C   C789      1.0  0.54115  0.11065  0.10862  1.0000
  C   C790      1.0  0.53455  0.45596  0.15237  1.0000
  C   C791      1.0  0.49681  0.47365  0.02702  1.0000
  N   N80       1.0  0.61635  0.01075  0.14055  1.0000
  H   H1264     1.0  0.65579  0.41831  0.03069  1.0000
  H   H1265     1.0  0.72353  0.43918  0.14643  1.0000
  H   H1266     1.0  0.58789  0.02241  0.99608  1.0000
  H   H1267     1.0  0.61594  0.02465  0.16585  1.0000
  H   H1268     1.0  0.70367  0.10736  0.26724  1.0000
  N   N81       1.0  0.54524  0.46451  0.13547  1.0000
  H   H1269     1.0  0.72080  0.37466  0.14903  1.0000
  Fe  Fe159     1.0  0.59847  0.47667  0.05505  1.0000
  H   H1270     1.0  0.63956  0.40854  0.07177  1.0000
  H   H1271     1.0  0.63906  0.01694  0.15576  1.0000
  H   H1272     1.0  0.59563  0.99254  0.15383  1.0000
  C   C792      1.0  0.70596  0.11399  0.30302  1.0000
  H   H1273     1.0  0.71110  0.35067  0.03841  1.0000
  H   H1274     1.0  0.51289  0.07210  0.31625  1.0000
  H   H1275     1.0  0.56725  0.44164  0.13488  1.0000
  H   H1276     1.0  0.72484  0.34882  0.05850  1.0000
  H   H1277     1.0  0.58761  0.01732  0.15165  1.0000
  C   C793      1.0  0.73632  0.31203  0.05758  1.0000
  C   C794      1.0  0.73428  0.11715  0.28212  1.0000
  H   H1278     1.0  0.71215  0.12017  0.31440  1.0000
  C   C795      1.0  0.59664  0.00597  0.14466  1.0000
  H   H1279     1.0  0.54521  0.46605  0.10547  1.0000
  H   H1280     1.0  0.71260  0.32408  0.01864  1.0000
  H   H1281     1.0  0.72879  0.45337  0.12473  1.0000
  C   C796      1.0  0.49825  0.01305  0.09895  1.0000
  C   C797      1.0  0.53712  0.99305  0.00486  1.0000
  C   C798      1.0  0.49511  0.13155  0.17016  1.0000
  C   C799      1.0  0.54358  0.48525  0.13578  1.0000
  C   C800      1.0  0.57068  0.47466  0.02056  1.0000
  H   H1282     1.0  0.49443  0.18402  0.15076  1.0000
  H   H1283     1.0  0.50400  0.01123  0.99598  1.0000
  H   H1284     1.0  0.67278  0.35080  0.98964  1.0000
  H   H1285     1.0  0.54423  0.48804  0.01191  1.0000
  H   H1286     1.0  0.50345  0.99111  0.03664  1.0000
  S   S318      1.0  0.66912  0.07046  0.63642  1.0000
  H   H1287     1.0  0.49461  0.04568  0.53172  1.0000
  S   S319      1.0  0.71646  0.09585  0.63729  1.0000
  Fe  Fe160     1.0  0.64385  0.09181  0.63701  1.0000
  S   S320      1.0  0.62509  0.09499  0.61281  1.0000
  Fe  Fe161     1.0  0.51752  0.07838  0.59685  1.0000
  S   S321      1.0  0.52219  0.07586  0.56550  1.0000
  S   S322      1.0  0.53708  0.08470  0.61843  1.0000
  H   H1288     1.0  0.50803  0.11117  0.34746  1.0000
  H   H1289     1.0  0.59693  0.08837  0.64499  1.0000
  C   C801      1.0  0.55886  0.07317  0.44757  1.0000
  H   H1290     1.0  0.59150  0.02916  0.64497  1.0000
  Fe  Fe162     1.0  0.63586  0.08706  0.34114  1.0000
  S   S323      1.0  0.60929  0.09993  0.35719  1.0000
  Fe  Fe163     1.0  0.67973  0.08512  0.33773  1.0000
  S   S324      1.0  0.70875  0.08994  0.34784  1.0000
  C   C802      1.0  0.50363  0.09776  0.47912  1.0000
  C   C803      1.0  0.67070  0.99326  0.64351  1.0000
  H   H1291     1.0  0.61373  0.11585  0.64510  1.0000
  S   S325      1.0  0.65820  0.06811  0.35533  1.0000
  H   H1292     1.0  0.50160  0.00101  0.62348  1.0000
  H   H1293     1.0  0.61850  0.05457  0.60494  1.0000
  H   H1294     1.0  0.51039  0.00391  0.59906  1.0000
  H   H1295     1.0  0.49628  0.01692  0.49102  1.0000
  C   C804      1.0  0.62328  0.03933  0.60763  1.0000
  S   S326      1.0  0.50566  0.05020  0.60322  1.0000
  Fe  Fe164     1.0  0.51127  0.06435  0.39851  1.0000
  S   S327      1.0  0.53551  0.05602  0.37714  1.0000
  S   S328      1.0  0.51118  0.05502  0.42930  1.0000
  H   H1296     1.0  0.63276  0.15195  0.63728  1.0000
  H   H1297     1.0  0.51880  0.09820  0.52286  1.0000
  H   H1298     1.0  0.62018  0.16146  0.61742  1.0000
  S   S329      1.0  0.51307  0.09592  0.45553  1.0000
  C   C805      1.0  0.72438  0.10568  0.35502  1.0000
  H   H1299     1.0  0.62110  0.05788  0.63851  1.0000
  C   C806      1.0  0.72009  0.12527  0.35433  1.0000
  H   H1300     1.0  0.52628  0.07305  0.33600  1.0000
  H   H1301     1.0  0.70671  0.13137  0.34975  1.0000
  C   C807      1.0  0.50035  0.02673  0.50074  1.0000
  H   H1302     1.0  0.59095  0.09667  0.41827  1.0000
  H   H1303     1.0  0.58153  0.10150  0.44170  1.0000
  C   C808      1.0  0.58859  0.08786  0.36158  1.0000
  C   C809      1.0  0.57188  0.09726  0.36940  1.0000
  C   C810      1.0  0.55542  0.08778  0.37402  1.0000
  C   C811      1.0  0.55557  0.06877  0.37089  1.0000
  C   C812      1.0  0.57212  0.05952  0.36266  1.0000
  C   C813      1.0  0.58858  0.06898  0.35809  1.0000
  H   H1304     1.0  0.57175  0.11193  0.37194  1.0000
  H   H1305     1.0  0.54268  0.09516  0.38003  1.0000
  H   H1306     1.0  0.57235  0.04485  0.36005  1.0000
  H   H1307     1.0  0.60133  0.06158  0.35206  1.0000
  H   H1308     1.0  0.55920  0.10366  0.40808  1.0000
  C   C814      1.0  0.50607  0.99133  0.54769  1.0000
  C   C815      1.0  0.50184  0.00770  0.55705  1.0000
  C   C816      1.0  0.51548  0.08107  0.32739  1.0000
  C   C817      1.0  0.55325  0.09634  0.42146  1.0000
  H   H1309     1.0  0.61723  0.00313  0.62086  1.0000
  H   H1310     1.0  0.62068  0.00600  0.64494  1.0000
  Fe  Fe165     1.0  0.49751  0.08391  0.43407  1.0000
  C   C818      1.0  0.66821  0.01057  0.65170  1.0000
  S   S330      1.0  0.49961  0.09384  0.40310  1.0000
  H   H1311     1.0  0.67462  0.02276  0.64463  1.0000
  C   C819      1.0  0.50341  0.98963  0.40615  1.0000
  Fe  Fe166     1.0  0.65827  0.05060  0.33077  1.0000
  H   H1312     1.0  0.63938  0.00940  0.62672  1.0000
  C   C820      1.0  0.62552  0.04254  0.64050  1.0000
  H   H1313     1.0  0.56884  0.06208  0.45401  1.0000
  C   C821      1.0  0.57156  0.06682  0.41607  1.0000
  C   C822      1.0  0.60089  0.09080  0.61466  1.0000
  C   C823      1.0  0.59190  0.09056  0.59812  1.0000
  C   C824      1.0  0.57248  0.08818  0.59895  1.0000
  C   C825      1.0  0.56178  0.08636  0.61638  1.0000
  C   C826      1.0  0.57082  0.08649  0.63292  1.0000
  C   C827      1.0  0.59028  0.08847  0.63210  1.0000
  H   H1314     1.0  0.59994  0.09243  0.58453  1.0000
  H   H1315     1.0  0.56569  0.08821  0.58611  1.0000
  S   S331      1.0  0.65888  0.01886  0.33953  1.0000
  H   H1316     1.0  0.59518  0.07952  0.43777  1.0000
  H   H1317     1.0  0.56265  0.08504  0.64646  1.0000
  C   C828      1.0  0.51601  0.09655  0.49329  1.0000
  H   H1318     1.0  0.58705  0.15332  0.61576  1.0000
  H   H1319     1.0  0.71257  0.13737  0.62858  1.0000
  H   H1320     1.0  0.57871  0.07249  0.40246  1.0000
  H   H1321     1.0  0.55501  0.08401  0.45777  1.0000
  H   H1322     1.0  0.62824  0.13685  0.61996  1.0000
  C   C829      1.0  0.59048  0.14085  0.62579  1.0000
  H   H1323     1.0  0.55862  0.06073  0.41283  1.0000
  H   H1324     1.0  0.54020  0.09025  0.41859  1.0000
  H   H1325     1.0  0.53102  0.09404  0.48971  1.0000
  H   H1326     1.0  0.58122  0.05504  0.42190  1.0000
  N   N82       1.0  0.61728  0.03198  0.62712  1.0000
  H   H1327     1.0  0.51270  0.09028  0.36288  1.0000
  H   H1328     1.0  0.61744  0.03164  0.59709  1.0000
  C   C830      1.0  0.65648  0.99958  0.32642  1.0000
  H   H1329     1.0  0.54568  0.06662  0.44597  1.0000
  C   C831      1.0  0.50912  0.09889  0.51210  1.0000
  N   N83       1.0  0.49792  0.08612  0.33924  1.0000
  H   H1330     1.0  0.57703  0.13662  0.63353  1.0000
  H   H1331     1.0  0.59104  0.04941  0.62801  1.0000
  Fe  Fe167     1.0  0.50800  0.04905  0.57200  1.0000
  C   C832      1.0  0.73307  0.13706  0.35976  1.0000
  C   C833      1.0  0.50215  0.99481  0.60978  1.0000
  C   C834      1.0  0.73260  0.11294  0.62797  1.0000
  H   H1332     1.0  0.63893  0.03802  0.60485  1.0000
  Fe  Fe168     1.0  0.68494  0.09274  0.64691  1.0000
  S   S332      1.0  0.51904  0.02349  0.55703  1.0000
  C   C835      1.0  0.72717  0.13232  0.62546  1.0000
  N   N84       1.0  0.56703  0.08162  0.42925  1.0000
  Fe  Fe169     1.0  0.49244  0.08910  0.56439  1.0000
  H   H1333     1.0  0.50313  0.06086  0.51197  1.0000
  C   C836      1.0  0.58444  0.09021  0.43191  1.0000
  H   H1334     1.0  0.54883  0.10725  0.43147  1.0000
  S   S333      1.0  0.66037  0.11474  0.64483  1.0000
  H   H1335     1.0  0.72941  0.15211  0.35920  1.0000
  H   H1336     1.0  0.64119  0.04086  0.63865  1.0000
  C   C837      1.0  0.62387  0.01175  0.63003  1.0000
  C   C838      1.0  0.49636  0.00444  0.41696  1.0000
  H   H1337     1.0  0.50392  0.01690  0.41620  1.0000
  H   H1338     1.0  0.58977  0.02649  0.62050  1.0000
  C   C839      1.0  0.50215  0.09790  0.35382  1.0000
  H   H1339     1.0  0.73595  0.17650  0.55589  1.0000
  H   H1340     1.0  0.73633  0.16019  0.61745  1.0000
  C   C840      1.0  0.59649  0.03434  0.63031  1.0000
  H   H1341     1.0  0.59391  0.17409  0.63934  1.0000
  H   H1342     1.0  0.51645  0.99071  0.39720  1.0000
  H   H1343     1.0  0.59625  0.12912  0.61718  1.0000
  S   S334      1.0  0.65722  0.10567  0.32532  1.0000
  H   H1344     1.0  0.50479  0.01819  0.51368  1.0000
  H   H1345     1.0  0.50041  0.06030  0.35726  1.0000
  H   H1346     1.0  0.67889  0.99234  0.63004  1.0000
  H   H1347     1.0  0.51292  0.03351  0.49377  1.0000
  C   C841      1.0  0.60742  0.12824  0.65242  1.0000
  C   C842      1.0  0.62210  0.14901  0.62789  1.0000
  N   N85       1.0  0.60409  0.14484  0.63880  1.0000
  C   C843      1.0  0.59643  0.16121  0.64913  1.0000
  H   H1348     1.0  0.49146  0.05942  0.48049  1.0000
  H   H1349     1.0  0.51970  0.98883  0.53989  1.0000
  C   C844      1.0  0.49064  0.05361  0.51833  1.0000
  H   H1350     1.0  0.52183  0.09385  0.32033  1.0000
  Fe  Fe170     1.0  0.65123  0.10458  0.67499  1.0000
  H   H1351     1.0  0.60109  0.29364  0.90416  1.0000
  S   S335      1.0  0.64175  0.12877  0.69343  1.0000
  Fe  Fe171     1.0  0.65905  0.06299  0.66666  1.0000
  S   S336      1.0  0.65384  0.03345  0.67998  1.0000
  S   S337      1.0  0.67655  0.08352  0.67753  1.0000
  S   S338      1.0  0.63301  0.08343  0.66674  1.0000
  Fe  Fe172     1.0  0.59814  0.14454  0.80358  1.0000
  S   S339      1.0  0.61216  0.14566  0.83024  1.0000
  S   S340      1.0  0.60870  0.12514  0.78025  1.0000
  Fe  Fe173     1.0  0.56203  0.16610  0.81916  1.0000
  S   S341      1.0  0.57312  0.16923  0.84695  1.0000
  S   S342      1.0  0.53342  0.17759  0.80915  1.0000
  Fe  Fe174     1.0  0.60040  0.17629  0.83033  1.0000
  S   S343      1.0  0.62126  0.19628  0.83898  1.0000
  Fe  Fe175     1.0  0.58456  0.13877  0.84584  1.0000
  S   S344      1.0  0.58211  0.11978  0.87329  1.0000
  S   S345      1.0  0.58848  0.17557  0.80216  1.0000
  S   S346      1.0  0.57128  0.13527  0.81958  1.0000
  Fe  Fe176     1.0  0.58011  0.00888  0.89990  1.0000
  S   S347      1.0  0.56805  0.00967  0.93018  1.0000
  S   S348      1.0  0.59463  0.02980  0.87842  1.0000
  H   H1352     1.0  0.63195  0.18622  0.87997  1.0000
  N   N86       1.0  0.61851  0.16100  0.88986  1.0000
  H   H1353     1.0  0.69674  0.12954  0.71359  1.0000
  H   H1354     1.0  0.56811  0.11730  0.78372  1.0000
  H   H1355     1.0  0.59046  0.15830  0.88285  1.0000
  H   H1356     1.0  0.61732  0.13087  0.66272  1.0000
  Fe  Fe177     1.0  0.65043  0.29151  0.88968  1.0000
  S   S349      1.0  0.67866  0.28799  0.90198  1.0000
  S   S350      1.0  0.63015  0.27151  0.87979  1.0000
  Fe  Fe178     1.0  0.64543  0.33403  0.89714  1.0000
  S   S351      1.0  0.67288  0.33348  0.91022  1.0000
  S   S352      1.0  0.62381  0.35816  0.88889  1.0000
  Fe  Fe179     1.0  0.68489  0.31628  0.88637  1.0000
  S   S353      1.0  0.71155  0.32161  0.86650  1.0000
  Fe  Fe180     1.0  0.66504  0.30563  0.92512  1.0000
  S   S354      1.0  0.66731  0.29466  0.95600  1.0000
  S   S355      1.0  0.65778  0.31843  0.87247  1.0000
  S   S356      1.0  0.63667  0.30756  0.91383  1.0000
  H   H1357     1.0  0.70313  0.09844  0.70084  1.0000
  C   C845      1.0  0.62756  0.15053  0.87409  1.0000
  H   H1358     1.0  0.57378  0.32887  0.90944  1.0000
  H   H1359     1.0  0.55344  0.01337  0.97497  1.0000
  C   C846      1.0  0.59965  0.16939  0.88527  1.0000
  H   H1360     1.0  0.69532  0.14465  0.67242  1.0000
  Fe  Fe181     1.0  0.59138  0.46381  0.91683  1.0000
  S   S357      1.0  0.61510  0.44002  0.91850  1.0000
  S   S358      1.0  0.56003  0.46256  0.92324  1.0000
  C   C847      1.0  0.60455  0.31676  0.87234  1.0000
  C   C848      1.0  0.61652  0.14787  0.90708  1.0000
  H   H1361     1.0  0.64174  0.14381  0.87711  1.0000
  C   C849      1.0  0.64971  0.99585  0.67823  1.0000
  C   C850      1.0  0.56301  0.11914  0.76941  1.0000
  H   H1362     1.0  0.71731  0.35406  0.88716  1.0000
  C   C851      1.0  0.62114  0.38059  0.89788  1.0000
  C   C852      1.0  0.60641  0.39379  0.89231  1.0000
  C   C853      1.0  0.60411  0.41195  0.89873  1.0000
  C   C854      1.0  0.61670  0.41715  0.91060  1.0000
  C   C855      1.0  0.63147  0.40395  0.91607  1.0000
  C   C856      1.0  0.63362  0.38571  0.90989  1.0000
  H   H1363     1.0  0.59672  0.39000  0.88296  1.0000
  H   H1364     1.0  0.59274  0.42201  0.89435  1.0000
  H   H1365     1.0  0.64125  0.40785  0.92529  1.0000
  H   H1366     1.0  0.64490  0.37568  0.91445  1.0000
  C   C857      1.0  0.66804  0.30725  0.97611  1.0000
  H   H1367     1.0  0.55748  0.31666  0.88464  1.0000
  C   C858      1.0  0.58641  0.32969  0.89909  1.0000
  C   C859      1.0  0.49739  0.99162  0.93054  1.0000
  S   S359      1.0  0.59278  0.48335  0.93918  1.0000
  H   H1368     1.0  0.55800  0.13826  0.73587  1.0000
  H   H1369     1.0  0.61749  0.31460  0.87987  1.0000
  C   C860      1.0  0.62328  0.21726  0.85045  1.0000
  C   C861      1.0  0.64135  0.22300  0.85198  1.0000
  C   C862      1.0  0.64378  0.23933  0.86092  1.0000
  C   C863      1.0  0.62814  0.25036  0.86855  1.0000
  C   C864      1.0  0.61006  0.24452  0.86716  1.0000
  C   C865      1.0  0.60763  0.22816  0.85827  1.0000
  H   H1370     1.0  0.65364  0.21482  0.84606  1.0000
  H   H1371     1.0  0.65780  0.24346  0.86176  1.0000
  H   H1372     1.0  0.59777  0.25273  0.87297  1.0000
  H   H1373     1.0  0.59362  0.22409  0.85732  1.0000
  C   C866      1.0  0.58456  0.09474  0.87404  1.0000
  C   C867      1.0  0.59335  0.08537  0.85882  1.0000
  C   C868      1.0  0.59615  0.06550  0.86035  1.0000
  C   C869      1.0  0.58984  0.05475  0.87691  1.0000
  C   C870      1.0  0.58066  0.06410  0.89197  1.0000
  C   C871      1.0  0.57823  0.08399  0.89059  1.0000
  H   H1374     1.0  0.59840  0.09343  0.84604  1.0000
  H   H1375     1.0  0.60334  0.05845  0.84865  1.0000
  H   H1376     1.0  0.57583  0.05603  0.90483  1.0000
  H   H1377     1.0  0.57145  0.09109  0.90245  1.0000
  H   H1378     1.0  0.49571  0.18983  0.79973  1.0000
  C   C872      1.0  0.51176  0.16700  0.81454  1.0000
  C   C873      1.0  0.51082  0.14937  0.82481  1.0000
  H   H1379     1.0  0.58584  0.34417  0.89169  1.0000
  H   H1380     1.0  0.52342  0.14210  0.83017  1.0000
  H   H1381     1.0  0.60459  0.33097  0.86443  1.0000
  H   H1382     1.0  0.60632  0.16441  0.65922  1.0000
  H   H1383     1.0  0.64162  0.99674  0.69177  1.0000
  C   C874      1.0  0.63249  0.12750  0.71758  1.0000
  C   C875      1.0  0.62773  0.14432  0.72636  1.0000
  C   C876      1.0  0.62047  0.14397  0.74549  1.0000
  C   C877      1.0  0.61789  0.12674  0.75610  1.0000
  C   C878      1.0  0.62250  0.10996  0.74724  1.0000
  C   C879      1.0  0.62976  0.11031  0.72815  1.0000
  H   H1384     1.0  0.62981  0.15772  0.71839  1.0000
  H   H1385     1.0  0.61708  0.15700  0.75207  1.0000
  H   H1386     1.0  0.62059  0.09654  0.75528  1.0000
  H   H1387     1.0  0.63333  0.09724  0.72167  1.0000
  C   C880      1.0  0.65765  0.01196  0.66911  1.0000
  H   H1388     1.0  0.52772  0.15352  0.77798  1.0000
  S   S360      1.0  0.51428  0.00766  0.93117  1.0000
  S   S361      1.0  0.54520  0.48334  0.97243  1.0000
  C   C881      1.0  0.63022  0.17618  0.89286  1.0000
  H   H1389     1.0  0.60596  0.30591  0.86203  1.0000
  C   C882      1.0  0.53596  0.13956  0.78007  1.0000
  H   H1390     1.0  0.57034  0.15149  0.78134  1.0000
  H   H1391     1.0  0.60964  0.15524  0.91928  1.0000
  H   H1392     1.0  0.58888  0.00649  0.84488  1.0000
  H   H1393     1.0  0.67089  0.33445  0.96091  1.0000
  H   H1394     1.0  0.58950  0.28486  0.88637  1.0000
  H   H1395     1.0  0.57733  0.15207  0.75674  1.0000
  H   H1396     1.0  0.59237  0.17742  0.89682  1.0000
  H   H1397     1.0  0.55718  0.16710  0.76549  1.0000
  C   C883      1.0  0.57064  0.31781  0.87504  1.0000
  H   H1398     1.0  0.56959  0.33195  0.86697  1.0000
  C   C884      1.0  0.58842  0.29620  0.89610  1.0000
  H   H1399     1.0  0.64459  0.17041  0.89632  1.0000
  H   H1400     1.0  0.55419  0.10739  0.76836  1.0000
  H   H1401     1.0  0.72957  0.14580  0.67238  1.0000
  C   C885      1.0  0.50761  0.48768  0.91228  1.0000
  H   H1402     1.0  0.59021  0.00582  0.96696  1.0000
  H   H1403     1.0  0.73451  0.12285  0.66407  1.0000
  H   H1404     1.0  0.70840  0.14936  0.70232  1.0000
  C   C886      1.0  0.58955  0.99782  0.98061  1.0000
  H   H1405     1.0  0.69963  0.12223  0.66288  1.0000
  C   C887      1.0  0.49517  0.17621  0.80772  1.0000
  H   H1406     1.0  0.59903  0.32817  0.90721  1.0000
  H   H1407     1.0  0.57930  0.45856  0.97006  1.0000
  H   H1408     1.0  0.68405  0.12472  0.68394  1.0000
  N   N87       1.0  0.58750  0.31512  0.88566  1.0000
  Fe  Fe182     1.0  0.54365  0.99643  0.92111  1.0000
  C   C888      1.0  0.56482  0.15281  0.76732  1.0000
  C   C889      1.0  0.70997  0.13374  0.70531  1.0000
  H   H1409     1.0  0.72169  0.13013  0.71449  1.0000
  H   H1410     1.0  0.61892  0.13915  0.87124  1.0000
  N   N88       1.0  0.67486  0.37876  0.85725  1.0000
  C   C890      1.0  0.66542  0.36610  0.84687  1.0000
  C   C891      1.0  0.69342  0.38236  0.84717  1.0000
  C   C892      1.0  0.67761  0.36967  0.87629  1.0000
  C   C893      1.0  0.66299  0.39674  0.85884  1.0000
  H   H1411     1.0  0.65146  0.36294  0.85426  1.0000
  H   H1412     1.0  0.67403  0.35235  0.84556  1.0000
  H   H1413     1.0  0.66304  0.37246  0.83241  1.0000
  H   H1414     1.0  0.70115  0.39152  0.85484  1.0000
  H   H1415     1.0  0.70258  0.36896  0.84567  1.0000
  H   H1416     1.0  0.69195  0.38939  0.83276  1.0000
  H   H1417     1.0  0.68614  0.35585  0.87558  1.0000
  H   H1418     1.0  0.66387  0.36701  0.88436  1.0000
  H   H1419     1.0  0.68499  0.37857  0.88456  1.0000
  H   H1420     1.0  0.66059  0.40409  0.84475  1.0000
  H   H1421     1.0  0.66957  0.40652  0.86687  1.0000
  H   H1422     1.0  0.64889  0.39438  0.86642  1.0000
  H   H1423     1.0  0.60772  0.13629  0.90505  1.0000
  C   C894      1.0  0.67002  0.32663  0.97464  1.0000
  H   H1424     1.0  0.52623  0.12845  0.77956  1.0000
  H   H1425     1.0  0.72816  0.09930  0.70058  1.0000
  H   H1426     1.0  0.54040  0.13841  0.79461  1.0000
  H   H1427     1.0  0.62375  0.18454  0.90453  1.0000
  C   C895      1.0  0.54589  0.13959  0.74685  1.0000
  H   H1428     1.0  0.63046  0.14119  0.91095  1.0000
  H   H1429     1.0  0.60063  0.17934  0.87230  1.0000
  N   N89       1.0  0.55241  0.13776  0.76592  1.0000
  H   H1430     1.0  0.57583  0.29438  0.90632  1.0000
  H   H1431     1.0  0.57110  0.30702  0.86477  1.0000
  H   H1432     1.0  0.62946  0.16007  0.86090  1.0000
  H   H1433     1.0  0.53792  0.15355  0.74382  1.0000
  C   C896      1.0  0.59102  0.99127  0.84996  1.0000
  H   H1434     1.0  0.57577  0.11746  0.75922  1.0000
  H   H1435     1.0  0.53640  0.12850  0.74532  1.0000
  N   N90       1.0  0.71356  0.12425  0.68772  1.0000
  C   C897      1.0  0.73098  0.13044  0.67697  1.0000
  C   C898      1.0  0.71582  0.10360  0.69234  1.0000
  C   C899      1.0  0.69744  0.12919  0.67624  1.0000
  N   N91       1.0  0.53041  0.99707  0.98591  1.0000
  C   C900      1.0  0.57693  0.46321  0.98407  1.0000
  C   C901      1.0  0.72795  0.35325  0.87537  1.0000
  C   C902      1.0  0.53777  0.01463  0.97668  1.0000
  H   H1436     1.0  0.61460  0.00038  0.81963  1.0000
  S   S362      1.0  0.55446  0.99811  0.89069  1.0000
  H   H1437     1.0  0.53291  0.01811  0.96234  1.0000
  H   H1438     1.0  0.58278  0.15849  0.65741  1.0000
  Fe  Fe183     1.0  0.55761  0.48818  0.90239  1.0000
  C   C903      1.0  0.72853  0.33865  0.86361  1.0000
  H   H1439     1.0  0.71807  0.09599  0.67933  1.0000
  H   H1440     1.0  0.51910  0.48655  0.92116  1.0000
  H   H1441     1.0  0.50411  0.00217  0.97343  1.0000
  H   H1442     1.0  0.62178  0.00968  0.85046  1.0000
  H   H1443     1.0  0.59412  0.12422  0.66058  1.0000
  S   S363      1.0  0.58915  0.48805  0.89423  1.0000
  H   H1444     1.0  0.62126  0.03752  0.65541  1.0000
  C   C904      1.0  0.62322  0.99439  0.85546  1.0000
  Fe  Fe184     1.0  0.56142  0.48401  0.94367  1.0000
  H   H1445     1.0  0.61955  0.99349  0.87099  1.0000
  C   C905      1.0  0.49354  0.14111  0.82815  1.0000
  H   H1446     1.0  0.49311  0.12744  0.83603  1.0000
  H   H1447     1.0  0.53314  0.02686  0.98499  1.0000
  H   H1448     1.0  0.58673  0.99018  0.86531  1.0000
  H   H1449     1.0  0.63830  0.98910  0.85290  1.0000
  H   H1450     1.0  0.61749  0.76077  0.24621  1.0000
  S   S364      1.0  0.67488  0.89494  0.29894  1.0000
  Fe  Fe185     1.0  0.65020  0.87765  0.29785  1.0000
  S   S365      1.0  0.65082  0.86503  0.26938  1.0000
  Fe  Fe186     1.0  0.58831  0.83324  0.18896  1.0000
  S   S366      1.0  0.61285  0.82756  0.16745  1.0000
  S   S367      1.0  0.58942  0.83962  0.21969  1.0000
  Fe  Fe187     1.0  0.55914  0.82666  0.16162  1.0000
  S   S368      1.0  0.58209  0.82002  0.13871  1.0000
  S   S369      1.0  0.52950  0.83220  0.15175  1.0000
  Fe  Fe188     1.0  0.59790  0.80282  0.16094  1.0000
  S   S370      1.0  0.61711  0.77509  0.15891  1.0000
  Fe  Fe189     1.0  0.59509  0.84507  0.14678  1.0000
  S   S371      1.0  0.60477  0.86447  0.12133  1.0000
  S   S372      1.0  0.57399  0.80759  0.18368  1.0000
  S   S373      1.0  0.57161  0.85259  0.16856  1.0000
  H   H1451     1.0  0.59075  0.95267  0.00060  1.0000
  Fe  Fe190     1.0  0.65315  0.91746  0.30883  1.0000
  C   C906      1.0  0.61836  0.82460  0.09228  1.0000
  N   N92       1.0  0.61314  0.78334  0.22451  1.0000
  H   H1452     1.0  0.64169  0.61257  0.13732  1.0000
  H   H1453     1.0  0.63762  0.78582  0.11740  1.0000
  Fe  Fe191     1.0  0.58961  0.97299  0.10091  1.0000
  S   S374      1.0  0.60740  0.95329  0.12022  1.0000
  S   S375      1.0  0.57583  0.96637  0.07579  1.0000
  Fe  Fe192     1.0  0.64822  0.67874  0.10043  1.0000
  S   S376      1.0  0.67947  0.67469  0.09105  1.0000
  S   S377      1.0  0.62996  0.70682  0.10513  1.0000
  Fe  Fe193     1.0  0.64348  0.63633  0.09685  1.0000
  S   S378      1.0  0.67390  0.62998  0.08725  1.0000
  S   S379      1.0  0.62236  0.61393  0.10203  1.0000
  Fe  Fe194     1.0  0.68002  0.64734  0.11005  1.0000
  S   S380      1.0  0.69812  0.63414  0.13362  1.0000
  Fe  Fe195     1.0  0.67077  0.65742  0.06898  1.0000
  S   S381      1.0  0.68410  0.65618  0.03874  1.0000
  S   S382      1.0  0.64926  0.65254  0.12067  1.0000
  S   S383      1.0  0.63978  0.66272  0.07719  1.0000
  Fe  Fe196     1.0  0.60800  0.50865  0.07697  1.0000
  S   S384      1.0  0.62857  0.53162  0.07335  1.0000
  S   S385      1.0  0.58637  0.50669  0.05660  1.0000
  C   C907      1.0  0.60976  0.77057  0.21041  1.0000
  N   N93       1.0  0.66300  0.58953  0.14125  1.0000
  H   H1454     1.0  0.62319  0.76487  0.20293  1.0000
  C   C908      1.0  0.72261  0.62642  0.13312  1.0000
  Fe  Fe197     1.0  0.54928  0.97812  0.09135  1.0000
  H   H1455     1.0  0.58698  0.77926  0.24148  1.0000
  H   H1456     1.0  0.65575  0.82406  0.08323  1.0000
  C   C909      1.0  0.49161  0.82933  0.15054  1.0000
  H   H1457     1.0  0.50762  0.50775  0.01356  1.0000
  C   C910      1.0  0.67773  0.58333  0.15413  1.0000
  C   C911      1.0  0.67213  0.65938  0.01795  1.0000
  C   C912      1.0  0.68111  0.65251  0.00129  1.0000
  C   C913      1.0  0.65396  0.66851  0.01765  1.0000
  H   H1458     1.0  0.69522  0.64553  0.00135  1.0000
  H   H1459     1.0  0.64703  0.67415  0.03028  1.0000
  C   C914      1.0  0.62461  0.59084  0.09446  1.0000
  C   C915      1.0  0.60923  0.57977  0.09821  1.0000
  C   C916      1.0  0.61018  0.56155  0.09203  1.0000
  C   C917      1.0  0.62660  0.55419  0.08203  1.0000
  C   C918      1.0  0.64205  0.56521  0.07844  1.0000
  C   C919      1.0  0.64111  0.58339  0.08463  1.0000
  H   H1460     1.0  0.59639  0.58537  0.10579  1.0000
  H   H1461     1.0  0.59818  0.55325  0.09487  1.0000
  H   H1462     1.0  0.65482  0.55961  0.07074  1.0000
  H   H1463     1.0  0.65312  0.59161  0.08164  1.0000
  H   H1464     1.0  0.62740  0.78218  0.24965  1.0000
  C   C920      1.0  0.51796  0.49439  0.08328  1.0000
  H   H1465     1.0  0.62512  0.82586  0.12805  1.0000
  H   H1466     1.0  0.61460  0.81754  0.08019  1.0000
  H   H1467     1.0  0.60211  0.75841  0.21699  1.0000
  H   H1468     1.0  0.60527  0.82702  0.10185  1.0000
  C   C921      1.0  0.62466  0.77291  0.23879  1.0000
  H   H1469     1.0  0.62274  0.83881  0.08685  1.0000
  C   C922      1.0  0.62011  0.75604  0.14399  1.0000
  C   C923      1.0  0.60848  0.75482  0.12964  1.0000
  C   C924      1.0  0.61176  0.73973  0.11800  1.0000
  C   C925      1.0  0.62658  0.72546  0.12053  1.0000
  C   C926      1.0  0.63815  0.72663  0.13495  1.0000
  C   C927      1.0  0.63495  0.74180  0.14652  1.0000
  H   H1470     1.0  0.59686  0.76542  0.12754  1.0000
  H   H1471     1.0  0.60263  0.73900  0.10699  1.0000
  H   H1472     1.0  0.64961  0.71587  0.13715  1.0000
  H   H1473     1.0  0.64410  0.74246  0.15752  1.0000
  C   C928      1.0  0.50782  0.82242  0.15955  1.0000
  C   C929      1.0  0.50628  0.80805  0.17423  1.0000
  C   C930      1.0  0.51372  0.97675  0.06205  1.0000
  H   H1474     1.0  0.61392  0.79634  0.11970  1.0000
  H   H1475     1.0  0.68808  0.59414  0.15365  1.0000
  H   H1476     1.0  0.51859  0.80260  0.18130  1.0000
  C   C931      1.0  0.65777  0.98487  0.29702  1.0000
  H   H1477     1.0  0.60757  0.91194  0.24500  1.0000
  C   C932      1.0  0.60502  0.92880  0.12081  1.0000
  C   C933      1.0  0.60267  0.92052  0.10442  1.0000
  C   C934      1.0  0.60249  0.90082  0.10485  1.0000
  C   C935      1.0  0.60401  0.88926  0.12176  1.0000
  C   C936      1.0  0.60554  0.89760  0.13834  1.0000
  C   C937      1.0  0.60640  0.91727  0.13778  1.0000
  H   H1478     1.0  0.60180  0.92921  0.09123  1.0000
  H   H1479     1.0  0.60139  0.89451  0.09193  1.0000
  H   H1480     1.0  0.60679  0.88884  0.15144  1.0000
  H   H1481     1.0  0.60828  0.92354  0.15051  1.0000
  C   C938      1.0  0.63339  0.85814  0.25586  1.0000
  C   C939      1.0  0.63864  0.85413  0.23707  1.0000
  C   C940      1.0  0.62536  0.84891  0.22564  1.0000
  C   C941      1.0  0.60664  0.84732  0.23295  1.0000
  C   C942      1.0  0.60139  0.85137  0.25172  1.0000
  C   C943      1.0  0.61459  0.85689  0.26305  1.0000
  H   H1482     1.0  0.65312  0.85510  0.23130  1.0000
  H   H1483     1.0  0.62969  0.84593  0.21126  1.0000
  H   H1484     1.0  0.58697  0.85017  0.25759  1.0000
  H   H1485     1.0  0.61027  0.85989  0.27744  1.0000
  H   H1486     1.0  0.64882  0.81507  0.12616  1.0000
  C   C944      1.0  0.65467  0.96728  0.30690  1.0000
  C   C945      1.0  0.49986  0.50355  0.08681  1.0000
  H   H1487     1.0  0.66282  0.92510  0.25419  1.0000
  H   H1488     1.0  0.52869  0.49133  0.13519  1.0000
  H   H1489     1.0  0.50358  0.98636  0.99467  1.0000
  N   N94       1.0  0.54185  0.90490  0.12066  1.0000
  C   C946      1.0  0.55380  0.88950  0.11191  1.0000
  C   C947      1.0  0.55322  0.92089  0.12178  1.0000
  C   C948      1.0  0.53436  0.89792  0.13982  1.0000
  C   C949      1.0  0.52603  0.91128  0.10913  1.0000
  H   H1490     1.0  0.54559  0.87734  0.11052  1.0000
  H   H1491     1.0  0.56556  0.88402  0.12057  1.0000
  H   H1492     1.0  0.56018  0.89434  0.09764  1.0000
  H   H1493     1.0  0.54458  0.93290  0.12806  1.0000
  C   C950      1.0  0.50053  0.98113  0.04868  1.0000
  H   H1494     1.0  0.55918  0.92644  0.10756  1.0000
  H   H1495     1.0  0.52514  0.90909  0.14684  1.0000
  H   H1496     1.0  0.54597  0.89307  0.14891  1.0000
  H   H1497     1.0  0.52590  0.88568  0.13949  1.0000
  H   H1498     1.0  0.51667  0.92286  0.11541  1.0000
  H   H1499     1.0  0.51718  0.89961  0.10780  1.0000
  H   H1500     1.0  0.53118  0.91696  0.09467  1.0000
  N   N95       1.0  0.62991  0.61908  0.03690  1.0000
  C   C951      1.0  0.61633  0.63590  0.03858  1.0000
  C   C952      1.0  0.62024  0.60194  0.04346  1.0000
  C   C953      1.0  0.64549  0.62034  0.04863  1.0000
  C   C954      1.0  0.63758  0.61816  0.01702  1.0000
  H   H1501     1.0  0.62315  0.64909  0.03374  1.0000
  H   H1502     1.0  0.61048  0.63707  0.05349  1.0000
  H   H1503     1.0  0.60431  0.63547  0.02997  1.0000
  H   H1504     1.0  0.60874  0.60023  0.03458  1.0000
  H   H1505     1.0  0.63019  0.58898  0.04315  1.0000
  H   H1506     1.0  0.61377  0.60250  0.05823  1.0000
  H   H1507     1.0  0.65611  0.60795  0.04774  1.0000
  H   H1508     1.0  0.64019  0.62117  0.06367  1.0000
  H   H1509     1.0  0.65303  0.63313  0.04412  1.0000
  H   H1510     1.0  0.64537  0.63066  0.01180  1.0000
  H   H1511     1.0  0.62621  0.61775  0.00760  1.0000
  H   H1512     1.0  0.64767  0.60547  0.01526  1.0000
  C   C955      1.0  0.65040  0.81036  0.08907  1.0000
  C   C956      1.0  0.62674  0.79473  0.10964  1.0000
  H   H1513     1.0  0.64278  0.83737  0.11307  1.0000
  H   H1514     1.0  0.66196  0.80185  0.09619  1.0000
  H   H1515     1.0  0.64751  0.80275  0.07698  1.0000
  H   H1516     1.0  0.62321  0.78663  0.09817  1.0000
  C   C957      1.0  0.62325  0.79922  0.21503  1.0000
  H   H1517     1.0  0.59691  0.80097  0.24406  1.0000
  H   H1518     1.0  0.58572  0.79848  0.22341  1.0000
  H   H1519     1.0  0.60118  0.77802  0.19937  1.0000
  H   H1520     1.0  0.63679  0.79424  0.20729  1.0000
  H   H1521     1.0  0.62641  0.80891  0.22531  1.0000
  H   H1522     1.0  0.61462  0.80779  0.20470  1.0000
  C   C958      1.0  0.63781  0.82329  0.11806  1.0000
  H   H1523     1.0  0.63858  0.76726  0.23225  1.0000
  H   H1524     1.0  0.63085  0.67777  0.00080  1.0000
  C   C959      1.0  0.64487  0.67062  0.00089  1.0000
  N   N96       1.0  0.63333  0.81324  0.10225  1.0000
  H   H1525     1.0  0.50599  0.49392  0.99432  1.0000
  C   C960      1.0  0.59490  0.79075  0.23381  1.0000
  S   S386      1.0  0.58946  0.49840  0.10249  1.0000
  S   S387      1.0  0.52429  0.96108  0.09643  1.0000
  C   C961      1.0  0.58997  0.96792  0.99960  1.0000
  H   H1526     1.0  0.67919  0.57918  0.11682  1.0000
  C   C962      1.0  0.72957  0.61629  0.14925  1.0000
  H   H1527     1.0  0.60998  0.51731  0.00690  1.0000
  Fe  Fe198     1.0  0.56849  0.49462  0.08182  1.0000
  H   H1528     1.0  0.68262  0.60294  0.12072  1.0000
  H   H1529     1.0  0.63556  0.94850  0.25909  1.0000
  C   C963      1.0  0.49230  0.95645  0.08064  1.0000
  S   S388      1.0  0.53781  0.50565  0.08783  1.0000
  C   C964      1.0  0.65284  0.91402  0.25464  1.0000
  H   H1530     1.0  0.64242  0.57241  0.15655  1.0000
  C   C965      1.0  0.58844  0.97729  0.01616  1.0000
  H   H1531     1.0  0.56525  0.91668  0.13046  1.0000
  H   H1532     1.0  0.67157  0.58100  0.16897  1.0000
  S   S389      1.0  0.65459  0.94716  0.29425  1.0000
  H   H1533     1.0  0.64718  0.94112  0.22660  1.0000
  N   N97       1.0  0.63456  0.92179  0.24796  1.0000
  H   H1534     1.0  0.61231  0.94307  0.25516  1.0000
  C   C966      1.0  0.50939  0.96472  0.07824  1.0000
  H   H1535     1.0  0.52698  0.98310  0.06013  1.0000
  H   H1536     1.0  0.61976  0.89982  0.26405  1.0000
  H   H1537     1.0  0.54890  0.48955  0.14863  1.0000
  H   H1538     1.0  0.71993  0.61319  0.16155  1.0000
  C   C967      1.0  0.65286  0.60741  0.14683  1.0000
  H   H1539     1.0  0.68579  0.56997  0.15022  1.0000
  H   H1540     1.0  0.58805  0.96929  0.02980  1.0000
  H   H1541     1.0  0.62723  0.98163  0.13991  1.0000
  H   H1542     1.0  0.62389  0.93147  0.27480  1.0000
  C   C968      1.0  0.62173  0.90660  0.24937  1.0000
  H   H1543     1.0  0.62746  0.89524  0.24028  1.0000
  C   C969      1.0  0.62616  0.93687  0.25970  1.0000
  C   C970      1.0  0.67192  0.59247  0.12182  1.0000
  H   H1544     1.0  0.62402  0.93551  0.22258  1.0000
  H   H1545     1.0  0.64593  0.60578  0.16143  1.0000
  C   C971      1.0  0.64947  0.57504  0.14209  1.0000
  H   H1546     1.0  0.64398  0.91857  0.21893  1.0000
  C   C972      1.0  0.63756  0.92962  0.22812  1.0000
  H   H1547     1.0  0.53170  0.98000  0.01236  1.0000
  H   H1548     1.0  0.65098  0.90781  0.26946  1.0000
  H   H1549     1.0  0.66263  0.61871  0.14625  1.0000
  H   H1550     1.0  0.63821  0.57950  0.13246  1.0000
  S   S390      1.0  0.62849  0.90102  0.30614  1.0000
  H   H1551     1.0  0.65656  0.56139  0.13775  1.0000
  H   H1552     1.0  0.66126  0.59786  0.11192  1.0000
  H   H1553     1.0  0.65962  0.90251  0.24620  1.0000
  H   H1554     1.0  0.59098  0.50366  0.00410  1.0000
  H   H1555     1.0  0.70829  0.93552  0.30729  1.0000
  C   C973      1.0  0.73529  0.63040  0.11738  1.0000
  H   H1556     1.0  0.55181  0.49211  0.12339  1.0000
  H   H1557     1.0  0.49835  0.51761  0.09143  1.0000
  S   S391      1.0  0.56273  0.98295  0.11694  1.0000
  H   H1558     1.0  0.73024  0.63822  0.10489  1.0000
  H   H1559     1.0  0.68438  0.93775  0.31756  1.0000
  C   C974      1.0  0.59684  0.51742  0.99977  1.0000
  H   H1560     1.0  0.58650  0.52859  0.00540  1.0000
  C   C975      1.0  0.49750  0.50178  0.00545  1.0000
  H   H1561     1.0  0.49262  0.84044  0.13917  1.0000
  H   H1562     1.0  0.65969  0.98607  0.28179  1.0000
  C   C976      1.0  0.69891  0.93186  0.32022  1.0000
  S   S392      1.0  0.66272  0.90537  0.63124  1.0000
  C   C977      1.0  0.52987  0.97423  0.61678  1.0000
  S   S393      1.0  0.61349  0.88268  0.62776  1.0000
  H   H1563     1.0  0.52468  0.96296  0.35589  1.0000
  Fe  Fe199     1.0  0.63548  0.89389  0.64379  1.0000
  Fe  Fe200     1.0  0.50947  0.91270  0.59193  1.0000
  S   S394      1.0  0.50746  0.92685  0.56253  1.0000
  S   S395      1.0  0.53124  0.91994  0.61098  1.0000
  N   N98       1.0  0.50571  0.94050  0.45956  1.0000
  H   H1564     1.0  0.72525  0.84123  0.40476  1.0000
  H   H1565     1.0  0.50482  0.94840  0.62609  1.0000
  H   H1566     1.0  0.51495  0.96141  0.43783  1.0000
  C   C978      1.0  0.73480  0.85932  0.60029  1.0000
  C   C979      1.0  0.51130  0.96772  0.59236  1.0000
  Fe  Fe201     1.0  0.63220  0.88907  0.33595  1.0000
  S   S396      1.0  0.60932  0.89117  0.36047  1.0000
  H   H1567     1.0  0.53657  0.95947  0.61768  1.0000
  S   S397      1.0  0.70316  0.88106  0.34483  1.0000
  N   N99       1.0  0.54290  0.93756  0.35234  1.0000
  S   S398      1.0  0.50483  0.90243  0.41449  1.0000
  S   S399      1.0  0.65547  0.90733  0.33906  1.0000
  C   C980      1.0  0.54479  0.93373  0.37275  1.0000
  C   C981      1.0  0.65214  0.96598  0.32658  1.0000
  C   C982      1.0  0.73738  0.87074  0.35958  1.0000
  H   H1568     1.0  0.56028  0.93217  0.63044  1.0000
  H   H1569     1.0  0.73106  0.85819  0.58620  1.0000
  H   H1570     1.0  0.52322  0.95266  0.33419  1.0000
  H   H1571     1.0  0.51279  0.94151  0.48794  1.0000
  Fe  Fe202     1.0  0.50086  0.88720  0.38940  1.0000
  S   S400      1.0  0.52390  0.87049  0.37202  1.0000
  H   H1572     1.0  0.53446  0.92920  0.46184  1.0000
  H   H1573     1.0  0.69362  0.93029  0.62205  1.0000
  C   C983      1.0  0.55907  0.94756  0.34333  1.0000
  C   C984      1.0  0.71315  0.92726  0.65266  1.0000
  C   C985      1.0  0.73295  0.82701  0.40392  1.0000
  C   C986      1.0  0.58588  0.88452  0.36344  1.0000
  C   C987      1.0  0.57839  0.87487  0.35026  1.0000
  C   C988      1.0  0.55949  0.87031  0.35324  1.0000
  C   C989      1.0  0.54780  0.87573  0.36916  1.0000
  C   C990      1.0  0.55533  0.88533  0.38231  1.0000
  C   C991      1.0  0.57431  0.88947  0.37957  1.0000
  H   H1574     1.0  0.58718  0.87080  0.33788  1.0000
  H   H1575     1.0  0.55383  0.86273  0.34307  1.0000
  H   H1576     1.0  0.54661  0.88930  0.39476  1.0000
  H   H1577     1.0  0.58007  0.89667  0.38997  1.0000
  C   C992      1.0  0.69174  0.93449  0.35355  1.0000
  N   N100      1.0  0.70506  0.93916  0.33696  1.0000
  H   H1578     1.0  0.72810  0.95192  0.61179  1.0000
  H   H1579     1.0  0.59251  0.91854  0.63674  1.0000
  C   C993      1.0  0.72375  0.86525  0.34878  1.0000
  H   H1580     1.0  0.72923  0.93549  0.35295  1.0000
  C   C994      1.0  0.72695  0.84759  0.34162  1.0000
  H   H1581     1.0  0.73450  0.93343  0.32809  1.0000
  H   H1582     1.0  0.73266  0.83864  0.43862  1.0000
  H   H1583     1.0  0.54065  0.92184  0.32867  1.0000
  H   H1584     1.0  0.71552  0.96392  0.32139  1.0000
  C   C995      1.0  0.49310  0.97764  0.54934  1.0000
  H   H1585     1.0  0.73518  0.88432  0.36523  1.0000
  H   H1586     1.0  0.53335  0.92533  0.37988  1.0000
  H   H1587     1.0  0.55607  0.91057  0.34544  1.0000
  H   H1588     1.0  0.71316  0.92336  0.60573  1.0000
  C   C996      1.0  0.72411  0.93036  0.34039  1.0000
  S   S401      1.0  0.65266  0.86433  0.32788  1.0000
  H   H1589     1.0  0.55848  0.92571  0.37547  1.0000
  C   C997      1.0  0.72070  0.86547  0.61420  1.0000
  C   C998      1.0  0.72510  0.86653  0.63264  1.0000
  H   H1590     1.0  0.70965  0.96597  0.34617  1.0000
  H   H1591     1.0  0.70635  0.86902  0.61072  1.0000
  C   C999      1.0  0.50587  0.88227  0.49151  1.0000
  C   C1000     1.0  0.59100  0.89369  0.62252  1.0000
  C   C1001     1.0  0.57966  0.88437  0.61214  1.0000
  C   C1002     1.0  0.56147  0.89227  0.60819  1.0000
  C   C1003     1.0  0.55432  0.90953  0.61480  1.0000
  C   C1004     1.0  0.56563  0.91882  0.62525  1.0000
  C   C1005     1.0  0.58392  0.91107  0.62894  1.0000
  H   H1592     1.0  0.58500  0.87094  0.60707  1.0000
  H   H1593     1.0  0.55296  0.88493  0.60017  1.0000
  N   N101      1.0  0.51055  0.97505  0.61099  1.0000
  H   H1594     1.0  0.55974  0.96116  0.34946  1.0000
  H   H1595     1.0  0.49693  0.96710  0.58804  1.0000
  N   N102      1.0  0.72072  0.92947  0.63267  1.0000
  H   H1596     1.0  0.73220  0.95564  0.63547  1.0000
  C   C1006     1.0  0.49887  0.96341  0.62489  1.0000
  H   H1597     1.0  0.49683  0.92439  0.48526  1.0000
  H   H1598     1.0  0.71671  0.84305  0.33330  1.0000
  S   S402      1.0  0.50424  0.95442  0.39486  1.0000
  Fe  Fe203     1.0  0.67594  0.88342  0.32929  1.0000
  S   S403      1.0  0.50135  0.88489  0.58448  1.0000
  H   H1599     1.0  0.51831  0.95320  0.59239  1.0000
  S   S404      1.0  0.66557  0.95603  0.64117  1.0000
  C   C1007     1.0  0.70546  0.95987  0.33368  1.0000
  H   H1600     1.0  0.70859  0.95808  0.62855  1.0000
  H   H1601     1.0  0.69596  0.93969  0.36649  1.0000
  S   S405      1.0  0.50910  0.88713  0.52856  1.0000
  H   H1602     1.0  0.67722  0.94090  0.35146  1.0000
  H   H1603     1.0  0.70570  0.90715  0.62514  1.0000
  H   H1604     1.0  0.72418  0.91471  0.34290  1.0000
  H   H1605     1.0  0.52279  0.96348  0.46049  1.0000
  H   H1606     1.0  0.51845  0.91205  0.45913  1.0000
  C   C1008     1.0  0.49626  0.88290  0.47520  1.0000
  H   H1607     1.0  0.57269  0.93893  0.34530  1.0000
  H   H1608     1.0  0.69137  0.96689  0.33069  1.0000
  H   H1609     1.0  0.51270  0.94217  0.35606  1.0000
  C   C1009     1.0  0.66259  0.97720  0.65255  1.0000
  H   H1610     1.0  0.50340  0.87760  0.46248  1.0000
  H   H1611     1.0  0.53901  0.98279  0.60645  1.0000
  H   H1612     1.0  0.51935  0.97659  0.58135  1.0000
  C   C1010     1.0  0.52514  0.94938  0.34941  1.0000
  H   H1613     1.0  0.65139  0.98082  0.35150  1.0000
  C   C1011     1.0  0.54263  0.91955  0.34394  1.0000
  H   H1614     1.0  0.54402  0.94702  0.37976  1.0000
  H   H1615     1.0  0.52046  0.87656  0.49122  1.0000
  H   H1616     1.0  0.64934  0.95265  0.33436  1.0000
  C   C1012     1.0  0.49668  0.88876  0.50824  1.0000
  H   H1617     1.0  0.49666  0.96464  0.54275  1.0000
  H   H1618     1.0  0.52593  0.92773  0.43927  1.0000
  C   C1013     1.0  0.52188  0.92679  0.45475  1.0000
  H   H1619     1.0  0.53102  0.91126  0.35091  1.0000
  C   C1014     1.0  0.65319  0.98200  0.33626  1.0000
  C   C1015     1.0  0.70774  0.92226  0.62087  1.0000
  C   C1016     1.0  0.51077  0.95983  0.45327  1.0000
  H   H1620     1.0  0.69099  0.91895  0.35632  1.0000
  C   C1017     1.0  0.49382  0.97339  0.40707  1.0000
  H   H1621     1.0  0.49868  0.97051  0.45611  1.0000
  H   H1622     1.0  0.69885  0.91624  0.32203  1.0000
  H   H1623     1.0  0.55814  0.95070  0.32791  1.0000
  C   C1018     1.0  0.50077  0.93880  0.48016  1.0000
  H   H1624     1.0  0.72254  0.81632  0.40744  1.0000
  Fe  Fe204     1.0  0.49720  0.89981  0.55562  1.0000
  H   H1625     1.0  0.49790  0.96854  0.63913  1.0000
  C   C1019     1.0  0.72254  0.94967  0.62684  1.0000
  C   C1020     1.0  0.73937  0.91867  0.63036  1.0000
  H   H1626     1.0  0.73051  0.81366  0.44056  1.0000
  Fe  Fe205     1.0  0.65673  0.92682  0.65267  1.0000
  H   H1627     1.0  0.49268  0.93759  0.43444  1.0000
  H   H1628     1.0  0.52990  0.97960  0.63082  1.0000
  S   S406      1.0  0.70786  0.87360  0.65111  1.0000
  H   H1629     1.0  0.73831  0.90341  0.63485  1.0000
  H   H1630     1.0  0.73851  0.82596  0.38893  1.0000
  Fe  Fe206     1.0  0.64374  0.89648  0.68400  1.0000
  H   H1631     1.0  0.57827  0.86940  0.65661  1.0000
  S   S407      1.0  0.62871  0.89430  0.71395  1.0000
  H   H1632     1.0  0.62765  0.95725  0.85091  1.0000
  H   H1633     1.0  0.60687  0.97745  0.81811  1.0000
  H   H1634     1.0  0.57654  0.50656  0.97359  1.0000
  S   S408      1.0  0.67158  0.90865  0.67501  1.0000
  Fe  Fe207     1.0  0.58730  0.82942  0.80490  1.0000
  S   S409      1.0  0.60440  0.82259  0.83000  1.0000
  S   S410      1.0  0.60195  0.82793  0.77493  1.0000
  Fe  Fe208     1.0  0.54937  0.82887  0.82954  1.0000
  S   S411      1.0  0.56428  0.82158  0.85582  1.0000
  S   S412      1.0  0.51748  0.83526  0.83618  1.0000
  Fe  Fe209     1.0  0.58342  0.84385  0.84397  1.0000
  S   S413      1.0  0.59048  0.86284  0.86572  1.0000
  Fe  Fe210     1.0  0.58391  0.80088  0.84003  1.0000
  S   S414      1.0  0.58879  0.76965  0.85182  1.0000
  S   S415      1.0  0.56780  0.85220  0.81824  1.0000
  S   S416      1.0  0.56756  0.80668  0.81436  1.0000
  Fe  Fe211     1.0  0.56870  0.96895  0.89681  1.0000
  S   S417      1.0  0.55527  0.96639  0.92662  1.0000
  S   S418      1.0  0.56822  0.95078  0.87233  1.0000
  Fe  Fe212     1.0  0.68004  0.63962  0.90409  1.0000
  S   S419      1.0  0.66012  0.64688  0.88155  1.0000
  S   S420      1.0  0.70721  0.61991  0.90063  1.0000
  Fe  Fe213     1.0  0.65145  0.65645  0.93465  1.0000
  S   S421      1.0  0.62948  0.66380  0.91401  1.0000
  S   S422      1.0  0.64150  0.66640  0.96371  1.0000
  Fe  Fe214     1.0  0.63833  0.63531  0.90357  1.0000
  S   S423      1.0  0.61715  0.61640  0.89531  1.0000
  Fe  Fe215     1.0  0.65282  0.67492  0.89398  1.0000
  S   S424      1.0  0.65199  0.70514  0.87902  1.0000
  S   S425      1.0  0.65827  0.62709  0.92572  1.0000
  S   S426      1.0  0.67474  0.66841  0.91499  1.0000
  Fe  Fe216     1.0  0.58886  0.50767  0.91717  1.0000
  S   S427      1.0  0.60991  0.52900  0.92117  1.0000
  S   S428      1.0  0.55725  0.50967  0.92341  1.0000
  H   H1635     1.0  0.49152  0.94467  0.93724  1.0000
  C   C1021     1.0  0.72908  0.63389  0.86871  1.0000
  C   C1022     1.0  0.72680  0.61945  0.88319  1.0000
  C   C1023     1.0  0.57277  0.86681  0.67170  1.0000
  H   H1636     1.0  0.70385  0.59424  0.86688  1.0000
  H   H1637     1.0  0.71870  0.64593  0.86790  1.0000
  C   C1024     1.0  0.61479  0.59231  0.90329  1.0000
  C   C1025     1.0  0.60078  0.58292  0.89657  1.0000
  C   C1026     1.0  0.59888  0.56362  0.90202  1.0000
  C   C1027     1.0  0.61115  0.55344  0.91410  1.0000
  C   C1028     1.0  0.62519  0.56285  0.92080  1.0000
  C   C1029     1.0  0.62690  0.58219  0.91557  1.0000
  H   H1638     1.0  0.59133  0.59060  0.88705  1.0000
  H   H1639     1.0  0.58804  0.55661  0.89671  1.0000
  H   H1640     1.0  0.63480  0.55511  0.93011  1.0000
  H   H1641     1.0  0.63761  0.58925  0.92100  1.0000
  C   C1030     1.0  0.49752  0.82740  0.82730  1.0000
  H   H1642     1.0  0.66658  0.57604  0.90181  1.0000
  H   H1643     1.0  0.57089  0.85150  0.67448  1.0000
  H   H1644     1.0  0.67905  0.64908  0.97188  1.0000
  H   H1645     1.0  0.64574  0.58329  0.87562  1.0000
  H   H1646     1.0  0.58112  0.98339  0.84338  1.0000
  N   N103      1.0  0.61181  0.76561  0.79580  1.0000
  H   H1647     1.0  0.62891  0.78752  0.80071  1.0000
  H   H1648     1.0  0.59850  0.55060  0.97853  1.0000
  H   H1649     1.0  0.55862  0.87473  0.67341  1.0000
  C   C1031     1.0  0.60659  0.75221  0.85994  1.0000
  C   C1032     1.0  0.62556  0.75569  0.85949  1.0000
  C   C1033     1.0  0.63915  0.74111  0.86527  1.0000
  C   C1034     1.0  0.63404  0.72290  0.87188  1.0000
  C   C1035     1.0  0.61502  0.71952  0.87266  1.0000
  C   C1036     1.0  0.60148  0.73402  0.86662  1.0000
  H   H1650     1.0  0.62980  0.76959  0.85465  1.0000
  H   H1651     1.0  0.65378  0.74399  0.86466  1.0000
  H   H1652     1.0  0.61076  0.70565  0.87764  1.0000
  H   H1653     1.0  0.58688  0.73108  0.86707  1.0000
  C   C1037     1.0  0.58505  0.88751  0.86693  1.0000
  C   C1038     1.0  0.58713  0.89538  0.88377  1.0000
  C   C1039     1.0  0.58206  0.91469  0.88573  1.0000
  C   C1040     1.0  0.57495  0.92639  0.87078  1.0000
  C   C1041     1.0  0.57311  0.91858  0.85386  1.0000
  C   C1042     1.0  0.57818  0.89929  0.85190  1.0000
  H   H1654     1.0  0.59253  0.88642  0.89546  1.0000
  H   H1655     1.0  0.58365  0.92050  0.89881  1.0000
  H   H1656     1.0  0.56775  0.92754  0.84216  1.0000
  H   H1657     1.0  0.57683  0.89356  0.83873  1.0000
  H   H1658     1.0  0.61440  0.78589  0.77155  1.0000
  C   C1043     1.0  0.53370  0.88777  0.88414  1.0000
  H   H1659     1.0  0.61131  0.54129  0.95821  1.0000
  H   H1660     1.0  0.68903  0.59939  0.84785  1.0000
  H   H1661     1.0  0.51271  0.81371  0.80423  1.0000
  H   H1662     1.0  0.60351  0.84670  0.68519  1.0000
  H   H1663     1.0  0.56409  0.87703  0.70700  1.0000
  C   C1044     1.0  0.50186  0.97223  0.93438  1.0000
  C   C1045     1.0  0.62197  0.87547  0.73083  1.0000
  C   C1046     1.0  0.62607  0.85645  0.72763  1.0000
  C   C1047     1.0  0.61981  0.84216  0.74124  1.0000
  C   C1048     1.0  0.60957  0.84661  0.75832  1.0000
  C   C1049     1.0  0.60553  0.86561  0.76153  1.0000
  C   C1050     1.0  0.61164  0.87990  0.74786  1.0000
  H   H1664     1.0  0.63424  0.85272  0.71479  1.0000
  H   H1665     1.0  0.62312  0.82753  0.73861  1.0000
  H   H1666     1.0  0.59769  0.86932  0.77456  1.0000
  H   H1667     1.0  0.60840  0.89453  0.75055  1.0000
  H   H1668     1.0  0.59736  0.89819  0.68951  1.0000
  S   S429      1.0  0.59185  0.96592  0.96132  1.0000
  H   H1669     1.0  0.72254  0.93258  0.66200  1.0000
  H   H1670     1.0  0.64585  0.96632  0.67716  1.0000
  C   C1051     1.0  0.65638  0.59252  0.86826  1.0000
  H   H1671     1.0  0.52780  0.84416  0.87191  1.0000
  H   H1672     1.0  0.51588  0.96690  0.93761  1.0000
  H   H1673     1.0  0.52597  0.88675  0.89843  1.0000
  H   H1674     1.0  0.53220  0.96768  0.98104  1.0000
  H   H1675     1.0  0.60362  0.95502  0.84673  1.0000
  C   C1052     1.0  0.60380  0.77709  0.77971  1.0000
  C   C1053     1.0  0.65380  0.66360  0.98427  1.0000
  H   H1676     1.0  0.58766  0.87372  0.71398  1.0000
  H   H1677     1.0  0.53262  0.86774  0.84329  1.0000
  C   C1054     1.0  0.68069  0.56666  0.86776  1.0000
  N   N104      1.0  0.52769  0.87421  0.87214  1.0000
  C   C1055     1.0  0.67620  0.58596  0.89386  1.0000
  C   C1056     1.0  0.60433  0.86206  0.68134  1.0000
  H   H1678     1.0  0.60662  0.78742  0.81450  1.0000
  Fe  Fe217     1.0  0.58041  0.97961  0.93434  1.0000
  H   H1679     1.0  0.67064  0.55669  0.87494  1.0000
  H   H1680     1.0  0.55317  0.87203  0.85371  1.0000
  C   C1057     1.0  0.65211  0.97857  0.67000  1.0000
  H   H1681     1.0  0.60878  0.96169  0.86887  1.0000
  C   C1058     1.0  0.58789  0.89312  0.68002  1.0000
  C   C1059     1.0  0.57813  0.86919  0.70421  1.0000
  C   C1060     1.0  0.60844  0.53870  0.97379  1.0000
  H   H1682     1.0  0.57660  0.85392  0.70811  1.0000
  H   H1683     1.0  0.57411  0.90170  0.68163  1.0000
  H   H1684     1.0  0.69068  0.58190  0.89813  1.0000
  H   H1685     1.0  0.50233  0.86752  0.86155  1.0000
  H   H1686     1.0  0.68594  0.61342  0.86757  1.0000
  N   N105      1.0  0.63628  0.72136  0.93423  1.0000
  C   C1061     1.0  0.65553  0.71184  0.93185  1.0000
  C   C1062     1.0  0.62269  0.70931  0.92837  1.0000
  C   C1063     1.0  0.63547  0.73953  0.92242  1.0000
  C   C1064     1.0  0.63145  0.72462  0.95427  1.0000
  H   H1687     1.0  0.66617  0.72046  0.93624  1.0000
  H   H1688     1.0  0.65967  0.70917  0.91689  1.0000
  H   H1689     1.0  0.65661  0.69799  0.94043  1.0000
  H   H1690     1.0  0.60805  0.71617  0.92958  1.0000
  H   H1691     1.0  0.62615  0.70619  0.91342  1.0000
  H   H1692     1.0  0.62271  0.69559  0.93722  1.0000
  H   H1693     1.0  0.62107  0.74700  0.92358  1.0000
  H   H1694     1.0  0.63924  0.73736  0.90726  1.0000
  H   H1695     1.0  0.64547  0.74906  0.92647  1.0000
  H   H1696     1.0  0.61696  0.73163  0.95665  1.0000
  H   H1697     1.0  0.64143  0.73364  0.95923  1.0000
  H   H1698     1.0  0.63208  0.71103  0.96342  1.0000
  S   S430      1.0  0.59497  0.97971  0.90487  1.0000
  C   C1065     1.0  0.61412  0.50504  0.97235  1.0000
  H   H1699     1.0  0.69903  0.93515  0.65492  1.0000
  H   H1700     1.0  0.54901  0.88510  0.88599  1.0000
  H   H1701     1.0  0.65531  0.59272  0.85286  1.0000
  H   H1702     1.0  0.71154  0.91218  0.65756  1.0000
  H   H1703     1.0  0.65207  0.60706  0.87229  1.0000
  H   H1704     1.0  0.50353  0.89216  0.86386  1.0000
  H   H1705     1.0  0.49907  0.49281  0.86619  1.0000
  H   H1706     1.0  0.68049  0.56616  0.85230  1.0000
  H   H1707     1.0  0.60844  0.49102  0.97582  1.0000
  H   H1708     1.0  0.59177  0.78707  0.78453  1.0000
  N   N106      1.0  0.58574  0.87278  0.68434  1.0000
  C   C1066     1.0  0.53793  0.87651  0.85321  1.0000
  C   C1067     1.0  0.50720  0.87770  0.87047  1.0000
  C   C1068     1.0  0.49898  0.81731  0.81138  1.0000
  H   H1709     1.0  0.53131  0.90259  0.87786  1.0000
  H   H1710     1.0  0.61741  0.50693  0.95677  1.0000
  H   H1711     1.0  0.57192  0.53144  0.97526  1.0000
  H   H1712     1.0  0.67187  0.60022  0.89855  1.0000
  C   C1069     1.0  0.58269  0.52032  0.97030  1.0000
  S   S431      1.0  0.62839  0.91675  0.66322  1.0000
  C   C1070     1.0  0.67198  0.65452  0.98455  1.0000
  H   H1713     1.0  0.52445  0.85246  0.89496  1.0000
  H   H1714     1.0  0.59412  0.89614  0.66530  1.0000
  H   H1715     1.0  0.58488  0.52278  0.95467  1.0000
  H   H1716     1.0  0.49897  0.87613  0.88447  1.0000
  N   N107      1.0  0.60052  0.52038  0.97906  1.0000
  C   C1071     1.0  0.61288  0.96354  0.85342  1.0000
  H   H1717     1.0  0.69508  0.56126  0.87153  1.0000
  C   C1072     1.0  0.68918  0.59878  0.86341  1.0000
  H   H1718     1.0  0.61469  0.86689  0.68998  1.0000
  H   H1719     1.0  0.54739  0.85169  0.88211  1.0000
  S   S432      1.0  0.65019  0.87326  0.66477  1.0000
  H   H1720     1.0  0.53656  0.89140  0.84699  1.0000
  C   C1073     1.0  0.59040  0.97814  0.98178  1.0000
  N   N108      1.0  0.61081  0.98363  0.84610  1.0000
  H   H1721     1.0  0.63918  0.76068  0.78094  1.0000
  H   H1722     1.0  0.58484  0.76384  0.81185  1.0000
  H   H1723     1.0  0.63408  0.74383  0.80071  1.0000
  C   C1074     1.0  0.59715  0.75451  0.80640  1.0000
  H   H1724     1.0  0.60262  0.74601  0.81892  1.0000
  N   N109      1.0  0.67562  0.58598  0.87330  1.0000
  H   H1725     1.0  0.59183  0.74468  0.79750  1.0000
  H   H1726     1.0  0.59855  0.76815  0.76988  1.0000
  H   H1727     1.0  0.62518  0.77004  0.82037  1.0000
  C   C1075     1.0  0.61852  0.77818  0.80835  1.0000
  C   C1076     1.0  0.53199  0.85478  0.88069  1.0000
  H   H1728     1.0  0.62329  0.74303  0.77924  1.0000
  C   C1077     1.0  0.62781  0.75270  0.78883  1.0000
  C   C1078     1.0  0.49625  0.49115  0.88136  1.0000
  C   C1079     1.0  0.53719  0.98127  0.97445  1.0000
  H   H1729     1.0  0.73887  0.59263  0.89507  1.0000
  C   C1080     1.0  0.61605  0.98537  0.82556  1.0000
  H   H1730     1.0  0.53228  0.98377  0.96010  1.0000
  H   H1731     1.0  0.61016  0.86392  0.66632  1.0000
  H   H1732     1.0  0.55286  0.97939  0.97261  1.0000
  H   H1733     1.0  0.62765  0.50446  0.97885  1.0000
  H   H1734     1.0  0.62197  0.53924  0.98003  1.0000
  H   H1735     1.0  0.63091  0.97972  0.82212  1.0000
  S   S433      1.0  0.53484  0.49014  0.88219  1.0000
  C   C1081     1.0  0.51138  0.48967  0.89269  1.0000
  Fe  Fe218     1.0  0.67697  0.88687  0.65380  1.0000
  Fe  Fe219     1.0  0.79135  0.38365  0.15207  1.0000
  S   S434      1.0  0.81742  0.36355  0.15292  1.0000
  S   S435      1.0  0.76014  0.37853  0.15137  1.0000
  Fe  Fe220     1.0  0.81385  0.41794  0.15312  1.0000
  S   S436      1.0  0.84178  0.40032  0.15365  1.0000
  S   S437      1.0  0.80744  0.44985  0.14662  1.0000
  Fe  Fe221     1.0  0.83142  0.38447  0.13171  1.0000
  S   S438      1.0  0.85088  0.37247  0.10773  1.0000
  Fe  Fe222     1.0  0.82676  0.38009  0.17516  1.0000
  S   S439      1.0  0.84414  0.36112  0.19675  1.0000
  S   S440      1.0  0.80481  0.40331  0.12941  1.0000
  S   S441      1.0  0.79928  0.39893  0.17603  1.0000
  H   H1736     1.0  0.82804  0.48356  0.19702  1.0000
  H   H1737     1.0  0.75391  0.34031  0.03810  1.0000
  H   H1738     1.0  0.91317  0.36957  0.23703  1.0000
  C   C1082     1.0  0.75929  0.42862  0.15334  1.0000
  N   N110      1.0  0.75245  0.43598  0.13500  1.0000
  H   H1739     1.0  0.75479  0.32095  0.02375  1.0000
  Fe  Fe223     1.0  0.89041  0.40910  0.00235  1.0000
  S   S442      1.0  0.87338  0.41868  0.02897  1.0000
  H   H1740     1.0  0.92878  0.45304  0.99297  1.0000
  Fe  Fe224     1.0  0.87607  0.33046  0.30668  1.0000
  H   H1741     1.0  0.92774  0.38505  0.24603  1.0000
  S   S443      1.0  0.86016  0.34998  0.28455  1.0000
  C   C1083     1.0  0.96619  0.32217  0.31539  1.0000
  C   C1084     1.0  0.89916  0.37672  0.27196  1.0000
  H   H1742     1.0  0.76287  0.41082  0.12176  1.0000
  C   C1085     1.0  0.82230  0.48487  0.18349  1.0000
  C   C1086     1.0  0.93064  0.36556  0.27980  1.0000
  N   N111      1.0  0.91624  0.36432  0.26666  1.0000
  C   C1087     1.0  0.74531  0.33248  0.02991  1.0000
  H   H1743     1.0  0.78029  0.43922  0.12142  1.0000
  H   H1744     1.0  0.77281  0.41977  0.15137  1.0000
  C   C1088     1.0  0.84807  0.35826  0.22133  1.0000
  C   C1089     1.0  0.84055  0.37130  0.23404  1.0000
  C   C1090     1.0  0.84437  0.36845  0.25321  1.0000
  C   C1091     1.0  0.85564  0.35249  0.26013  1.0000
  C   C1092     1.0  0.86317  0.33943  0.24742  1.0000
  C   C1093     1.0  0.85948  0.34235  0.22822  1.0000
  H   H1745     1.0  0.83177  0.38361  0.22913  1.0000
  H   H1746     1.0  0.83838  0.37869  0.26279  1.0000
  H   H1747     1.0  0.87166  0.32694  0.25241  1.0000
  H   H1748     1.0  0.86531  0.33204  0.21868  1.0000
  C   C1094     1.0  0.81181  0.46992  0.15777  1.0000
  C   C1095     1.0  0.96953  0.38668  0.00373  1.0000
  C   C1096     1.0  0.81955  0.46844  0.17507  1.0000
  H   H1749     1.0  0.76183  0.45361  0.11035  1.0000
  H   H1750     1.0  0.82316  0.45466  0.18211  1.0000
  C   C1097     1.0  0.86721  0.40535  0.05062  1.0000
  C   C1098     1.0  0.85580  0.41437  0.06484  1.0000
  C   C1099     1.0  0.85059  0.40448  0.08232  1.0000
  C   C1100     1.0  0.85681  0.38543  0.08581  1.0000
  C   C1101     1.0  0.86824  0.37639  0.07161  1.0000
  C   C1102     1.0  0.87339  0.38628  0.05408  1.0000
  H   H1751     1.0  0.85095  0.42911  0.06230  1.0000
  H   H1752     1.0  0.84182  0.41162  0.09310  1.0000
  H   H1753     1.0  0.87310  0.36165  0.07414  1.0000
  H   H1754     1.0  0.88217  0.37917  0.04328  1.0000
  S   S444      1.0  0.89641  0.30496  0.30186  1.0000
  C   C1103     1.0  0.74956  0.42005  0.12425  1.0000
  C   C1104     1.0  0.93686  0.48002  0.99831  1.0000
  H   H1755     1.0  0.74916  0.41956  0.16184  1.0000
  H   H1756     1.0  0.88788  0.37587  0.26250  1.0000
  C   C1105     1.0  0.75833  0.35379  0.12370  1.0000
  H   H1757     1.0  0.92550  0.36089  0.29455  1.0000
  H   H1758     1.0  0.90483  0.34005  0.28180  1.0000
  H   H1759     1.0  0.77357  0.35292  0.12200  1.0000
  C   C1106     1.0  0.74849  0.36517  0.13690  1.0000
  C   C1107     1.0  0.98402  0.32153  0.30507  1.0000
  H   H1760     1.0  0.93658  0.36108  0.24278  1.0000
  H   H1761     1.0  0.94368  0.35626  0.27628  1.0000
  H   H1762     1.0  0.89303  0.37257  0.28653  1.0000
  H   H1763     1.0  0.76942  0.45954  0.13209  1.0000
  Fe  Fe225     1.0  0.91605  0.31883  0.31784  1.0000
  C   C1108     1.0  0.92379  0.37028  0.24724  1.0000
  H   H1764     1.0  0.93467  0.38020  0.27962  1.0000
  S   S445      1.0  0.94578  0.32111  0.30347  1.0000
  H   H1765     1.0  0.90222  0.39172  0.27135  1.0000
  H   H1766     1.0  0.87049  0.48529  0.13775  1.0000
  H   H1767     1.0  0.92396  0.33466  0.26462  1.0000
  C   C1109     1.0  0.76654  0.44763  0.12420  1.0000
  C   C1110     1.0  0.91132  0.34465  0.26759  1.0000
  S   S446      1.0  0.92080  0.41513  0.99547  1.0000
  H   H1768     1.0  0.98507  0.32019  0.29009  1.0000
  N   N112      1.0  0.87942  0.34245  0.14944  1.0000
  C   C1111     1.0  0.88893  0.33245  0.16541  1.0000
  C   C1112     1.0  0.86023  0.33631  0.15001  1.0000
  C   C1113     1.0  0.89014  0.33811  0.13141  1.0000
  C   C1114     1.0  0.87829  0.36298  0.15098  1.0000
  H   H1769     1.0  0.90345  0.33673  0.16550  1.0000
  H   H1770     1.0  0.88994  0.31690  0.16481  1.0000
  H   H1771     1.0  0.88099  0.33562  0.17914  1.0000
  H   H1772     1.0  0.85266  0.34346  0.13807  1.0000
  H   H1773     1.0  0.86052  0.32087  0.14903  1.0000
  H   H1774     1.0  0.85165  0.33959  0.16333  1.0000
  H   H1775     1.0  0.90467  0.34263  0.13038  1.0000
  H   H1776     1.0  0.88314  0.34557  0.11917  1.0000
  H   H1777     1.0  0.89119  0.32275  0.12965  1.0000
  H   H1778     1.0  0.89250  0.36811  0.15069  1.0000
  H   H1779     1.0  0.87007  0.36685  0.16428  1.0000
  H   H1780     1.0  0.87126  0.37100  0.13913  1.0000
  H   H1781     1.0  0.75631  0.33424  0.10302  1.0000
  C   C1115     1.0  0.74845  0.34319  0.11292  1.0000
  H   H1782     1.0  0.95563  0.39030  0.01053  1.0000
  H   H1783     1.0  0.90087  0.34302  0.25750  1.0000
  H   H1784     1.0  0.76191  0.44020  0.16178  1.0000
  H   H1785     1.0  0.74451  0.42499  0.11028  1.0000
  H   H1786     1.0  0.87356  0.48382  0.99893  1.0000
  H   H1787     1.0  0.93826  0.47597  0.01310  1.0000
  H   H1788     1.0  0.98395  0.39900  0.02386  1.0000
  C   C1116     1.0  0.98561  0.39158  0.01127  1.0000
  H   H1789     1.0  0.74556  0.10999  0.27280  1.0000
  H   H1790     1.0  0.74568  0.29997  0.05232  1.0000
  H   H1791     1.0  0.74437  0.31945  0.06668  1.0000
  H   H1792     1.0  0.74170  0.08040  0.29355  1.0000
  C   C1117     1.0  0.80710  0.48801  0.14892  1.0000
  S   S447      1.0  0.89375  0.38174  0.98856  1.0000
  C   C1118     1.0  0.97145  0.37680  0.98767  1.0000
  H   H1793     1.0  0.74040  0.34237  0.01803  1.0000
  H   H1794     1.0  0.74123  0.12323  0.29308  1.0000
  H   H1795     1.0  0.85906  0.48832  0.11627  1.0000
  Fe  Fe226     1.0  0.82663  0.17002  0.55677  1.0000
  S   S448      1.0  0.82066  0.14174  0.57138  1.0000
  S   S449      1.0  0.82069  0.18166  0.52687  1.0000
  Fe  Fe227     1.0  0.84144  0.18338  0.59249  1.0000
  S   S450      1.0  0.83551  0.15584  0.60960  1.0000
  S   S451      1.0  0.86152  0.20456  0.59965  1.0000
  Fe  Fe228     1.0  0.84847  0.14210  0.58373  1.0000
  S   S452      1.0  0.87106  0.11767  0.58012  1.0000
  Fe  Fe229     1.0  0.80786  0.15771  0.59583  1.0000
  S   S453      1.0  0.77639  0.15640  0.60724  1.0000
  S   S454      1.0  0.85513  0.16920  0.56721  1.0000
  S   S455      1.0  0.81319  0.18637  0.58063  1.0000
  Fe  Fe230     1.0  0.81299  0.14758  0.42427  1.0000
  S   S456      1.0  0.81119  0.12445  0.40538  1.0000
  S   S457      1.0  0.80959  0.13796  0.45580  1.0000
  Fe  Fe231     1.0  0.82147  0.17651  0.39028  1.0000
  S   S458      1.0  0.82091  0.15492  0.36952  1.0000
  S   S459      1.0  0.82095  0.20846  0.38175  1.0000
  Fe  Fe232     1.0  0.79451  0.14558  0.38659  1.0000
  S   S460      1.0  0.76639  0.14547  0.37267  1.0000
  Fe  Fe233     1.0  0.83752  0.13542  0.38990  1.0000
  S   S461      1.0  0.86137  0.11358  0.38110  1.0000
  S   S462      1.0  0.79450  0.16799  0.40678  1.0000
  S   S463      1.0  0.83998  0.15759  0.40949  1.0000
  H   H1796     1.0  0.78230  0.20209  0.38178  1.0000
  S   S464      1.0  0.98622  0.10645  0.52015  1.0000
  H   H1797     1.0  0.83420  0.30511  0.59330  1.0000
  C   C1119     1.0  0.84634  0.24941  0.63139  1.0000
  H   H1798     1.0  0.94780  0.05231  0.53162  1.0000
  Fe  Fe234     1.0  0.96565  0.07675  0.41340  1.0000
  S   S465      1.0  0.94008  0.09828  0.41720  1.0000
  S   S466      1.0  0.96883  0.04590  0.42427  1.0000
  Fe  Fe235     1.0  0.97810  0.09593  0.59005  1.0000
  H   H1799     1.0  0.86228  0.31324  0.62003  1.0000
  S   S467      1.0  0.95324  0.10750  0.60914  1.0000
  H   H1800     1.0  0.85071  0.32829  0.57108  1.0000
  H   H1801     1.0  0.79113  0.22492  0.35501  1.0000
  H   H1802     1.0  0.84958  0.33086  0.60540  1.0000
  C   C1120     1.0  0.76438  0.17346  0.52822  1.0000
  H   H1803     1.0  0.77277  0.18124  0.57256  1.0000
  Fe  Fe236     1.0  0.89981  0.33488  0.63546  1.0000
  S   S468      1.0  0.91017  0.30536  0.62890  1.0000
  S   S469      1.0  0.89408  0.36079  0.61509  1.0000
  Fe  Fe237     1.0  0.88487  0.32900  0.34863  1.0000
  S   S470      1.0  0.90625  0.30404  0.34573  1.0000
  S   S471      1.0  0.87522  0.33927  0.37764  1.0000
  H   H1804     1.0  0.96627  0.01214  0.56317  1.0000
  C   C1121     1.0  0.95714  0.01518  0.52782  1.0000
  S   S472      1.0  0.86283  0.31671  0.33414  1.0000
  Fe  Fe238     1.0  0.93514  0.41478  0.48391  1.0000
  S   S473      1.0  0.93539  0.38365  0.48221  1.0000
  S   S474      1.0  0.95934  0.43290  0.48111  1.0000
  Fe  Fe239     1.0  0.89319  0.42188  0.48193  1.0000
  S   S475      1.0  0.88930  0.39108  0.48027  1.0000
  S   S476      1.0  0.87350  0.44772  0.47470  1.0000
  Fe  Fe240     1.0  0.90951  0.38587  0.50306  1.0000
  S   S477      1.0  0.90771  0.36104  0.52566  1.0000
  Fe  Fe241     1.0  0.91530  0.39059  0.45977  1.0000
  S   S478      1.0  0.92219  0.38016  0.43047  1.0000
  S   S479      1.0  0.91104  0.41678  0.50633  1.0000
  S   S480      1.0  0.91753  0.42152  0.45994  1.0000
  C   C1122     1.0  0.97631  0.42466  0.49653  1.0000
  H   H1805     1.0  0.95993  0.40321  0.51150  1.0000
  C   C1123     1.0  0.88866  0.35030  0.39226  1.0000
  C   C1124     1.0  0.90693  0.35512  0.38635  1.0000
  C   C1125     1.0  0.91698  0.36407  0.39834  1.0000
  C   C1126     1.0  0.90901  0.36818  0.41640  1.0000
  C   C1127     1.0  0.89077  0.36323  0.42238  1.0000
  C   C1128     1.0  0.88065  0.35441  0.41032  1.0000
  H   H1806     1.0  0.91329  0.35206  0.37251  1.0000
  H   H1807     1.0  0.93107  0.36784  0.39355  1.0000
  H   H1808     1.0  0.88451  0.36608  0.43629  1.0000
  H   H1809     1.0  0.86654  0.35070  0.41505  1.0000
  H   H1810     1.0  0.98039  0.32683  0.35855  1.0000
  C   C1129     1.0  0.91113  0.15817  0.57007  1.0000
  C   C1130     1.0  0.89923  0.36107  0.59028  1.0000
  C   C1131     1.0  0.89464  0.37764  0.57876  1.0000
  C   C1132     1.0  0.89775  0.37810  0.55896  1.0000
  C   C1133     1.0  0.90526  0.36189  0.55048  1.0000
  C   C1134     1.0  0.91003  0.34538  0.56203  1.0000
  C   C1135     1.0  0.90722  0.34501  0.58182  1.0000
  H   H1811     1.0  0.88853  0.39017  0.58515  1.0000
  H   H1812     1.0  0.89396  0.39088  0.55024  1.0000
  H   H1813     1.0  0.91600  0.33282  0.55559  1.0000
  H   H1814     1.0  0.91121  0.33231  0.59051  1.0000
  C   C1136     1.0  0.98162  0.07314  0.47907  1.0000
  H   H1815     1.0  0.96025  0.01596  0.51223  1.0000
  H   H1816     1.0  0.97125  0.05802  0.53391  1.0000
  C   C1137     1.0  0.98768  0.99387  0.45255  1.0000
  H   H1817     1.0  0.97753  0.12817  0.63998  1.0000
  H   H1818     1.0  0.94168  0.01850  0.53093  1.0000
  C   C1138     1.0  0.83813  0.22248  0.36899  1.0000
  C   C1139     1.0  0.83316  0.24181  0.36435  1.0000
  C   C1140     1.0  0.84627  0.25357  0.35438  1.0000
  C   C1141     1.0  0.86468  0.24619  0.34913  1.0000
  C   C1142     1.0  0.86960  0.22685  0.35370  1.0000
  C   C1143     1.0  0.85644  0.21505  0.36352  1.0000
  H   H1819     1.0  0.81901  0.24772  0.36839  1.0000
  H   H1820     1.0  0.84206  0.26826  0.35058  1.0000
  H   H1821     1.0  0.88375  0.22092  0.34965  1.0000
  H   H1822     1.0  0.86052  0.20024  0.36692  1.0000
  C   C1144     1.0  0.88377  0.11000  0.39021  1.0000
  C   C1145     1.0  0.89522  0.09319  0.38740  1.0000
  C   C1146     1.0  0.91276  0.08954  0.39508  1.0000
  C   C1147     1.0  0.91902  0.10269  0.40569  1.0000
  C   C1148     1.0  0.90770  0.11963  0.40823  1.0000
  C   C1149     1.0  0.89024  0.12332  0.40046  1.0000
  H   H1823     1.0  0.89041  0.08285  0.37937  1.0000
  H   H1824     1.0  0.92127  0.07644  0.39302  1.0000
  H   H1825     1.0  0.91247  0.12997  0.41628  1.0000
  H   H1826     1.0  0.88183  0.13651  0.40228  1.0000
  C   C1150     1.0  0.86167  0.22481  0.61240  1.0000
  C   C1151     1.0  0.87891  0.23263  0.61311  1.0000
  C   C1152     1.0  0.87990  0.24864  0.62294  1.0000
  C   C1153     1.0  0.86359  0.25715  0.63220  1.0000
  C   C1154     1.0  0.84537  0.23335  0.62162  1.0000
  H   H1827     1.0  0.89165  0.22619  0.60611  1.0000
  H   H1828     1.0  0.89329  0.25431  0.62344  1.0000
  C   C1155     1.0  0.81372  0.15026  0.47514  1.0000
  C   C1156     1.0  0.81457  0.14028  0.49304  1.0000
  C   C1157     1.0  0.81740  0.14951  0.50889  1.0000
  C   C1158     1.0  0.81894  0.16896  0.50710  1.0000
  C   C1159     1.0  0.81809  0.17894  0.48921  1.0000
  C   C1160     1.0  0.81571  0.16962  0.47327  1.0000
  H   H1829     1.0  0.81294  0.12532  0.49468  1.0000
  H   H1830     1.0  0.81816  0.14159  0.52251  1.0000
  H   H1831     1.0  0.81922  0.19400  0.48767  1.0000
  H   H1832     1.0  0.81502  0.17751  0.45962  1.0000
  C   C1161     1.0  0.89378  0.11538  0.58839  1.0000
  C   C1162     1.0  0.89701  0.12174  0.60553  1.0000
  C   C1163     1.0  0.91523  0.11907  0.61185  1.0000
  C   C1164     1.0  0.93042  0.11028  0.60097  1.0000
  C   C1165     1.0  0.92718  0.10405  0.58378  1.0000
  C   C1166     1.0  0.90893  0.10637  0.57766  1.0000
  H   H1833     1.0  0.88538  0.12830  0.61413  1.0000
  H   H1834     1.0  0.91752  0.12374  0.62528  1.0000
  H   H1835     1.0  0.93869  0.09725  0.57525  1.0000
  H   H1836     1.0  0.90654  0.10124  0.56447  1.0000
  H   H1837     1.0  0.84860  0.28596  0.58313  1.0000
  C   C1167     1.0  0.75480  0.11000  0.36685  1.0000
  C   C1168     1.0  0.75052  0.12958  0.36618  1.0000
  C   C1169     1.0  0.75177  0.10684  0.62376  1.0000
  H   H1838     1.0  0.76808  0.10387  0.37168  1.0000
  N   N113      1.0  0.77416  0.20197  0.35372  1.0000
  N   N114      1.0  0.86403  0.30794  0.59088  1.0000
  Fe  Fe242     1.0  0.88471  0.29222  0.33033  1.0000
  H   H1839     1.0  0.78182  0.22428  0.33276  1.0000
  C   C1170     1.0  0.87731  0.46806  0.48552  1.0000
  H   H1840     1.0  0.98543  0.00457  0.46301  1.0000
  H   H1841     1.0  0.95141  0.32452  0.34285  1.0000
  C   C1171     1.0  0.76529  0.11977  0.61721  1.0000
  H   H1842     1.0  0.77992  0.11472  0.61416  1.0000
  H   H1843     1.0  0.93906  0.18021  0.57187  1.0000
  H   H1844     1.0  0.85552  0.44510  0.43309  1.0000
  H   H1845     1.0  0.83361  0.25581  0.63849  1.0000
  N   N115      1.0  0.76533  0.16853  0.54867  1.0000
  H   H1846     1.0  0.98955  0.10955  0.62746  1.0000
  C   C1172     1.0  0.77856  0.22165  0.34827  1.0000
  H   H1847     1.0  0.74551  0.08315  0.36190  1.0000
  H   H1848     1.0  0.76660  0.23188  0.35268  1.0000
  H   H1849     1.0  0.87583  0.32804  0.56966  1.0000
  C   C1173     1.0  0.86259  0.32103  0.60578  1.0000
  H   H1850     1.0  0.77475  0.13947  0.54525  1.0000
  C   C1174     1.0  0.77888  0.15184  0.55162  1.0000
  C   C1175     1.0  0.88276  0.46652  0.50385  1.0000
  C   C1176     1.0  0.75992  0.13915  0.61493  1.0000
  H   H1851     1.0  0.87823  0.37285  0.65171  1.0000
  H   H1852     1.0  0.95197  0.47454  0.50715  1.0000
  H   H1853     1.0  0.75777  0.20865  0.37947  1.0000
  C   C1177     1.0  0.97781  0.32253  0.65296  1.0000
  C   C1178     1.0  0.96299  0.04781  0.52825  1.0000
  C   C1179     1.0  0.95702  0.48259  0.49378  1.0000
  H   H1854     1.0  0.94821  0.03124  0.56072  1.0000
  H   H1855     1.0  0.90463  0.42513  0.42120  1.0000
  H   H1856     1.0  0.96594  0.04932  0.51265  1.0000
  H   H1857     1.0  0.88843  0.48147  0.52707  1.0000
  C   C1180     1.0  0.97884  0.08793  0.49072  1.0000
  C   C1181     1.0  0.87444  0.48606  0.47589  1.0000
  H   H1858     1.0  0.97309  0.07327  0.46742  1.0000
  H   H1859     1.0  0.75406  0.18309  0.34860  1.0000
  H   H1860     1.0  0.98524  0.39030  0.53168  1.0000
  C   C1182     1.0  0.97402  0.99392  0.40643  1.0000
  H   H1861     1.0  0.79320  0.15473  0.54510  1.0000
  H   H1862     1.0  0.79401  0.19071  0.33216  1.0000
  C   C1183     1.0  0.74658  0.16420  0.55775  1.0000
  H   H1863     1.0  0.91834  0.14530  0.57709  1.0000
  C   C1184     1.0  0.74191  0.09823  0.36124  1.0000
  H   H1864     1.0  0.78775  0.17404  0.35165  1.0000
  S   S481      1.0  0.97757  0.07613  0.56770  1.0000
  S   S482      1.0  0.98576  0.07298  0.38743  1.0000
  H   H1865     1.0  0.96938  0.99372  0.60819  1.0000
  S   S483      1.0  0.86370  0.27783  0.64430  1.0000
  C   C1185     1.0  0.96333  0.02686  0.55684  1.0000
  N   N116      1.0  0.86000  0.10540  0.45024  1.0000
  C   C1186     1.0  0.86344  0.12555  0.44917  1.0000
  C   C1187     1.0  0.85025  0.09982  0.46886  1.0000
  C   C1188     1.0  0.84808  0.10244  0.43530  1.0000
  H   H1866     1.0  0.84999  0.13469  0.45089  1.0000
  H   H1867     1.0  0.87226  0.12837  0.46033  1.0000
  H   H1868     1.0  0.87079  0.13026  0.43535  1.0000
  H   H1869     1.0  0.85877  0.10197  0.48050  1.0000
  H   H1870     1.0  0.84728  0.08475  0.47014  1.0000
  H   H1871     1.0  0.83647  0.10834  0.47115  1.0000
  H   H1872     1.0  0.83404  0.11049  0.43717  1.0000
  H   H1873     1.0  0.84567  0.08733  0.43520  1.0000
  H   H1874     1.0  0.85463  0.10718  0.42110  1.0000
  N   N117      1.0  0.87481  0.42388  0.42068  1.0000
  C   C1189     1.0  0.87717  0.41331  0.40375  1.0000
  C   C1190     1.0  0.89135  0.43467  0.42102  1.0000
  C   C1191     1.0  0.87324  0.41049  0.43771  1.0000
  C   C1192     1.0  0.85756  0.43701  0.42038  1.0000
  H   H1875     1.0  0.86522  0.40456  0.40326  1.0000
  H   H1876     1.0  0.89030  0.40354  0.40353  1.0000
  H   H1877     1.0  0.87813  0.42295  0.39057  1.0000
  H   H1878     1.0  0.89012  0.44262  0.43378  1.0000
  C   C1193     1.0  0.98926  0.99490  0.39264  1.0000
  H   H1879     1.0  0.88476  0.45278  0.51152  1.0000
  H   H1880     1.0  0.86124  0.40169  0.43778  1.0000
  H   H1881     1.0  0.87104  0.41801  0.45075  1.0000
  H   H1882     1.0  0.88626  0.40077  0.43869  1.0000
  H   H1883     1.0  0.84479  0.42933  0.42023  1.0000
  H   H1884     1.0  0.85824  0.44743  0.40776  1.0000
  H   H1885     1.0  0.76173  0.19743  0.55530  1.0000
  N   N118      1.0  0.86889  0.28147  0.39480  1.0000
  C   C1194     1.0  0.86692  0.26096  0.39764  1.0000
  C   C1195     1.0  0.86073  0.29058  0.41177  1.0000
  C   C1196     1.0  0.85886  0.28973  0.37849  1.0000
  C   C1197     1.0  0.88907  0.28469  0.39118  1.0000
  H   H1886     1.0  0.87329  0.25375  0.38512  1.0000
  H   H1887     1.0  0.85185  0.25791  0.39985  1.0000
  H   H1888     1.0  0.87405  0.25425  0.41002  1.0000
  H   H1889     1.0  0.86217  0.30608  0.40992  1.0000
  H   H1890     1.0  0.84545  0.28861  0.41477  1.0000
  H   H1891     1.0  0.86791  0.28471  0.42441  1.0000
  H   H1892     1.0  0.85917  0.30530  0.37649  1.0000
  H   H1893     1.0  0.84380  0.28668  0.38016  1.0000
  H   H1894     1.0  0.86544  0.28410  0.36524  1.0000
  H   H1895     1.0  0.89104  0.30003  0.38844  1.0000
  H   H1896     1.0  0.89572  0.27767  0.37864  1.0000
  H   H1897     1.0  0.89705  0.27904  0.40336  1.0000
  H   H1898     1.0  0.96661  0.00676  0.41112  1.0000
  H   H1899     1.0  0.89430  0.30385  0.58913  1.0000
  H   H1900     1.0  0.96492  0.33094  0.64985  1.0000
  C   C1198     1.0  0.96502  0.32393  0.33474  1.0000
  N   N119      1.0  0.96795  0.02829  0.53620  1.0000
  C   C1199     1.0  0.86394  0.31887  0.57224  1.0000
  C   C1200     1.0  0.84784  0.29627  0.59389  1.0000
  C   C1201     1.0  0.88176  0.29556  0.59170  1.0000
  H   H1901     1.0  0.97187  0.03595  0.56370  1.0000
  H   H1902     1.0  0.75994  0.16159  0.52126  1.0000
  H   H1903     1.0  0.86531  0.30946  0.56062  1.0000
  H   H1904     1.0  0.88244  0.28748  0.60576  1.0000
  H   H1905     1.0  0.84743  0.28803  0.60795  1.0000
  C   C1202     1.0  0.98943  0.08760  0.50612  1.0000
  C   C1203     1.0  0.98752  0.40220  0.52140  1.0000
  H   H1906     1.0  0.88311  0.28513  0.58100  1.0000
  H   H1907     1.0  0.87479  0.32976  0.60422  1.0000
  H   H1908     1.0  0.83200  0.22756  0.62127  1.0000
  C   C1204     1.0  0.97324  0.40946  0.50998  1.0000
  C   C1205     1.0  0.75755  0.19793  0.34461  1.0000
  H   H1909     1.0  0.93666  0.16461  0.59306  1.0000
  H   H1910     1.0  0.77991  0.14765  0.56692  1.0000
  H   H1911     1.0  0.96526  0.47222  0.48485  1.0000
  H   H1912     1.0  0.88759  0.18980  0.56790  1.0000
  H   H1913     1.0  0.92265  0.47082  0.49350  1.0000
  C   C1206     1.0  0.87817  0.09381  0.44763  1.0000
  C   C1207     1.0  0.98971  0.01149  0.59302  1.0000
  H   H1914     1.0  0.89294  0.44505  0.40846  1.0000
  H   H1915     1.0  0.97675  0.39328  0.47007  1.0000
  H   H1916     1.0  0.96837  0.09958  0.48787  1.0000
  H   H1917     1.0  0.98293  0.41218  0.45299  1.0000
  C   C1208     1.0  0.77164  0.18457  0.55716  1.0000
  H   H1918     1.0  0.87615  0.07850  0.44888  1.0000
  H   H1919     1.0  0.90130  0.20402  0.57922  1.0000
  H   H1920     1.0  0.91053  0.19491  0.55725  1.0000
  H   H1921     1.0  0.91883  0.16088  0.55593  1.0000
  S   S484      1.0  0.88226  0.26042  0.33741  1.0000
  C   C1209     1.0  0.90222  0.19154  0.57094  1.0000
  H   H1922     1.0  0.88458  0.16743  0.59721  1.0000
  H   H1923     1.0  0.89745  0.18304  0.60797  1.0000
  C   C1210     1.0  0.77008  0.19918  0.37440  1.0000
  H   H1924     1.0  0.96064  0.00031  0.53349  1.0000
  H   H1925     1.0  0.88790  0.09624  0.45814  1.0000
  H   H1926     1.0  0.88549  0.09716  0.43341  1.0000
  C   C1211     1.0  0.89906  0.17065  0.59949  1.0000
  H   H1927     1.0  0.76687  0.18442  0.37905  1.0000
  N   N120      1.0  0.91058  0.17442  0.58141  1.0000
  H   H1928     1.0  0.93003  0.18946  0.59381  1.0000
  H   H1929     1.0  0.75626  0.09195  0.62566  1.0000
  C   C1212     1.0  0.98149  0.32527  0.34360  1.0000
  C   C1213     1.0  0.79051  0.18903  0.34768  1.0000
  H   H1930     1.0  0.80331  0.19165  0.35430  1.0000
  C   C1214     1.0  0.92996  0.17734  0.58520  1.0000
  H   H1931     1.0  0.89668  0.15474  0.56792  1.0000
  H   H1932     1.0  0.90546  0.15848  0.60823  1.0000
  C   C1215     1.0  0.98120  0.99441  0.59753  1.0000
  C   C1216     1.0  0.98407  0.39654  0.45581  1.0000
  Fe  Fe243     1.0  0.88649  0.29655  0.65009  1.0000
  H   H1933     1.0  0.98902  0.00177  0.43836  1.0000
  H   H1934     1.0  0.76012  0.19979  0.32898  1.0000
  H   H1935     1.0  0.74144  0.15207  0.55178  1.0000
  H   H1936     1.0  0.93551  0.46812  0.47105  1.0000
  H   H1937     1.0  0.74488  0.20736  0.34889  1.0000
  H   H1938     1.0  0.78577  0.18821  0.55062  1.0000
  H   H1939     1.0  0.91592  0.48577  0.47323  1.0000
  C   C1217     1.0  0.88478  0.48282  0.51267  1.0000
  C   C1218     1.0  0.92824  0.47875  0.48027  1.0000
  H   H1940     1.0  0.77843  0.17683  0.52113  1.0000
  H   H1941     1.0  0.74707  0.16041  0.57321  1.0000
  H   H1942     1.0  0.97604  0.39084  0.44544  1.0000
  S   S485      1.0  0.98856  0.08440  0.42992  1.0000
  H   H1943     1.0  0.98446  0.02381  0.60020  1.0000
  H   H1944     1.0  0.75428  0.18601  0.52538  1.0000
  H   H1945     1.0  0.87011  0.48741  0.46175  1.0000
  C   C1219     1.0  0.98835  0.02326  0.53190  1.0000
  S   S486      1.0  0.89618  0.34482  0.32180  1.0000
  C   C1220     1.0  0.74073  0.14527  0.61910  1.0000
  H   H1946     1.0  0.84889  0.39442  0.65349  1.0000
  Fe  Fe244     1.0  0.80034  0.38542  0.83524  1.0000
  S   S487      1.0  0.82159  0.36071  0.83033  1.0000
  S   S488      1.0  0.77207  0.38333  0.85344  1.0000
  Fe  Fe245     1.0  0.82884  0.41426  0.81882  1.0000
  S   S489      1.0  0.85168  0.39101  0.81286  1.0000
  S   S490      1.0  0.84028  0.44328  0.81236  1.0000
  Fe  Fe246     1.0  0.82946  0.37609  0.80177  1.0000
  S   S491      1.0  0.83123  0.36100  0.77446  1.0000
  Fe  Fe247     1.0  0.84200  0.37788  0.84162  1.0000
  S   S492      1.0  0.86316  0.36649  0.86256  1.0000
  S   S493      1.0  0.80681  0.40018  0.80611  1.0000
  S   S494      1.0  0.82060  0.40173  0.84811  1.0000
  Fe  Fe248     1.0  0.88633  0.39939  0.96183  1.0000
  S   S495      1.0  0.86248  0.39661  0.94353  1.0000
  S   S496      1.0  0.91634  0.40449  0.95210  1.0000
  Fe  Fe249     1.0  0.89462  0.32440  0.67873  1.0000
  S   S497      1.0  0.90408  0.29391  0.67491  1.0000
  S   S498      1.0  0.89293  0.33779  0.70696  1.0000
  H   H1947     1.0  0.86053  0.41111  0.66424  1.0000
  H   H1948     1.0  0.93654  0.28551  0.72150  1.0000
  S   S499      1.0  0.91846  0.33524  0.65880  1.0000
  H   H1949     1.0  0.85561  0.39174  0.70491  1.0000
  H   H1950     1.0  0.96108  0.44407  0.93773  1.0000
  H   H1951     1.0  0.93854  0.29112  0.69645  1.0000
  H   H1952     1.0  0.88997  0.38982  0.66196  1.0000
  H   H1953     1.0  0.92111  0.30413  0.71114  1.0000
  H   H1954     1.0  0.97199  0.42085  0.93448  1.0000
  C   C1221     1.0  0.86848  0.38856  0.69523  1.0000
  C   C1222     1.0  0.84235  0.48068  0.81671  1.0000
  S   S500      1.0  0.95693  0.29125  0.65688  1.0000
  H   H1955     1.0  0.85278  0.48850  0.95269  1.0000
  N   N121      1.0  0.86371  0.38269  0.67719  1.0000
  H   H1956     1.0  0.97970  0.31160  0.71102  1.0000
  C   C1223     1.0  0.80502  0.48716  0.83139  1.0000
  H   H1957     1.0  0.89133  0.42813  0.87765  1.0000
  C   C1224     1.0  0.84879  0.35448  0.75604  1.0000
  C   C1225     1.0  0.86748  0.35902  0.75521  1.0000
  C   C1226     1.0  0.88072  0.35359  0.74025  1.0000
  C   C1227     1.0  0.87558  0.34355  0.72587  1.0000
  C   C1228     1.0  0.85691  0.33900  0.72668  1.0000
  C   C1229     1.0  0.84366  0.34447  0.74161  1.0000
  H   H1958     1.0  0.87171  0.36669  0.76613  1.0000
  H   H1959     1.0  0.89507  0.35727  0.73985  1.0000
  H   H1960     1.0  0.85265  0.33111  0.71596  1.0000
  H   H1961     1.0  0.82930  0.34076  0.74212  1.0000
  C   C1230     1.0  0.81209  0.46893  0.82681  1.0000
  C   C1231     1.0  0.83074  0.46567  0.81920  1.0000
  H   H1962     1.0  0.95855  0.33685  0.69724  1.0000
  H   H1963     1.0  0.80298  0.45753  0.82878  1.0000
  H   H1964     1.0  0.86910  0.46417  0.86159  1.0000
  C   C1232     1.0  0.86306  0.37530  0.88487  1.0000
  C   C1233     1.0  0.87929  0.37211  0.89467  1.0000
  C   C1234     1.0  0.87955  0.37882  0.91251  1.0000
  C   C1235     1.0  0.86340  0.38846  0.92085  1.0000
  C   C1236     1.0  0.84717  0.39162  0.91102  1.0000
  C   C1237     1.0  0.84705  0.38526  0.89306  1.0000
  H   H1965     1.0  0.89174  0.36436  0.88848  1.0000
  H   H1966     1.0  0.89210  0.37620  0.91997  1.0000
  H   H1967     1.0  0.83461  0.39905  0.91740  1.0000
  H   H1968     1.0  0.83448  0.38783  0.88570  1.0000
  H   H1969     1.0  0.94976  0.32120  0.68285  1.0000
  C   C1238     1.0  0.85256  0.36615  0.68093  1.0000
  C   C1239     1.0  0.75559  0.36584  0.85693  1.0000
  C   C1240     1.0  0.75641  0.35104  0.84542  1.0000
  H   H1970     1.0  0.93110  0.32590  0.73226  1.0000
  H   H1971     1.0  0.97201  0.29541  0.69646  1.0000
  H   H1972     1.0  0.76727  0.35004  0.83382  1.0000
  C   C1241     1.0  0.92935  0.47232  0.96785  1.0000
  N   N122      1.0  0.94956  0.31108  0.71203  1.0000
  C   C1242     1.0  0.94566  0.31876  0.73057  1.0000
  C   C1243     1.0  0.85256  0.39837  0.66725  1.0000
  C   C1244     1.0  0.94781  0.32665  0.69696  1.0000
  C   C1245     1.0  0.93582  0.29735  0.71023  1.0000
  H   H1973     1.0  0.95067  0.43354  0.97048  1.0000
  H   H1974     1.0  0.83960  0.36911  0.69054  1.0000
  Fe  Fe250     1.0  0.92374  0.38925  0.97979  1.0000
  C   C1246     1.0  0.88126  0.37765  0.66533  1.0000
  H   H1975     1.0  0.97083  0.28988  0.72150  1.0000
  Fe  Fe251     1.0  0.92709  0.30506  0.65403  1.0000
  C   C1247     1.0  0.96887  0.30159  0.71024  1.0000
  H   H1976     1.0  0.86085  0.35385  0.68774  1.0000
  Fe  Fe252     1.0  0.91168  0.42984  0.96838  1.0000
  H   H1977     1.0  0.84820  0.36169  0.66769  1.0000
  N   N123      1.0  0.80401  0.34467  0.89018  1.0000
  C   C1248     1.0  0.79306  0.33744  0.87643  1.0000
  C   C1249     1.0  0.79911  0.36518  0.89069  1.0000
  C   C1250     1.0  0.82439  0.34109  0.88453  1.0000
  C   C1251     1.0  0.79946  0.33501  0.90907  1.0000
  H   H1978     1.0  0.79685  0.32215  0.87509  1.0000
  H   H1979     1.0  0.79552  0.34500  0.86217  1.0000
  H   H1980     1.0  0.77763  0.33939  0.88058  1.0000
  H   H1981     1.0  0.80652  0.37103  0.90142  1.0000
  H   H1982     1.0  0.80305  0.37294  0.87682  1.0000
  H   H1983     1.0  0.78366  0.36853  0.89391  1.0000
  H   H1984     1.0  0.83313  0.34664  0.89440  1.0000
  H   H1985     1.0  0.82829  0.34805  0.87027  1.0000
  H   H1986     1.0  0.82872  0.32577  0.88409  1.0000
  H   H1987     1.0  0.80764  0.34003  0.91975  1.0000
  H   H1988     1.0  0.80281  0.31948  0.90913  1.0000
  H   H1989     1.0  0.78421  0.33762  0.91382  1.0000
  N   N124      1.0  0.86652  0.43437  0.86268  1.0000
  C   C1252     1.0  0.84583  0.43662  0.86705  1.0000
  C   C1253     1.0  0.87297  0.45209  0.85288  1.0000
  C   C1254     1.0  0.87155  0.41892  0.85035  1.0000
  C   C1255     1.0  0.87570  0.42982  0.88037  1.0000
  H   H1990     1.0  0.83845  0.43972  0.85397  1.0000
  H   H1991     1.0  0.84146  0.44839  0.87604  1.0000
  H   H1992     1.0  0.84051  0.42359  0.87468  1.0000
  H   H1993     1.0  0.74357  0.32640  0.83952  1.0000
  H   H1994     1.0  0.88852  0.45095  0.84948  1.0000
  H   H1995     1.0  0.86644  0.45564  0.83937  1.0000
  H   H1996     1.0  0.86632  0.40550  0.85698  1.0000
  H   H1997     1.0  0.88707  0.41634  0.84720  1.0000
  H   H1998     1.0  0.86527  0.42203  0.83667  1.0000
  H   H1999     1.0  0.93364  0.33457  0.69826  1.0000
  H   H2000     1.0  0.87134  0.41636  0.88792  1.0000
  H   H2001     1.0  0.87197  0.44100  0.89019  1.0000
  H   H2002     1.0  0.87740  0.37726  0.70279  1.0000
  S   S501      1.0  0.92158  0.45683  0.95345  1.0000
  H   H2003     1.0  0.94687  0.30741  0.74231  1.0000
  H   H2004     1.0  0.85684  0.47828  0.81088  1.0000
  C   C1256     1.0  0.97438  0.43476  0.93916  1.0000
  S   S502      1.0  0.88125  0.42618  0.97622  1.0000
  H   H2005     1.0  0.83915  0.40242  0.67576  1.0000
  H   H2006     1.0  0.95568  0.32929  0.73233  1.0000
  S   S503      1.0  0.95147  0.37075  0.97762  1.0000
  C   C1257     1.0  0.98226  0.45143  0.96465  1.0000
  C   C1258     1.0  0.96410  0.42450  0.97124  1.0000
  H   H2007     1.0  0.87646  0.40131  0.69302  1.0000
  N   N125      1.0  0.97949  0.43274  0.95879  1.0000
  H   H2008     1.0  0.96147  0.41043  0.96718  1.0000
  S   S504      1.0  0.87526  0.32642  0.65557  1.0000
  H   H2009     1.0  0.98565  0.44089  0.92926  1.0000
  H   H2010     1.0  0.85095  0.47733  0.97640  1.0000
  C   C1259     1.0  0.86103  0.48245  0.96456  1.0000
  H   H2011     1.0  0.87000  0.46985  0.95982  1.0000
  H   H2012     1.0  0.89010  0.36601  0.67255  1.0000
  C   C1260     1.0  0.97786  0.30293  0.65633  1.0000
  C   C1261     1.0  0.74291  0.33763  0.84870  1.0000
  H   H2013     1.0  0.89178  0.47466  0.98252  1.0000
  C   C1262     1.0  0.98964  0.37186  0.97924  1.0000
  C   C1263     1.0  0.74128  0.36682  0.87192  1.0000
  H   H2014     1.0  0.98575  0.45033  0.97955  1.0000
  H   H2015     1.0  0.96927  0.46125  0.96361  1.0000
  C   C1264     1.0  0.88319  0.48779  0.98628  1.0000
  H   H2016     1.0  0.74331  0.12758  0.68545  1.0000
  H   H2017     1.0  0.74058  0.37811  0.88103  1.0000
  C   C1265     1.0  0.93154  0.46700  0.98688  1.0000
  H   H2018     1.0  0.96730  0.42277  0.98622  1.0000
  H   H2019     1.0  0.88225  0.51136  0.10283  1.0000
  H   H2020     1.0  0.83407  0.52388  0.12494  1.0000
  H   H2021     1.0  0.94202  0.60899  0.26155  1.0000
  C   C1266     1.0  0.93278  0.62195  0.26459  1.0000
  Fe  Fe253     1.0  0.88707  0.64025  0.29968  1.0000
  S   S505      1.0  0.87919  0.62001  0.27879  1.0000
  S   S506      1.0  0.89502  0.67001  0.29250  1.0000
  Fe  Fe254     1.0  0.80734  0.58984  0.15169  1.0000
  S   S507      1.0  0.83458  0.60318  0.15196  1.0000
  S   S508      1.0  0.78642  0.60837  0.13393  1.0000
  Fe  Fe255     1.0  0.82341  0.55339  0.17283  1.0000
  S   S509      1.0  0.85129  0.56500  0.17487  1.0000
  S   S510      1.0  0.82113  0.52316  0.18601  1.0000
  Fe  Fe256     1.0  0.83451  0.59194  0.18262  1.0000
  S   S511      1.0  0.83907  0.61451  0.20262  1.0000
  Fe  Fe257     1.0  0.84899  0.57541  0.14436  1.0000
  S   S512      1.0  0.87485  0.57039  0.12355  1.0000
  S   S513      1.0  0.80645  0.57966  0.18264  1.0000
  S   S514      1.0  0.82206  0.56258  0.14204  1.0000
  Fe  Fe258     1.0  0.92731  0.54242  0.99733  1.0000
  S   S515      1.0  0.89597  0.54370  0.99756  1.0000
  S   S516      1.0  0.94409  0.51527  0.00547  1.0000
  Fe  Fe259     1.0  0.89571  0.57014  0.01195  1.0000
  S   S517      1.0  0.87223  0.57810  0.03443  1.0000
  S   S518      1.0  0.92698  0.56733  0.01409  1.0000
  H   H2022     1.0  0.93977  0.62959  0.27437  1.0000
  H   H2023     1.0  0.84904  0.52026  0.15470  1.0000
  H   H2024     1.0  0.92356  0.65929  0.26139  1.0000
  C   C1267     1.0  0.87371  0.57206  0.09884  1.0000
  C   C1268     1.0  0.85721  0.57895  0.09063  1.0000
  C   C1269     1.0  0.85695  0.58043  0.07090  1.0000
  C   C1270     1.0  0.87306  0.57482  0.05920  1.0000
  C   C1271     1.0  0.88948  0.56756  0.06743  1.0000
  C   C1272     1.0  0.88982  0.56633  0.08715  1.0000
  H   H2025     1.0  0.84471  0.58340  0.09945  1.0000
  H   H2026     1.0  0.84418  0.58605  0.06468  1.0000
  H   H2027     1.0  0.90195  0.56307  0.05861  1.0000
  H   H2028     1.0  0.90264  0.56095  0.09339  1.0000
  C   C1273     1.0  0.81008  0.50442  0.15722  1.0000
  C   C1274     1.0  0.81761  0.50294  0.17464  1.0000
  H   H2029     1.0  0.85062  0.54045  0.11538  1.0000
  H   H2030     1.0  0.80614  0.51821  0.15038  1.0000
  C   C1275     1.0  0.98208  0.59144  0.99171  1.0000
  C   C1276     1.0  0.86300  0.52120  0.14650  1.0000
  H   H2031     1.0  0.87276  0.62404  0.03671  1.0000
  C   C1277     1.0  0.76163  0.61435  0.13396  1.0000
  H   H2032     1.0  0.76040  0.65313  0.17549  1.0000
  H   H2033     1.0  0.96656  0.62830  0.31785  1.0000
  C   C1278     1.0  0.86785  0.61894  0.25760  1.0000
  C   C1279     1.0  0.85950  0.63494  0.24764  1.0000
  C   C1280     1.0  0.85091  0.63326  0.23095  1.0000
  C   C1281     1.0  0.85055  0.61563  0.22373  1.0000
  C   C1282     1.0  0.85913  0.59969  0.23356  1.0000
  C   C1283     1.0  0.86764  0.60136  0.25030  1.0000
  H   H2034     1.0  0.85946  0.64860  0.25290  1.0000
  H   H2035     1.0  0.84438  0.64576  0.22360  1.0000
  H   H2036     1.0  0.85903  0.58600  0.22839  1.0000
  H   H2037     1.0  0.87400  0.58882  0.25774  1.0000
  H   H2038     1.0  0.91944  0.61735  0.27225  1.0000
  C   C1284     1.0  0.84829  0.52518  0.11732  1.0000
  H   H2039     1.0  0.88044  0.63786  0.01533  1.0000
  H   H2040     1.0  0.76434  0.62792  0.10568  1.0000
  H   H2041     1.0  0.91628  0.63216  0.22153  1.0000
  H   H2042     1.0  0.90306  0.64723  0.25919  1.0000
  N   N126      1.0  0.79009  0.64495  0.17619  1.0000
  C   C1285     1.0  0.77374  0.65299  0.16604  1.0000
  C   C1286     1.0  0.80732  0.64464  0.16294  1.0000
  C   C1287     1.0  0.78698  0.62553  0.18412  1.0000
  C   C1288     1.0  0.79244  0.65650  0.19165  1.0000
  H   H2043     1.0  0.84571  0.49190  0.13840  1.0000
  H   H2044     1.0  0.77185  0.64456  0.15418  1.0000
  H   H2045     1.0  0.77552  0.66769  0.15991  1.0000
  H   H2046     1.0  0.81991  0.63839  0.17009  1.0000
  H   H2047     1.0  0.80597  0.63610  0.15102  1.0000
  H   H2048     1.0  0.81024  0.65905  0.15675  1.0000
  H   H2049     1.0  0.79910  0.61904  0.19186  1.0000
  H   H2050     1.0  0.78524  0.61640  0.17283  1.0000
  H   H2051     1.0  0.77409  0.62514  0.19417  1.0000
  H   H2052     1.0  0.80472  0.65058  0.19950  1.0000
  H   H2053     1.0  0.77975  0.65698  0.20199  1.0000
  H   H2054     1.0  0.79494  0.67125  0.18622  1.0000
  N   N127      1.0  0.86312  0.51418  0.12776  1.0000
  H   H2055     1.0  0.90621  0.59541  0.03845  1.0000
  H   H2056     1.0  0.89241  0.64340  0.05341  1.0000
  C   C1289     1.0  0.91745  0.62495  0.01562  1.0000
  H   H2057     1.0  0.98481  0.51988  0.01300  1.0000
  S   S519      1.0  0.95152  0.66263  0.29136  1.0000
  C   C1290     1.0  0.74892  0.61018  0.14966  1.0000
  C   C1291     1.0  0.75467  0.62453  0.11789  1.0000
  C   C1292     1.0  0.97096  0.66694  0.30345  1.0000
  C   C1293     1.0  0.90646  0.60870  0.04522  1.0000
  Fe  Fe260     1.0  0.92194  0.66067  0.30611  1.0000
  C   C1294     1.0  0.88407  0.62506  0.02486  1.0000
  C   C1295     1.0  0.93933  0.49852  0.99084  1.0000
  C   C1296     1.0  0.90336  0.64270  0.04123  1.0000
  H   H2058     1.0  0.89555  0.60833  0.05747  1.0000
  H   H2059     1.0  0.91739  0.61199  0.00827  1.0000
  H   H2060     1.0  0.88354  0.61267  0.01675  1.0000
  H   H2061     1.0  0.89325  0.50829  0.12459  1.0000
  H   H2062     1.0  0.95456  0.64780  0.24661  1.0000
  H   H2063     1.0  0.95686  0.62727  0.23369  1.0000
  H   H2064     1.0  0.91731  0.64330  0.04665  1.0000
  H   H2065     1.0  0.97551  0.57841  0.99526  1.0000
  S   S520      1.0  0.91468  0.63083  0.31189  1.0000
  N   N128      1.0  0.92911  0.63401  0.24713  1.0000
  C   C1297     1.0  0.91685  0.65102  0.25191  1.0000
  H   H2066     1.0  0.88486  0.53140  0.11521  1.0000
  H   H2067     1.0  0.84801  0.52038  0.10305  1.0000
  H   H2068     1.0  0.92846  0.61051  0.23070  1.0000
  H   H2069     1.0  0.91378  0.66051  0.23912  1.0000
  C   C1298     1.0  0.94717  0.63973  0.23745  1.0000
  H   H2070     1.0  0.97115  0.54265  0.98882  1.0000
  C   C1299     1.0  0.91961  0.62341  0.23470  1.0000
  H   H2071     1.0  0.90603  0.61878  0.24182  1.0000
  H   H2072     1.0  0.94495  0.64893  0.22425  1.0000
  H   H2073     1.0  0.98710  0.50172  0.99731  1.0000
  H   H2074     1.0  0.93188  0.62502  0.02012  1.0000
  H   H2075     1.0  0.92048  0.60839  0.05073  1.0000
  H   H2076     1.0  0.84999  0.50906  0.98845  1.0000
  N   N129      1.0  0.90283  0.62537  0.03173  1.0000
  H   H2077     1.0  0.86604  0.53625  0.14530  1.0000
  H   H2078     1.0  0.91519  0.63717  0.00495  1.0000
  H   H2079     1.0  0.90078  0.65556  0.03142  1.0000
  H   H2080     1.0  0.75401  0.60242  0.16215  1.0000
  H   H2081     1.0  0.87368  0.51300  0.15501  1.0000
  C   C1300     1.0  0.88170  0.51635  0.11713  1.0000
  H   H2082     1.0  0.80102  0.48933  0.13557  1.0000
  H   H2083     1.0  0.89297  0.49754  0.99043  1.0000
  C   C1301     1.0  0.98946  0.66305  0.29521  1.0000
  C   C1302     1.0  0.85947  0.49404  0.13011  1.0000
  Fe  Fe261     1.0  0.89995  0.63473  0.63481  1.0000
  S   S521      1.0  0.89783  0.60959  0.61802  1.0000
  S   S522      1.0  0.91002  0.66199  0.62150  1.0000
  H   H2084     1.0  0.92488  0.49950  0.50990  1.0000
  H   H2085     1.0  0.77244  0.85238  0.62626  1.0000
  Fe  Fe262     1.0  0.90140  0.63924  0.33986  1.0000
  S   S523      1.0  0.91283  0.62273  0.36569  1.0000
  S   S524      1.0  0.91021  0.66880  0.33473  1.0000
  Fe  Fe263     1.0  0.89185  0.54883  0.50008  1.0000
  S   S525      1.0  0.87550  0.57753  0.49978  1.0000
  S   S526      1.0  0.88413  0.52083  0.51511  1.0000
  Fe  Fe264     1.0  0.92714  0.56467  0.48093  1.0000
  S   S527      1.0  0.91408  0.59448  0.47874  1.0000
  S   S528      1.0  0.95695  0.55356  0.47275  1.0000
  Fe  Fe265     1.0  0.90172  0.58795  0.50869  1.0000
  S   S529      1.0  0.90483  0.61070  0.52830  1.0000
  Fe  Fe266     1.0  0.88914  0.58202  0.46991  1.0000
  S   S530      1.0  0.87244  0.59564  0.44588  1.0000
  S   S531      1.0  0.91690  0.55904  0.51126  1.0000
  S   S532      1.0  0.90329  0.55248  0.46980  1.0000
  Fe  Fe267     1.0  0.81476  0.81498  0.41768  1.0000
  S   S533      1.0  0.81104  0.84119  0.39786  1.0000
  S   S534      1.0  0.79943  0.81805  0.44676  1.0000
  Fe  Fe268     1.0  0.83716  0.79246  0.38659  1.0000
  S   S535      1.0  0.83414  0.81733  0.36490  1.0000
  S   S536      1.0  0.85844  0.76686  0.38187  1.0000
  Fe  Fe269     1.0  0.84153  0.83413  0.38774  1.0000
  S   S537      1.0  0.86295  0.85610  0.38277  1.0000
  Fe  Fe270     1.0  0.80372  0.82195  0.37722  1.0000
  S   S538      1.0  0.77731  0.82508  0.36058  1.0000
  S   S539      1.0  0.84558  0.80937  0.40896  1.0000
  S   S540      1.0  0.80641  0.79569  0.39754  1.0000
  Fe  Fe271     1.0  0.80240  0.83683  0.58160  1.0000
  S   S541      1.0  0.81181  0.80750  0.57287  1.0000
  S   S542      1.0  0.77042  0.84548  0.58645  1.0000
  Fe  Fe272     1.0  0.84357  0.84763  0.57825  1.0000
  S   S543      1.0  0.85535  0.81933  0.56967  1.0000
  S   S544      1.0  0.86173  0.87053  0.58418  1.0000
  Fe  Fe273     1.0  0.83165  0.82199  0.55076  1.0000
  S   S545      1.0  0.84191  0.81324  0.52140  1.0000
  Fe  Fe274     1.0  0.83478  0.80710  0.59223  1.0000
  S   S546      1.0  0.84387  0.78532  0.61597  1.0000
  S   S547      1.0  0.82099  0.85127  0.55805  1.0000
  S   S548      1.0  0.82423  0.83550  0.60225  1.0000
  Fe  Fe275     1.0  0.96711  0.86857  0.41213  1.0000
  S   S549      1.0  0.97090  0.88657  0.43521  1.0000
  S   S550      1.0  0.94284  0.84938  0.41657  1.0000
  Fe  Fe276     1.0  0.97028  0.89717  0.56284  1.0000
  S   S551      1.0  0.97050  0.92778  0.55190  1.0000
  S   S552      1.0  0.94904  0.87679  0.55726  1.0000
  N   N130      1.0  0.85392  0.65563  0.58376  1.0000
  H   H2086     1.0  0.85040  0.72311  0.59017  1.0000
  H   H2087     1.0  0.95836  0.51291  0.46862  1.0000
  H   H2088     1.0  0.89559  0.77316  0.35683  1.0000
  H   H2089     1.0  0.91239  0.83042  0.62007  1.0000
  H   H2090     1.0  0.97361  0.87131  0.52135  1.0000
  C   C1303     1.0  0.88603  0.87202  0.57660  1.0000
  C   C1304     1.0  0.89541  0.88660  0.58228  1.0000
  C   C1305     1.0  0.91470  0.88826  0.57663  1.0000
  C   C1306     1.0  0.92483  0.87529  0.56522  1.0000
  C   C1307     1.0  0.91548  0.86062  0.55965  1.0000
  C   C1308     1.0  0.89620  0.85898  0.56527  1.0000
  H   H2091     1.0  0.88768  0.89676  0.59105  1.0000
  H   H2092     1.0  0.92167  0.89963  0.58102  1.0000
  H   H2093     1.0  0.92318  0.85048  0.55086  1.0000
  H   H2094     1.0  0.88917  0.84775  0.56070  1.0000
  C   C1309     1.0  0.75712  0.84122  0.35593  1.0000
  H   H2095     1.0  0.74924  0.79369  0.41781  1.0000
  C   C1310     1.0  0.97546  0.66537  0.65243  1.0000
  C   C1311     1.0  0.77426  0.78980  0.60431  1.0000
  S   S553      1.0  0.97697  0.95698  0.59437  1.0000
  H   H2096     1.0  0.86153  0.75886  0.64307  1.0000
  H   H2097     1.0  0.94439  0.60822  0.33810  1.0000
  C   C1312     1.0  0.81129  0.81644  0.46751  1.0000
  C   C1313     1.0  0.80182  0.82331  0.48396  1.0000
  C   C1314     1.0  0.81090  0.82240  0.50065  1.0000
  C   C1315     1.0  0.82951  0.81444  0.50105  1.0000
  C   C1316     1.0  0.83892  0.80749  0.48461  1.0000
  C   C1317     1.0  0.82990  0.80853  0.46791  1.0000
  H   H2098     1.0  0.78739  0.82939  0.48382  1.0000
  H   H2099     1.0  0.80351  0.82779  0.51321  1.0000
  H   H2100     1.0  0.85327  0.80118  0.48485  1.0000
  H   H2101     1.0  0.83725  0.80291  0.45546  1.0000
  C   C1318     1.0  0.88522  0.85392  0.39208  1.0000
  C   C1319     1.0  0.89754  0.86814  0.38705  1.0000
  C   C1320     1.0  0.91525  0.86702  0.39434  1.0000
  C   C1321     1.0  0.92079  0.85167  0.40683  1.0000
  C   C1322     1.0  0.90842  0.83750  0.41193  1.0000
  C   C1323     1.0  0.89077  0.83856  0.40458  1.0000
  H   H2102     1.0  0.89339  0.88011  0.37742  1.0000
  H   H2103     1.0  0.92461  0.87804  0.39029  1.0000
  H   H2104     1.0  0.91258  0.82559  0.42161  1.0000
  H   H2105     1.0  0.88151  0.82752  0.40863  1.0000
  C   C1324     1.0  0.97328  0.56902  0.47693  1.0000
  C   C1325     1.0  0.96772  0.58813  0.47847  1.0000
  H   H2106     1.0  0.83747  0.63185  0.59017  1.0000
  H   H2107     1.0  0.75412  0.85311  0.41252  1.0000
  H   H2108     1.0  0.95354  0.59369  0.47606  1.0000
  H   H2109     1.0  0.91261  0.83109  0.59500  1.0000
  C   C1326     1.0  0.88193  0.50081  0.50310  1.0000
  H   H2110     1.0  0.95424  0.67692  0.32771  1.0000
  C   C1327     1.0  0.90932  0.80565  0.34199  1.0000
  H   H2111     1.0  0.93105  0.57594  0.54276  1.0000
  H   H2112     1.0  0.86687  0.63553  0.60407  1.0000
  H   H2113     1.0  0.87074  0.72438  0.64434  1.0000
  H   H2114     1.0  0.85687  0.65723  0.61309  1.0000
  H   H2115     1.0  0.87857  0.65673  0.59830  1.0000
  C   C1328     1.0  0.86118  0.71943  0.34205  1.0000
  C   C1329     1.0  0.87582  0.72073  0.35330  1.0000
  C   C1330     1.0  0.87472  0.73535  0.36534  1.0000
  C   C1331     1.0  0.85911  0.74894  0.36619  1.0000
  C   C1332     1.0  0.84458  0.74775  0.35481  1.0000
  C   C1333     1.0  0.84561  0.73304  0.34289  1.0000
  H   H2116     1.0  0.88791  0.71042  0.35281  1.0000
  H   H2117     1.0  0.88604  0.73610  0.37409  1.0000
  H   H2118     1.0  0.83248  0.75806  0.35528  1.0000
  C   C1334     1.0  0.90114  0.61516  0.38774  1.0000
  C   C1335     1.0  0.91203  0.60877  0.40275  1.0000
  C   C1336     1.0  0.90344  0.60261  0.42056  1.0000
  C   C1337     1.0  0.88381  0.60277  0.42353  1.0000
  C   C1338     1.0  0.87291  0.60899  0.40846  1.0000
  C   C1339     1.0  0.88154  0.61510  0.39060  1.0000
  H   H2119     1.0  0.92722  0.60860  0.40065  1.0000
  H   H2120     1.0  0.91197  0.59778  0.43202  1.0000
  H   H2121     1.0  0.85774  0.60886  0.41059  1.0000
  H   H2122     1.0  0.87310  0.61935  0.37898  1.0000
  C   C1340     1.0  0.86126  0.72127  0.61736  1.0000
  C   C1341     1.0  0.85302  0.73090  0.60168  1.0000
  C   C1342     1.0  0.84808  0.75055  0.60075  1.0000
  C   C1343     1.0  0.85100  0.76077  0.61570  1.0000
  C   C1344     1.0  0.85930  0.75117  0.63135  1.0000
  C   C1345     1.0  0.86455  0.73158  0.63213  1.0000
  H   H2123     1.0  0.84170  0.75769  0.58862  1.0000
  H   H2124     1.0  0.76429  0.86357  0.37116  1.0000
  C   C1346     1.0  0.96703  0.56882  0.52712  1.0000
  C   C1347     1.0  0.90023  0.60993  0.59305  1.0000
  C   C1348     1.0  0.90746  0.62498  0.58150  1.0000
  C   C1349     1.0  0.90891  0.62484  0.56173  1.0000
  C   C1350     1.0  0.90301  0.60977  0.55326  1.0000
  C   C1351     1.0  0.89595  0.59462  0.56480  1.0000
  C   C1352     1.0  0.89464  0.59470  0.58458  1.0000
  H   H2125     1.0  0.91201  0.63670  0.58778  1.0000
  H   H2126     1.0  0.91451  0.63657  0.55294  1.0000
  H   H2127     1.0  0.89137  0.58290  0.55850  1.0000
  H   H2128     1.0  0.88907  0.58295  0.59339  1.0000
  C   C1353     1.0  0.86451  0.65104  0.60052  1.0000
  C   C1354     1.0  0.75360  0.85444  0.60441  1.0000
  C   C1355     1.0  0.75394  0.85891  0.36308  1.0000
  S   S554      1.0  0.86619  0.69630  0.61814  1.0000
  H   H2129     1.0  0.75183  0.82239  0.44608  1.0000
  H   H2130     1.0  0.84241  0.68279  0.59207  1.0000
  H   H2131     1.0  0.75517  0.80923  0.64410  1.0000
  H   H2132     1.0  0.93324  0.88788  0.51804  1.0000
  C   C1356     1.0  0.83555  0.64749  0.58731  1.0000
  N   N131      1.0  0.95705  0.88113  0.49828  1.0000
  C   C1357     1.0  0.93915  0.87644  0.50909  1.0000
  H   H2133     1.0  0.94127  0.86343  0.51885  1.0000
  H   H2134     1.0  0.83416  0.73215  0.33432  1.0000
  H   H2135     1.0  0.78668  0.82072  0.61538  1.0000
  H   H2136     1.0  0.98703  0.59198  0.54259  1.0000
  H   H2137     1.0  0.80324  0.80077  0.62033  1.0000
  H   H2138     1.0  0.94354  0.89679  0.47536  1.0000
  S   S555      1.0  0.87298  0.64610  0.32867  1.0000
  H   H2139     1.0  0.90022  0.77502  0.38057  1.0000
  C   C1358     1.0  0.98406  0.67640  0.33077  1.0000
  H   H2140     1.0  0.92464  0.81142  0.60782  1.0000
  C   C1359     1.0  0.89424  0.80000  0.59461  1.0000
  H   H2141     1.0  0.91954  0.77318  0.36248  1.0000
  C   C1360     1.0  0.88385  0.80789  0.36659  1.0000
  C   C1361     1.0  0.74393  0.86173  0.63676  1.0000
  H   H2142     1.0  0.93100  0.80292  0.37084  1.0000
  N   N132      1.0  0.95950  0.58382  0.53932  1.0000
  H   H2143     1.0  0.78799  0.78230  0.59946  1.0000
  C   C1362     1.0  0.97729  0.95946  0.40780  1.0000
  C   C1363     1.0  0.90487  0.77951  0.36562  1.0000
  H   H2144     1.0  0.94005  0.51717  0.49937  1.0000
  H   H2145     1.0  0.97842  0.57469  0.56054  1.0000
  H   H2146     1.0  0.88116  0.79252  0.59576  1.0000
  H   H2147     1.0  0.90839  0.82127  0.33887  1.0000
  H   H2148     1.0  0.86441  0.81876  0.61287  1.0000
  C   C1364     1.0  0.95412  0.60126  0.52748  1.0000
  Fe  Fe277     1.0  0.92463  0.66254  0.64779  1.0000
  Fe  Fe278     1.0  0.88258  0.67550  0.32201  1.0000
  H   H2149     1.0  0.76298  0.78048  0.60297  1.0000
  N   N133      1.0  0.85502  0.67123  0.38471  1.0000
  C   C1365     1.0  0.84610  0.69077  0.38459  1.0000
  C   C1366     1.0  0.87423  0.67127  0.37496  1.0000
  C   C1367     1.0  0.84362  0.65988  0.37482  1.0000
  C   C1368     1.0  0.85612  0.66302  0.40439  1.0000
  H   H2150     1.0  0.83199  0.69139  0.39270  1.0000
  H   H2151     1.0  0.84399  0.69693  0.36999  1.0000
  H   H2152     1.0  0.85490  0.70017  0.39075  1.0000
  H   H2153     1.0  0.88325  0.67979  0.38191  1.0000
  H   H2154     1.0  0.88137  0.65673  0.37474  1.0000
  H   H2155     1.0  0.87386  0.67739  0.36010  1.0000
  H   H2156     1.0  0.84273  0.66568  0.35986  1.0000
  H   H2157     1.0  0.82897  0.65963  0.38166  1.0000
  H   H2158     1.0  0.84983  0.64503  0.37467  1.0000
  H   H2159     1.0  0.86313  0.64842  0.40502  1.0000
  H   H2160     1.0  0.84187  0.66231  0.41210  1.0000
  H   H2161     1.0  0.86437  0.67146  0.41229  1.0000
  Fe  Fe279     1.0  0.88437  0.67585  0.63714  1.0000
  H   H2162     1.0  0.98188  0.68178  0.34448  1.0000
  H   H2163     1.0  0.76467  0.80423  0.39926  1.0000
  C   C1369     1.0  0.94841  0.50252  0.46620  1.0000
  S   S556      1.0  0.95323  0.67475  0.64511  1.0000
  C   C1370     1.0  0.93081  0.50643  0.49626  1.0000
  C   C1371     1.0  0.75810  0.85592  0.62277  1.0000
  H   H2164     1.0  0.95665  0.56613  0.51733  1.0000
  H   H2165     1.0  0.94598  0.56411  0.55980  1.0000
  H   H2166     1.0  0.96348  0.59036  0.34177  1.0000
  C   C1372     1.0  0.76147  0.83876  0.41162  1.0000
  H   H2167     1.0  0.88063  0.79160  0.63035  1.0000
  H   H2168     1.0  0.92835  0.87411  0.49964  1.0000
  C   C1373     1.0  0.85085  0.67635  0.58001  1.0000
  C   C1374     1.0  0.78901  0.80754  0.62477  1.0000
  H   H2169     1.0  0.93679  0.51054  0.45876  1.0000
  C   C1375     1.0  0.75556  0.80438  0.62976  1.0000
  N   N134      1.0  0.85328  0.85982  0.44924  1.0000
  C   C1376     1.0  0.84115  0.87739  0.44520  1.0000
  C   C1377     1.0  0.87328  0.86336  0.44425  1.0000
  C   C1378     1.0  0.84831  0.84518  0.43793  1.0000
  C   C1379     1.0  0.85035  0.85334  0.46950  1.0000
  H   H2170     1.0  0.82597  0.87517  0.44883  1.0000
  H   H2171     1.0  0.84294  0.88251  0.42995  1.0000
  H   H2172     1.0  0.84455  0.88885  0.45339  1.0000
  H   H2173     1.0  0.88282  0.85027  0.44666  1.0000
  H   H2174     1.0  0.87589  0.86857  0.42910  1.0000
  H   H2175     1.0  0.87766  0.87413  0.45271  1.0000
  H   H2176     1.0  0.85706  0.83164  0.44071  1.0000
  H   H2177     1.0  0.85046  0.84957  0.42257  1.0000
  H   H2178     1.0  0.83325  0.84229  0.44115  1.0000
  H   H2179     1.0  0.85372  0.86409  0.47856  1.0000
  H   H2180     1.0  0.85937  0.84015  0.47308  1.0000
  H   H2181     1.0  0.83545  0.85025  0.47367  1.0000
  N   N135      1.0  0.89439  0.81161  0.61055  1.0000
  H   H2182     1.0  0.74959  0.92376  0.63898  1.0000
  H   H2183     1.0  0.91505  0.82386  0.37186  1.0000
  H   H2184     1.0  0.74543  0.91974  0.61539  1.0000
  C   C1380     1.0  0.98057  0.60013  0.48306  1.0000
  H   H2185     1.0  0.94815  0.91068  0.49376  1.0000
  H   H2186     1.0  0.97475  0.98620  0.45357  1.0000
  C   C1381     1.0  0.98788  0.97826  0.58832  1.0000
  H   H2187     1.0  0.96664  0.60709  0.51931  1.0000
  N   N136      1.0  0.77415  0.79479  0.62386  1.0000
  C   C1382     1.0  0.91180  0.82152  0.60828  1.0000
  H   H2188     1.0  0.91205  0.80426  0.38922  1.0000
  H   H2189     1.0  0.96806  0.64682  0.35441  1.0000
  H   H2190     1.0  0.96746  0.85213  0.49601  1.0000
  H   H2191     1.0  0.97074  0.55527  0.53550  1.0000
  C   C1383     1.0  0.98426  0.61166  0.35919  1.0000
  H   H2192     1.0  0.76829  0.83808  0.39704  1.0000
  H   H2193     1.0  0.93731  0.58834  0.56139  1.0000
  H   H2194     1.0  0.75208  0.81704  0.61995  1.0000
  Fe  Fe280     1.0  0.98138  0.90804  0.41232  1.0000
  C   C1384     1.0  0.86479  0.64763  0.56732  1.0000
  H   H2195     1.0  0.84331  0.68045  0.56719  1.0000
  H   H2196     1.0  0.87866  0.65364  0.56416  1.0000
  H   H2197     1.0  0.87767  0.83506  0.62234  1.0000
  H   H2198     1.0  0.96561  0.89589  0.52030  1.0000
  S   S557      1.0  0.96987  0.93779  0.41880  1.0000
  N   N137      1.0  0.90354  0.80030  0.36205  1.0000
  H   H2199     1.0  0.82709  0.65312  0.59976  1.0000
  H   H2200     1.0  0.82710  0.65073  0.57499  1.0000
  H   H2201     1.0  0.77050  0.80260  0.42327  1.0000
  H   H2202     1.0  0.87905  0.80417  0.38164  1.0000
  H   H2203     1.0  0.85715  0.65056  0.55442  1.0000
  H   H2204     1.0  0.86764  0.63203  0.56983  1.0000
  C   C1385     1.0  0.94277  0.57774  0.55135  1.0000
  H   H2205     1.0  0.94946  0.59978  0.36153  1.0000
  H   H2206     1.0  0.91874  0.51420  0.48934  1.0000
  C   C1386     1.0  0.96836  0.67365  0.32129  1.0000
  H   H2207     1.0  0.89495  0.80880  0.58088  1.0000
  H   H2208     1.0  0.90641  0.78906  0.59410  1.0000
  C   C1387     1.0  0.96462  0.86545  0.48694  1.0000
  C   C1388     1.0  0.95376  0.89853  0.48565  1.0000
  H   H2209     1.0  0.98000  0.57275  0.51831  1.0000
  C   C1389     1.0  0.74345  0.83571  0.34521  1.0000
  H   H2210     1.0  0.94736  0.64116  0.34466  1.0000
  S   S558      1.0  0.97567  0.89076  0.38903  1.0000
  H   H2211     1.0  0.88213  0.82354  0.36395  1.0000
  H   H2212     1.0  0.97618  0.61491  0.48427  1.0000
  H   H2213     1.0  0.86447  0.68297  0.57801  1.0000
  H   H2214     1.0  0.98445  0.88761  0.50393  1.0000
  Fe  Fe281     1.0  0.98512  0.93168  0.57743  1.0000
  N   N138      1.0  0.74834  0.82394  0.41650  1.0000
  H   H2215     1.0  0.96706  0.90244  0.47737  1.0000
  H   H2216     1.0  0.77294  0.83718  0.42122  1.0000
  H   H2217     1.0  0.94693  0.61242  0.53613  1.0000
  H   H2218     1.0  0.90591  0.78851  0.62872  1.0000
  S   S559      1.0  0.98254  0.90153  0.58968  1.0000
  C   C1390     1.0  0.96807  0.97631  0.41393  1.0000
  N   N139      1.0  0.96913  0.61834  0.34689  1.0000
  C   C1391     1.0  0.77785  0.77749  0.63651  1.0000
  C   C1392     1.0  0.97414  0.58751  0.55131  1.0000
  H   H2219     1.0  0.87407  0.80199  0.35803  1.0000
  C   C1393     1.0  0.97079  0.88412  0.51152  1.0000
  H   H2220     1.0  0.89350  0.80760  0.64076  1.0000
  C   C1394     1.0  0.87784  0.82566  0.61084  1.0000
  H   H2221     1.0  0.95619  0.97573  0.42452  1.0000
  C   C1395     1.0  0.87706  0.50238  0.48453  1.0000
  H   H2222     1.0  0.87466  0.51619  0.47707  1.0000
  H   H2223     1.0  0.94418  0.59868  0.51720  1.0000
  H   H2224     1.0  0.77189  0.80264  0.59434  1.0000
  H   H2225     1.0  0.97816  0.86858  0.47866  1.0000
  C   C1396     1.0  0.91597  0.80816  0.37399  1.0000
  H   H2226     1.0  0.90013  0.80000  0.33262  1.0000
  H   H2227     1.0  0.95468  0.86279  0.47670  1.0000
  H   H2228     1.0  0.87775  0.83486  0.59741  1.0000
  C   C1397     1.0  0.95612  0.60348  0.34705  1.0000
  H   H2229     1.0  0.96897  0.59894  0.56052  1.0000
  H   H2230     1.0  0.79195  0.77014  0.63253  1.0000
  C   C1398     1.0  0.89362  0.79931  0.62840  1.0000
  H   H2231     1.0  0.92412  0.80012  0.33801  1.0000
  C   C1399     1.0  0.95861  0.63546  0.35388  1.0000
  H   H2232     1.0  0.97837  0.60825  0.37399  1.0000
  C   C1400     1.0  0.97755  0.62282  0.32746  1.0000
  H   H2233     1.0  0.95157  0.63248  0.36832  1.0000
  H   H2234     1.0  0.98892  0.69027  0.64106  1.0000
  C   C1401     1.0  0.75863  0.80528  0.41413  1.0000
  S   S560      1.0  0.87342  0.64823  0.64950  1.0000
  S   S561      1.0  0.86087  0.70039  0.32787  1.0000
  H   H2235     1.0  0.74564  0.82210  0.33958  1.0000
  H   H2236     1.0  0.78938  0.81169  0.63928  1.0000
  H   H2237     1.0  0.76709  0.76736  0.63600  1.0000
  H   H2238     1.0  0.95607  0.49250  0.45655  1.0000
  H   H2239     1.0  0.96690  0.49259  0.49719  1.0000
  N   N140      1.0  0.94112  0.49256  0.48413  1.0000
  H   H2240     1.0  0.74758  0.86254  0.65094  1.0000
  H   H2241     1.0  0.98766  0.63380  0.32691  1.0000
  H   H2242     1.0  0.74405  0.79496  0.62990  1.0000
  H   H2243     1.0  0.77769  0.78077  0.65140  1.0000
  C   C1402     1.0  0.74044  0.82470  0.43632  1.0000
  H   H2244     1.0  0.98542  0.61021  0.32159  1.0000
  H   H2245     1.0  0.99021  0.96377  0.47803  1.0000
  C   C1403     1.0  0.79422  0.63777  0.88855  1.0000
  C   C1404     1.0  0.75629  0.60283  0.87047  1.0000
  H   H2246     1.0  0.79679  0.65293  0.88775  1.0000
  C   C1405     1.0  0.82060  0.63134  0.86566  1.0000
  H   H2247     1.0  0.81099  0.62977  0.85472  1.0000
  C   C1406     1.0  0.98082  0.53564  0.97792  1.0000
  Fe  Fe282     1.0  0.89065  0.64954  0.67401  1.0000
  S   S562      1.0  0.88187  0.64621  0.70616  1.0000
  C   C1407     1.0  0.98004  0.62434  0.97987  1.0000
  Fe  Fe283     1.0  0.83623  0.58472  0.80322  1.0000
  S   S563      1.0  0.80658  0.57612  0.81017  1.0000
  S   S564      1.0  0.84691  0.58694  0.77139  1.0000
  Fe  Fe284     1.0  0.84232  0.58123  0.84601  1.0000
  S   S565      1.0  0.81346  0.57185  0.85504  1.0000
  S   S566      1.0  0.86135  0.59001  0.86691  1.0000
  Fe  Fe285     1.0  0.81895  0.55361  0.83078  1.0000
  S   S567      1.0  0.80652  0.52508  0.83363  1.0000
  Fe  Fe286     1.0  0.80334  0.59489  0.83389  1.0000
  S   S568      1.0  0.77880  0.61736  0.83928  1.0000
  S   S569      1.0  0.84879  0.56120  0.82314  1.0000
  S   S570      1.0  0.83206  0.60524  0.82550  1.0000
  C   C1408     1.0  0.93734  0.50376  0.97178  1.0000
  C   C1409     1.0  0.83769  0.53566  0.78620  1.0000
  Fe  Fe287     1.0  0.89970  0.56164  0.96993  1.0000
  H   H2248     1.0  0.80914  0.51345  0.78995  1.0000
  S   S571      1.0  0.88121  0.55279  0.94849  1.0000
  H   H2249     1.0  0.82974  0.53594  0.80032  1.0000
  H   H2250     1.0  0.84430  0.54919  0.78319  1.0000
  H   H2251     1.0  0.82084  0.59636  0.88335  1.0000
  C   C1410     1.0  0.87570  0.56361  0.92595  1.0000
  C   C1411     1.0  0.88331  0.58013  0.91780  1.0000
  C   C1412     1.0  0.87872  0.58797  0.89977  1.0000
  C   C1413     1.0  0.86649  0.57946  0.88964  1.0000
  C   C1414     1.0  0.85871  0.56305  0.89787  1.0000
  C   C1415     1.0  0.86333  0.55518  0.91589  1.0000
  H   H2252     1.0  0.89286  0.58678  0.92530  1.0000
  H   H2253     1.0  0.88486  0.60065  0.89355  1.0000
  H   H2254     1.0  0.84928  0.55632  0.89031  1.0000
  H   H2255     1.0  0.85732  0.54243  0.92203  1.0000
  H   H2256     1.0  0.83870  0.61891  0.89611  1.0000
  H   H2257     1.0  0.87856  0.50994  0.94248  1.0000
  C   C1416     1.0  0.97813  0.64752  0.66217  1.0000
  C   C1417     1.0  0.81658  0.50220  0.82880  1.0000
  H   H2258     1.0  0.84466  0.51002  0.82027  1.0000
  H   H2259     1.0  0.93929  0.51800  0.96589  1.0000
  C   C1418     1.0  0.80774  0.60585  0.88600  1.0000
  C   C1419     1.0  0.97149  0.60745  0.98406  1.0000
  C   C1420     1.0  0.75869  0.61740  0.85612  1.0000
  S   S572      1.0  0.93150  0.55812  0.96876  1.0000
  H   H2260     1.0  0.80007  0.54695  0.76063  1.0000
  H   H2261     1.0  0.76659  0.59074  0.87122  1.0000
  C   C1421     1.0  0.80949  0.54808  0.77181  1.0000
  C   C1422     1.0  0.87196  0.62948  0.72396  1.0000
  C   C1423     1.0  0.86809  0.61146  0.72023  1.0000
  C   C1424     1.0  0.86049  0.59877  0.73487  1.0000
  C   C1425     1.0  0.85654  0.60380  0.75352  1.0000
  C   C1426     1.0  0.86046  0.62180  0.75726  1.0000
  C   C1427     1.0  0.86813  0.63446  0.74263  1.0000
  H   H2262     1.0  0.87091  0.60728  0.70604  1.0000
  H   H2263     1.0  0.85758  0.58494  0.73167  1.0000
  H   H2264     1.0  0.85755  0.62601  0.77143  1.0000
  H   H2265     1.0  0.87095  0.64832  0.74582  1.0000
  H   H2266     1.0  0.83396  0.62248  0.86229  1.0000
  H   H2267     1.0  0.84809  0.52292  0.75251  1.0000
  H   H2268     1.0  0.81485  0.56235  0.76946  1.0000
  H   H2269     1.0  0.82707  0.53204  0.74166  1.0000
  H   H2270     1.0  0.74669  0.64428  0.84434  1.0000
  N   N141      1.0  0.82516  0.53302  0.77170  1.0000
  N   N142      1.0  0.81194  0.62576  0.88477  1.0000
  H   H2271     1.0  0.81924  0.62369  0.91335  1.0000
  C   C1428     1.0  0.83603  0.53398  0.75301  1.0000
  H   H2272     1.0  0.78403  0.63634  0.87807  1.0000
  H   H2273     1.0  0.78714  0.63382  0.90276  1.0000
  H   H2274     1.0  0.82398  0.64629  0.86417  1.0000
  H   H2275     1.0  0.82882  0.64277  0.89824  1.0000
  H   H2276     1.0  0.79790  0.60371  0.87547  1.0000
  S   S573      1.0  0.89962  0.67845  0.66260  1.0000
  C   C1429     1.0  0.82523  0.62793  0.89876  1.0000
  H   H2277     1.0  0.84192  0.54794  0.74960  1.0000
  H   H2278     1.0  0.80067  0.54737  0.78556  1.0000
  H   H2279     1.0  0.80102  0.60115  0.90015  1.0000
  C   C1430     1.0  0.83543  0.49877  0.82180  1.0000
  H   H2280     1.0  0.80799  0.51184  0.76523  1.0000
  H   H2281     1.0  0.82890  0.50271  0.77631  1.0000
  N   N143      1.0  0.93802  0.64867  0.71263  1.0000
  C   C1431     1.0  0.92669  0.65129  0.73077  1.0000
  C   C1432     1.0  0.93193  0.66370  0.69828  1.0000
  C   C1433     1.0  0.93520  0.63008  0.70651  1.0000
  C   C1434     1.0  0.95820  0.64961  0.71491  1.0000
  H   H2282     1.0  0.93085  0.64018  0.74196  1.0000
  H   H2283     1.0  0.91138  0.65054  0.72948  1.0000
  H   H2284     1.0  0.92824  0.66526  0.73571  1.0000
  H   H2285     1.0  0.93975  0.66191  0.68423  1.0000
  H   H2286     1.0  0.91665  0.66369  0.69662  1.0000
  H   H2287     1.0  0.93423  0.67794  0.70212  1.0000
  H   H2288     1.0  0.94348  0.62763  0.69283  1.0000
  H   H2289     1.0  0.92010  0.62896  0.70460  1.0000
  H   H2290     1.0  0.93952  0.61837  0.71705  1.0000
  H   H2291     1.0  0.96337  0.63836  0.72551  1.0000
  H   H2292     1.0  0.96081  0.66345  0.71955  1.0000
  H   H2293     1.0  0.96708  0.64789  0.70141  1.0000
  C   C1435     1.0  0.81747  0.51444  0.77591  1.0000
  H   H2294     1.0  0.84930  0.52418  0.78705  1.0000
  H   H2295     1.0  0.85241  0.52008  0.96468  1.0000
  H   H2296     1.0  0.96649  0.63877  0.66498  1.0000
  C   C1436     1.0  0.74499  0.63291  0.85536  1.0000
  N   N144      1.0  0.87264  0.49646  0.97042  1.0000
  H   H2297     1.0  0.93116  0.49472  0.94547  1.0000
  H   H2298     1.0  0.98342  0.54640  0.96583  1.0000
  S   S574      1.0  0.89747  0.58842  0.98441  1.0000
  H   H2299     1.0  0.97205  0.63678  0.97400  1.0000
  C   C1437     1.0  0.93274  0.49056  0.96022  1.0000
  S   S575      1.0  0.91661  0.63396  0.66022  1.0000
  C   C1438     1.0  0.74050  0.60392  0.88396  1.0000
  H   H2300     1.0  0.97308  0.52455  0.97303  1.0000
  C   C1439     1.0  0.88602  0.50255  0.95439  1.0000
  H   H2301     1.0  0.86875  0.52383  0.98084  1.0000
  H   H2302     1.0  0.89549  0.51260  0.95851  1.0000
  H   H2303     1.0  0.79043  0.48965  0.83687  1.0000
  C   C1440     1.0  0.86035  0.51302  0.97640  1.0000
  S   S576      1.0  0.94752  0.60762  0.97956  1.0000
  Fe  Fe288     1.0  0.92906  0.58333  0.98554  1.0000
  H   H2304     1.0  0.89503  0.49035  0.94896  1.0000
