data_image0
_chemical_formula_structural       CH2SCH4CH2C2FeCHNCHC2NH6FeS2FeS2FeSFeHS2H2NCHCH2C7H4C3H3C2H3SH3CNCH2C2H2CH8C6HSH4CSH2CHC3H9FeS2FeS2Fe2SHSC3H2SC2H2SHCH2CSNCH2CH3NHCHCH4CSH3SCH3SCFe2SFeSCSC2HFeH2CH2CHCHC2H2NH4FeS2FeSFeHFeS3FeSFe2CS3HCHC10H4NCH10C2H4CH5CH2C4SHCHNC2HCNH2CH2CH8SHCH3CFeS2FeS2FeSFeS3H4C2HC7HCH2C6H4CHCH3CH6C2H3CHNCHNH4CH6SCH2C3H2C2H5NH2NCH4CH4CHCH3C3H2SC2SFeSHFe2SFeHFeS2FeSFeSFeS3C3H2CHC2HC6H5CSHCNC3H9CH2SHCHCH2S2FeS2FeS2FeSFeS3CH6SC6H4C6H15CHNH2CNCH2CHCHC4H2NC4H10SH2NCH2CH2CHC2H7CSH2CHCH2CH3NHCHC3HCH3C2NHCHNHCH2CH3CH2CFeS2FeSFeSFeS3H3CH3C3H2C2NH3C2HSH7CHC2H4C6H2C2HCH5CSH3CH2CHC2HFeSCFeS2Fe2S3C2H2SFeHC2HCHC6HSHCH2C2HNCH2C2HSC2HSNSHFeH5Fe2SHCSH2C2HCHCH2CSH10CH2FeS2FeSHFeSFeS3HC2HC6H2CH2C3H2NC4H6CH5CH2SH4CH3CNHCSNH3CH4NCSCHC3HC3HCH6CH2C2SHCH11NCHFeSFe2CH5FeHSHCH2NH3CNH6C2HSHCH2S2H2C2HCHCHFeCFeS2FeSFeS3C2H3C2H2CH3C2H2CHNC3HSC2HC2H3CHCSFeSHFeS2Fe2S6HFe2SCH7C6H5C2SH3CHNSCHCFeCH2CH2CHSCHCHCFeCHFeS2FeS2FeSFeS3CHC2HC4H2CHSH2C7H2C3H3C2HNHCSHCH2CH4C2H6CH4C2HCHNH2NCH8CH3CHCH2SH5SH2FeCFeCSFeCHS2FeSFeS2FeSFeS3CSH2CSHCHC6H4C2NCH9CH2C2H2C2H3C4H2CNH8SC2H6FeS2FeS2FeSFeS3CSH5C6H4C3HC2H4C3H3C2H2NC4H7CH3CH2CHNHCHCH3CH2CH8CH2NC2HSH4CHCHCSFeSNFeS2FeSFeS3H2C2H2C6H2C4HC4H3CHSH2CH3CHCNH2NH4SHCSCH3CHC3H2FeH7CH3CH2CH5Fe3SHSH4C2SH2SCNCH2CSHC2NH2C3FeSFeS2FeSFeCS2C2HCHCHCSH3CHNH5CSH2C3HCH4C2H4CH3FeC
_chemical_formula_sum              "C480 H768 S192 Fe96 N48"
_cell_length_a       53.4463
_cell_length_b       53.5791
_cell_length_c       31.6097
_cell_angle_alpha    89.9341
_cell_angle_beta     89.5727
_cell_angle_gamma    89.6811

_space_group_name_H-M_alt    "P 1"
_space_group_IT_number       1

loop_
  _space_group_symop_operation_xyz
  'x, y, z'

loop_
  _atom_site_type_symbol
  _atom_site_label
  _atom_site_symmetry_multiplicity
  _atom_site_fract_x
  _atom_site_fract_y
  _atom_site_fract_z
  _atom_site_occupancy
  C   C1        1.0  0.24942  0.21646  0.49617  1.0000
  H   H1        1.0  0.37169  0.08029  0.46278  1.0000
  H   H2        1.0  0.28877  0.28444  0.49422  1.0000
  S   S1        1.0  0.21726  0.24572  0.45062  1.0000
  C   C2        1.0  0.22678  0.22987  0.49683  1.0000
  H   H3        1.0  0.41781  0.07704  0.11364  1.0000
  H   H4        1.0  0.37666  0.10808  0.21775  1.0000
  H   H5        1.0  0.46248  0.21471  0.42993  1.0000
  H   H6        1.0  0.26043  0.21567  0.46733  1.0000
  C   C3        1.0  0.30822  0.08044  0.45558  1.0000
  H   H7        1.0  0.38629  0.12005  0.48898  1.0000
  H   H8        1.0  0.44731  0.18776  0.40912  1.0000
  C   C4        1.0  0.37715  0.06989  0.16261  1.0000
  C   C5        1.0  0.38617  0.11159  0.18686  1.0000
  Fe  Fe1       1.0  0.19322  0.28060  0.45264  1.0000
  C   C6        1.0  0.38476  0.13949  0.48040  1.0000
  H   H9        1.0  0.49927  0.16220  0.47438  1.0000
  N   N1        1.0  0.39714  0.08845  0.16904  1.0000
  C   C7        1.0  0.37716  0.18248  0.50087  1.0000
  H   H10       1.0  0.40399  0.04719  0.32352  1.0000
  C   C8        1.0  0.53463  0.21065  0.38432  1.0000
  C   C9        1.0  0.54583  0.08185  0.31136  1.0000
  N   N2        1.0  0.33236  0.07961  0.47803  1.0000
  H   H11       1.0  0.39407  0.17849  0.39700  1.0000
  H   H12       1.0  0.40076  0.12590  0.19250  1.0000
  H   H13       1.0  0.52984  0.05597  0.24367  1.0000
  H   H14       1.0  0.40713  0.07389  0.23000  1.0000
  H   H15       1.0  0.51699  0.24362  0.16221  1.0000
  H   H16       1.0  0.42422  0.06042  0.18671  1.0000
  Fe  Fe2       1.0  0.46075  0.11959  0.28327  1.0000
  S   S2        1.0  0.46470  0.13285  0.35008  1.0000
  S   S3        1.0  0.47886  0.08390  0.26071  1.0000
  Fe  Fe3       1.0  0.42567  0.16156  0.25904  1.0000
  S   S4        1.0  0.42591  0.17807  0.32399  1.0000
  S   S5        1.0  0.40126  0.18013  0.21081  1.0000
  Fe  Fe4       1.0  0.46716  0.17090  0.32093  1.0000
  S   S6        1.0  0.48985  0.20204  0.34779  1.0000
  Fe  Fe5       1.0  0.42322  0.13883  0.34753  1.0000
  H   H17       1.0  0.38242  0.20981  0.45164  1.0000
  S   S7        1.0  0.46734  0.15734  0.25377  1.0000
  S   S8        1.0  0.41888  0.12283  0.28267  1.0000
  H   H18       1.0  0.45882  0.14679  0.50094  1.0000
  H   H19       1.0  0.47926  0.26544  0.09870  1.0000
  N   N3        1.0  0.48616  0.22938  0.12649  1.0000
  C   C10       1.0  0.48892  0.17462  0.45230  1.0000
  H   H20       1.0  0.35211  0.05502  0.52024  1.0000
  C   C11       1.0  0.39075  0.14712  0.43925  1.0000
  H   H21       1.0  0.45591  0.21079  0.15858  1.0000
  H   H22       1.0  0.49105  0.19737  0.08589  1.0000
  C   C12       1.0  0.47638  0.21406  0.16183  1.0000
  C   C13       1.0  0.41160  0.17932  0.15814  1.0000
  C   C14       1.0  0.40085  0.19574  0.12889  1.0000
  C   C15       1.0  0.40886  0.19566  0.08659  1.0000
  C   C16       1.0  0.42712  0.17862  0.07317  1.0000
  C   C17       1.0  0.43779  0.16202  0.10233  1.0000
  C   C18       1.0  0.43030  0.16261  0.14500  1.0000
  H   H23       1.0  0.52387  0.21581  0.13240  1.0000
  H   H24       1.0  0.40065  0.20857  0.06421  1.0000
  H   H25       1.0  0.45223  0.14911  0.09204  1.0000
  H   H26       1.0  0.43888  0.15012  0.16760  1.0000
  C   C19       1.0  0.52149  0.19545  0.35637  1.0000
  C   C20       1.0  0.37776  0.15709  0.51107  1.0000
  C   C21       1.0  0.53366  0.17546  0.33630  1.0000
  H   H27       1.0  0.52523  0.22610  0.39985  1.0000
  H   H28       1.0  0.52350  0.16367  0.31469  1.0000
  H   H29       1.0  0.46194  0.21349  0.08029  1.0000
  C   C22       1.0  0.45841  0.05897  0.27081  1.0000
  C   C23       1.0  0.43864  0.06211  0.29951  1.0000
  H   H30       1.0  0.33215  0.11907  0.49120  1.0000
  H   H31       1.0  0.43758  0.07860  0.31906  1.0000
  H   H32       1.0  0.45226  0.25101  0.12214  1.0000
  S   S9        1.0  0.15908  0.28722  0.41237  1.0000
  H   H33       1.0  0.48688  0.16449  0.42178  1.0000
  H   H34       1.0  0.48562  0.19540  0.16299  1.0000
  H   H35       1.0  0.38640  0.20870  0.13903  1.0000
  C   C24       1.0  0.07708  0.28005  0.45172  1.0000
  N   N4        1.0  0.46429  0.18214  0.46982  1.0000
  C   C25       1.0  0.47280  0.25362  0.12569  1.0000
  H   H36       1.0  0.37221  0.12014  0.16519  1.0000
  H   H37       1.0  0.38480  0.05215  0.14933  1.0000
  C   C26       1.0  0.48215  0.21618  0.08613  1.0000
  C   C27       1.0  0.38320  0.19019  0.45972  1.0000
  H   H38       1.0  0.50952  0.04674  0.31107  1.0000
  H   H39       1.0  0.47578  0.26436  0.15531  1.0000
  C   C28       1.0  0.38989  0.17249  0.42884  1.0000
  H   H40       1.0  0.43140  0.09139  0.20418  1.0000
  H   H41       1.0  0.36262  0.07701  0.14056  1.0000
  H   H42       1.0  0.29215  0.07931  0.47817  1.0000
  H   H43       1.0  0.47926  0.22327  0.19296  1.0000
  H   H44       1.0  0.48971  0.22687  0.05868  1.0000
  H   H45       1.0  0.39606  0.10233  0.10515  1.0000
  H   H46       1.0  0.43291  0.20494  0.45156  1.0000
  H   H47       1.0  0.50084  0.19115  0.44574  1.0000
  C   C29       1.0  0.33445  0.05588  0.50175  1.0000
  C   C30       1.0  0.41578  0.07813  0.19869  1.0000
  C   C31       1.0  0.51321  0.23372  0.13203  1.0000
  C   C32       1.0  0.45115  0.19811  0.43885  1.0000
  C   C33       1.0  0.35315  0.08136  0.44703  1.0000
  C   C34       1.0  0.33358  0.10079  0.50784  1.0000
  H   H48       1.0  0.52089  0.24538  0.10573  1.0000
  S   S10       1.0  0.40027  0.12457  0.40226  1.0000
  H   H49       1.0  0.42486  0.10784  0.13219  1.0000
  H   H50       1.0  0.47893  0.21344  0.50396  1.0000
  H   H51       1.0  0.25681  0.27467  0.49114  1.0000
  H   H52       1.0  0.09430  0.26967  0.44707  1.0000
  C   C35       1.0  0.40948  0.09412  0.12816  1.0000
  S   S11       1.0  0.43725  0.25178  0.03076  1.0000
  H   H53       1.0  0.36768  0.06509  0.19308  1.0000
  H   H54       1.0  0.44542  0.14898  0.44908  1.0000
  C   C36       1.0  0.27313  0.27612  0.51273  1.0000
  H   H55       1.0  0.35258  0.09935  0.42930  1.0000
  C   C37       1.0  0.44923  0.15965  0.47858  1.0000
  C   C38       1.0  0.46779  0.19623  0.50950  1.0000
  C   C39       1.0  0.05428  0.27038  0.43706  1.0000
  H   H56       1.0  0.30610  0.09811  0.43731  1.0000
  H   H57       1.0  0.35256  0.06600  0.42341  1.0000
  H   H58       1.0  0.30655  0.06463  0.43297  1.0000
  H   H59       1.0  0.52779  0.08905  0.29874  1.0000
  H   H60       1.0  0.54631  0.08615  0.34575  1.0000
  H   H61       1.0  0.05404  0.25264  0.42072  1.0000
  H   H62       1.0  0.43085  0.16471  0.49301  1.0000
  H   H63       1.0  0.09863  0.28678  0.32140  1.0000
  H   H64       1.0  0.10462  0.29095  0.37668  1.0000
  Fe  Fe6       1.0  0.33202  0.13344  0.62014  1.0000
  S   S12       1.0  0.36388  0.15871  0.63676  1.0000
  S   S13       1.0  0.34671  0.09372  0.61506  1.0000
  Fe  Fe7       1.0  0.29459  0.17719  0.62079  1.0000
  S   S14       1.0  0.32365  0.20522  0.63915  1.0000
  S   S15       1.0  0.25434  0.19023  0.61663  1.0000
  Fe  Fe8       1.0  0.34703  0.18523  0.59026  1.0000
  Fe  Fe9       1.0  0.33768  0.17582  0.68420  1.0000
  S   S16       1.0  0.34716  0.17673  0.75406  1.0000
  H   H65       1.0  0.37882  0.21618  0.71865  1.0000
  S   S17       1.0  0.30646  0.14919  0.66999  1.0000
  C   C40       1.0  0.24391  0.20509  0.57006  1.0000
  C   C41       1.0  0.32940  0.06580  0.61321  1.0000
  C   C42       1.0  0.30325  0.06561  0.61457  1.0000
  H   H66       1.0  0.33715  0.06990  0.70288  1.0000
  H   H67       1.0  0.29292  0.08298  0.61697  1.0000
  S   S18       1.0  0.50366  0.27240  0.01527  1.0000
  C   C43       1.0  0.32710  0.11554  0.77592  1.0000
  C   C44       1.0  0.37033  0.19615  0.77601  1.0000
  H   H68       1.0  0.31674  0.12886  0.75532  1.0000
  H   H69       1.0  0.20968  0.21826  0.59903  1.0000
  S   S19       1.0  0.31723  0.15878  0.56916  1.0000
  H   H70       1.0  0.37566  0.25162  0.87758  1.0000
  C   C45       1.0  0.22091  0.21792  0.57041  1.0000
  H   H71       1.0  0.37249  0.09956  0.70476  1.0000
  H   H72       1.0  0.34261  0.06966  0.79880  1.0000
  C   C46       1.0  0.35590  0.08071  0.77914  1.0000
  S   S20       1.0  0.37128  0.28677  0.00198  1.0000
  N   N5        1.0  0.36104  0.28864  0.86948  1.0000
  C   C47       1.0  0.37597  0.19356  0.81910  1.0000
  H   H73       1.0  0.36632  0.17970  0.83793  1.0000
  H   H74       1.0  0.31307  0.10564  0.79582  1.0000
  C   C48       1.0  0.36083  0.11208  0.72506  1.0000
  H   H75       1.0  0.34219  0.25348  0.87708  1.0000
  H   H76       1.0  0.39843  0.20627  0.87115  1.0000
  H   H77       1.0  0.22902  0.27811  0.55392  1.0000
  N   N6        1.0  0.34247  0.09795  0.75060  1.0000
  H   H78       1.0  0.35127  0.12536  0.70360  1.0000
  C   C49       1.0  0.53146  0.27849  0.98632  1.0000
  H   H79       1.0  0.37345  0.12339  0.74526  1.0000
  C   C50       1.0  0.32614  0.08349  0.72221  1.0000
  H   H80       1.0  0.35910  0.26369  0.92272  1.0000
  H   H81       1.0  0.44944  0.20207  0.52349  1.0000
  H   H82       1.0  0.31617  0.09589  0.69952  1.0000
  H   H83       1.0  0.37676  0.27570  0.81065  1.0000
  C   C51       1.0  0.39410  0.20871  0.83808  1.0000
  S   S21       1.0  0.43863  0.28381  0.94269  1.0000
  H   H84       1.0  0.33891  0.12711  0.79710  1.0000
  H   H85       1.0  0.27584  0.19453  0.53213  1.0000
  H   H86       1.0  0.19482  0.24049  0.53468  1.0000
  S   S22       1.0  0.36947  0.20453  0.53979  1.0000
  C   C52       1.0  0.25820  0.20450  0.53284  1.0000
  H   H87       1.0  0.37346  0.15103  0.54292  1.0000
  H   H88       1.0  0.36777  0.06731  0.76089  1.0000
  H   H89       1.0  0.36837  0.09110  0.80095  1.0000
  S   S23       1.0  0.43817  0.17924  0.02087  1.0000
  C   C53       1.0  0.38299  0.21406  0.75191  1.0000
  Fe  Fe10      1.0  0.43461  0.21735  0.99117  1.0000
  Fe  Fe11      1.0  0.43393  0.24701  0.90894  1.0000
  S   S24       1.0  0.42842  0.24721  0.83775  1.0000
  Fe  Fe12      1.0  0.46674  0.26325  0.98329  1.0000
  S   S25       1.0  0.40366  0.23296  0.95178  1.0000
  C   C54       1.0  0.40102  0.22939  0.77104  1.0000
  S   S26       1.0  0.46478  0.22808  0.94518  1.0000
  C   C55       1.0  0.35938  0.26325  0.88752  1.0000
  C   C56       1.0  0.28901  0.29243  0.57833  1.0000
  H   H90       1.0  0.47766  0.18477  0.53364  1.0000
  Fe  Fe13      1.0  0.40911  0.26900  0.98705  1.0000
  H   H91       1.0  0.41066  0.24331  0.75231  1.0000
  H   H92       1.0  0.31173  0.07286  0.74015  1.0000
  C   C57       1.0  0.40657  0.22685  0.81424  1.0000
  H   H93       1.0  0.25097  0.26004  0.58412  1.0000
  H   H94       1.0  0.40121  0.28949  0.87179  1.0000
  C   C58       1.0  0.24602  0.27935  0.57393  1.0000
  H   H95       1.0  0.29499  0.27345  0.58884  1.0000
  C   C59       1.0  0.53107  0.28385  0.94304  1.0000
  H   H96       1.0  0.24083  0.29011  0.60282  1.0000
  C   C60       1.0  0.36065  0.28702  0.82280  1.0000
  C   C61       1.0  0.21249  0.23055  0.53406  1.0000
  H   H97       1.0  0.51345  0.28428  0.92641  1.0000
  H   H98       1.0  0.34326  0.27796  0.81144  1.0000
  N   N7        1.0  0.26691  0.29113  0.55061  1.0000
  H   H99       1.0  0.35151  0.10072  0.52551  1.0000
  H   H100      1.0  0.31870  0.05363  0.52468  1.0000
  H   H101      1.0  0.31826  0.10001  0.53188  1.0000
  H   H102      1.0  0.27879  0.25676  0.52149  1.0000
  Fe  Fe14      1.0  0.26584  0.39796  0.15919  1.0000
  S   S27       1.0  0.29607  0.42612  0.14782  1.0000
  S   S28       1.0  0.26585  0.38383  0.22685  1.0000
  Fe  Fe15      1.0  0.24924  0.40110  0.06710  1.0000
  S   S29       1.0  0.27805  0.42971  0.04931  1.0000
  Fe  Fe16      1.0  0.30392  0.40515  0.08755  1.0000
  H   H103      1.0  0.32483  0.30378  0.13722  1.0000
  Fe  Fe17      1.0  0.26740  0.44789  0.11132  1.0000
  S   S30       1.0  0.25398  0.48703  0.12874  1.0000
  S   S31       1.0  0.27568  0.37548  0.10149  1.0000
  S   S32       1.0  0.23658  0.42063  0.12626  1.0000
  Fe  Fe18      1.0  0.17800  0.32304  0.39344  1.0000
  S   S33       1.0  0.17307  0.33722  0.32611  1.0000
  Fe  Fe19      1.0  0.19411  0.33352  0.48455  1.0000
  Fe  Fe20      1.0  0.14416  0.30866  0.46829  1.0000
  C   C62       1.0  0.29075  0.51778  0.09453  1.0000
  S   S34       1.0  0.21318  0.31494  0.42946  1.0000
  S   S35       1.0  0.16077  0.34485  0.44670  1.0000
  S   S36       1.0  0.34432  0.39472  0.07306  1.0000
  H   H104      1.0  0.24090  0.49167  0.28438  1.0000
  C   C63       1.0  0.10664  0.29982  0.34500  1.0000
  H   H105      1.0  0.23379  0.42280  0.27643  1.0000
  C   C64       1.0  0.32891  0.32406  0.13452  1.0000
  C   C65       1.0  0.22224  0.43389  0.25391  1.0000
  C   C66       1.0  0.06703  0.32146  0.35196  1.0000
  C   C67       1.0  0.25824  0.45709  0.23012  1.0000
  C   C68       1.0  0.23987  0.37036  0.25313  1.0000
  C   C69       1.0  0.21669  0.36761  0.23344  1.0000
  C   C70       1.0  0.19635  0.35741  0.25610  1.0000
  C   C71       1.0  0.19904  0.34982  0.29845  1.0000
  C   C72       1.0  0.22223  0.35265  0.31802  1.0000
  C   C73       1.0  0.24251  0.36289  0.29546  1.0000
  H   H106      1.0  0.21444  0.37325  0.20081  1.0000
  H   H107      1.0  0.17849  0.35524  0.24069  1.0000
  H   H108      1.0  0.22453  0.34698  0.35060  1.0000
  H   H109      1.0  0.26033  0.36505  0.31101  1.0000
  N   N8        1.0  0.32930  0.33633  0.17637  1.0000
  C   C74       1.0  0.26775  0.51609  0.11572  1.0000
  H   H110      1.0  0.35353  0.36591  0.15508  1.0000
  H   H111      1.0  0.30060  0.50094  0.08523  1.0000
  H   H112      1.0  0.23742  0.53704  0.14406  1.0000
  H   H113      1.0  0.33525  0.37311  0.20179  1.0000
  H   H114      1.0  0.19726  0.47538  0.22938  1.0000
  H   H115      1.0  0.22189  0.42320  0.22371  1.0000
  H   H116      1.0  0.34496  0.30424  0.20755  1.0000
  H   H117      1.0  0.21585  0.46347  0.18618  1.0000
  H   H118      1.0  0.11843  0.33836  0.29472  1.0000
  H   H119      1.0  0.26679  0.47576  0.22480  1.0000
  C   C75       1.0  0.37701  0.35744  0.04893  1.0000
  C   C76       1.0  0.33326  0.34936  0.03616  1.0000
  H   H120      1.0  0.20280  0.43455  0.26666  1.0000
  H   H121      1.0  0.31435  0.33246  0.11383  1.0000
  H   H122      1.0  0.21414  0.47433  0.30241  1.0000
  H   H123      1.0  0.09584  0.35950  0.37687  1.0000
  C   C77       1.0  0.33507  0.36311  0.17096  1.0000
  H   H124      1.0  0.32094  0.37261  0.15091  1.0000
  H   H125      1.0  0.39155  0.36978  0.05989  1.0000
  H   H126      1.0  0.27463  0.32614  0.51970  1.0000
  H   H127      1.0  0.27069  0.44604  0.25124  1.0000
  H   H128      1.0  0.12536  0.34363  0.37097  1.0000
  C   C78       1.0  0.10497  0.34080  0.37644  1.0000
  H   H129      1.0  0.12706  0.30145  0.33808  1.0000
  H   H130      1.0  0.25820  0.44758  0.19899  1.0000
  C   C79       1.0  0.30456  0.33366  0.19708  1.0000
  C   C80       1.0  0.25523  0.53815  0.12771  1.0000
  C   C81       1.0  0.21674  0.47314  0.21733  1.0000
  C   C82       1.0  0.35188  0.36533  0.05076  1.0000
  S   S37       1.0  0.10505  0.31527  0.49424  1.0000
  H   H131      1.0  0.24515  0.46247  0.31158  1.0000
  C   C83       1.0  0.23320  0.47251  0.28831  1.0000
  H   H132      1.0  0.22441  0.49209  0.21087  1.0000
  N   N9        1.0  0.23258  0.45917  0.24746  1.0000
  C   C84       1.0  0.07731  0.30270  0.47363  1.0000
  C   C85       1.0  0.09808  0.33585  0.30162  1.0000
  H   H133      1.0  0.30400  0.34297  0.22857  1.0000
  C   C86       1.0  0.38344  0.33359  0.03332  1.0000
  N   N10       1.0  0.09414  0.32448  0.34376  1.0000
  H   H134      1.0  0.09026  0.32396  0.27614  1.0000
  H   H135      1.0  0.28947  0.34237  0.17784  1.0000
  C   C87       1.0  0.34869  0.32449  0.20287  1.0000
  H   H136      1.0  0.29955  0.31372  0.20186  1.0000
  H   H137      1.0  0.31390  0.35533  0.03681  1.0000
  C   C88       1.0  0.05477  0.31567  0.48050  1.0000
  H   H138      1.0  0.08899  0.35454  0.29953  1.0000
  H   H139      1.0  0.05478  0.33317  0.49755  1.0000
  H   H140      1.0  0.10272  0.33261  0.40858  1.0000
  H   H141      1.0  0.05825  0.30882  0.32850  1.0000
  H   H142      1.0  0.34947  0.33332  0.23469  1.0000
  H   H143      1.0  0.06347  0.31330  0.38380  1.0000
  H   H144      1.0  0.24279  0.31609  0.51642  1.0000
  H   H145      1.0  0.31912  0.54252  0.06992  1.0000
  S   S38       1.0  0.17660  0.29882  0.51044  1.0000
  H   H146      1.0  0.40281  0.32764  0.03233  1.0000
  C   C89       1.0  0.30118  0.54137  0.08589  1.0000
  H   H147      1.0  0.34720  0.32598  0.11769  1.0000
  H   H148      1.0  0.36757  0.32620  0.18800  1.0000
  H   H149      1.0  0.05691  0.33965  0.35089  1.0000
  C   C90       1.0  0.33964  0.32547  0.02100  1.0000
  Fe  Fe21      1.0  0.14386  0.44215  0.73519  1.0000
  S   S39       1.0  0.14145  0.44909  0.80459  1.0000
  S   S40       1.0  0.12960  0.47236  0.69291  1.0000
  Fe  Fe22      1.0  0.16118  0.38926  0.74634  1.0000
  S   S41       1.0  0.15989  0.39117  0.81751  1.0000
  S   S42       1.0  0.17094  0.35326  0.71337  1.0000
  Fe  Fe23      1.0  0.12370  0.41159  0.80825  1.0000
  S   S43       1.0  0.09126  0.41068  0.85357  1.0000
  Fe  Fe24      1.0  0.17785  0.42850  0.80841  1.0000
  S   S44       1.0  0.20614  0.44586  0.85161  1.0000
  S   S45       1.0  0.12296  0.40613  0.73811  1.0000
  S   S46       1.0  0.18224  0.42516  0.73791  1.0000
  H   H150      1.0  0.18348  0.47649  0.69845  1.0000
  H   H151      1.0  0.12153  0.35140  0.67202  1.0000
  H   H152      1.0  0.13524  0.35477  0.93677  1.0000
  H   H153      1.0  0.19320  0.49199  0.79071  1.0000
  C   C91       1.0  0.06870  0.44922  0.74749  1.0000
  C   C92       1.0  0.18085  0.53999  0.69455  1.0000
  H   H154      1.0  0.09919  0.37497  0.65710  1.0000
  C   C93       1.0  0.06303  0.40152  0.83051  1.0000
  C   C94       1.0  0.21275  0.42834  0.89729  1.0000
  C   C95       1.0  0.22135  0.44047  0.93360  1.0000
  C   C96       1.0  0.22506  0.42704  0.97125  1.0000
  C   C97       1.0  0.22033  0.40141  0.97258  1.0000
  C   C98       1.0  0.21233  0.38918  0.93597  1.0000
  C   C99       1.0  0.20865  0.40260  0.89835  1.0000
  H   H155      1.0  0.22472  0.46034  0.93297  1.0000
  C   C100      1.0  0.14011  0.37371  0.92493  1.0000
  H   H156      1.0  0.20904  0.36928  0.93671  1.0000
  H   H157      1.0  0.20290  0.39296  0.87013  1.0000
  C   C101      1.0  0.18483  0.35608  0.66301  1.0000
  C   C102      1.0  0.19153  0.33444  0.64069  1.0000
  C   C103      1.0  0.20034  0.33608  0.59884  1.0000
  C   C104      1.0  0.20309  0.35941  0.57951  1.0000
  C   C105      1.0  0.19737  0.38110  0.60239  1.0000
  C   C106      1.0  0.18792  0.37943  0.64387  1.0000
  H   H158      1.0  0.18918  0.31634  0.65539  1.0000
  H   H159      1.0  0.23099  0.43665  0.99949  1.0000
  H   H160      1.0  0.19953  0.39919  0.58758  1.0000
  H   H161      1.0  0.18269  0.39621  0.66068  1.0000
  C   C107      1.0  0.14957  0.49816  0.69302  1.0000
  H   H162      1.0  0.17721  0.52510  0.89091  1.0000
  C   C108      1.0  0.17550  0.49504  0.69660  1.0000
  H   H163      1.0  0.13177  0.37847  0.64385  1.0000
  H   H164      1.0  0.16313  0.41815  0.93260  1.0000
  H   H165      1.0  0.15078  0.35233  0.58695  1.0000
  C   C109      1.0  0.10846  0.39349  0.96845  1.0000
  H   H166      1.0  0.11931  0.52466  0.68743  1.0000
  H   H167      1.0  0.07905  0.44152  0.77504  1.0000
  H   H168      1.0  0.05806  0.48581  0.69260  1.0000
  H   H169      1.0  0.10231  0.36077  0.54192  1.0000
  H   H170      1.0  0.38571  0.30169  0.91799  1.0000
  H   H171      1.0  0.16767  0.51370  0.79592  1.0000
  C   C110      1.0  0.06287  0.38570  0.79536  1.0000
  C   C111      1.0  0.07717  0.49124  0.77071  1.0000
  H   H172      1.0  0.12020  0.38421  0.56835  1.0000
  H   H173      1.0  0.08224  0.45062  0.72066  1.0000
  H   H174      1.0  0.30520  0.30112  0.56171  1.0000
  C   C112      1.0  0.18533  0.53703  0.86551  1.0000
  H   H175      1.0  0.13246  0.42236  0.91109  1.0000
  N   N11       1.0  0.11221  0.35169  0.60590  1.0000
  C   C113      1.0  0.11626  0.36473  0.64646  1.0000
  H   H176      1.0  0.13915  0.43283  0.96382  1.0000
  N   N12       1.0  0.13539  0.39304  0.95740  1.0000
  H   H177      1.0  0.07411  0.34224  0.62087  1.0000
  H   H178      1.0  0.16016  0.37327  0.91506  1.0000
  H   H179      1.0  0.14487  0.36893  0.00952  1.0000
  H   H180      1.0  0.28494  0.30365  0.60724  1.0000
  C   C114      1.0  0.10525  0.37004  0.57300  1.0000
  H   H181      1.0  0.08764  0.38009  0.58143  1.0000
  H   H182      1.0  0.38649  0.31963  0.87008  1.0000
  H   H183      1.0  0.23338  0.52134  0.87122  1.0000
  H   H184      1.0  0.08029  0.37861  0.78242  1.0000
  H   H185      1.0  0.34023  0.32309  0.87190  1.0000
  H   H186      1.0  0.21227  0.49607  0.88157  1.0000
  S   S47       1.0  0.21275  0.36167  0.52641  1.0000
  C   C115      1.0  0.15013  0.38727  0.99563  1.0000
  H   H187      1.0  0.05420  0.43534  0.73875  1.0000
  H   H188      1.0  0.06924  0.50992  0.77882  1.0000
  C   C116      1.0  0.13935  0.52216  0.69009  1.0000
  C   C117      1.0  0.09200  0.33319  0.61102  1.0000
  C   C118      1.0  0.33963  0.30378  0.88483  1.0000
  H   H189      1.0  0.17049  0.38632  0.98834  1.0000
  H   H190      1.0  0.10420  0.40784  0.99291  1.0000
  C   C119      1.0  0.14283  0.41769  0.94053  1.0000
  C   C120      1.0  0.18285  0.50405  0.81369  1.0000
  H   H191      1.0  0.20483  0.31929  0.58151  1.0000
  H   H192      1.0  0.21125  0.51353  0.69898  1.0000
  H   H193      1.0  0.25431  0.32845  0.56509  1.0000
  H   H194      1.0  0.14755  0.40177  0.02048  1.0000
  H   H195      1.0  0.14197  0.32554  0.61796  1.0000
  N   N13       1.0  0.19969  0.52205  0.83436  1.0000
  H   H196      1.0  0.23056  0.49609  0.83400  1.0000
  H   H197      1.0  0.12879  0.37722  0.89603  1.0000
  N   N14       1.0  0.05739  0.47376  0.75754  1.0000
  C   C121      1.0  0.19120  0.51597  0.69664  1.0000
  H   H198      1.0  0.08741  0.48410  0.79881  1.0000
  H   H199      1.0  0.09120  0.49412  0.74496  1.0000
  H   H200      1.0  0.36188  0.30581  0.80795  1.0000
  H   H201      1.0  0.22172  0.52798  0.77801  1.0000
  C   C122      1.0  0.13554  0.33877  0.59311  1.0000
  H   H202      1.0  0.09689  0.31890  0.63523  1.0000
  H   H203      1.0  0.17399  0.49139  0.83729  1.0000
  H   H204      1.0  0.09679  0.39790  0.94033  1.0000
  H   H205      1.0  0.08848  0.32308  0.58084  1.0000
  C   C123      1.0  0.21992  0.50839  0.85625  1.0000
  H   H206      1.0  0.33969  0.30529  0.92006  1.0000
  C   C124      1.0  0.25942  0.31655  0.53744  1.0000
  H   H207      1.0  0.10214  0.37510  0.98083  1.0000
  H   H208      1.0  0.32502  0.31311  0.01040  1.0000
  H   H209      1.0  0.13313  0.32786  0.56362  1.0000
  C   C125      1.0  0.38463  0.30039  0.88291  1.0000
  C   C126      1.0  0.21069  0.53868  0.80198  1.0000
  C   C127      1.0  0.36470  0.31743  0.01965  1.0000
  H   H210      1.0  0.32147  0.29537  0.87560  1.0000
  H   H211      1.0  0.04788  0.46304  0.82124  1.0000
  S   S48       1.0  0.22241  0.38464  0.02026  1.0000
  C   C128      1.0  0.15493  0.54305  0.69155  1.0000
  C   C129      1.0  0.36189  0.76309  0.03916  1.0000
  S   S49       1.0  0.20432  0.74599  0.46775  1.0000
  Fe  Fe25      1.0  0.13747  0.76954  0.43618  1.0000
  S   S50       1.0  0.15300  0.73301  0.41241  1.0000
  H   H212      1.0  0.29576  0.74163  0.29720  1.0000
  Fe  Fe26      1.0  0.16686  0.72804  0.47923  1.0000
  Fe  Fe27      1.0  0.18926  0.75338  0.40226  1.0000
  S   S51       1.0  0.21286  0.75379  0.34193  1.0000
  Fe  Fe28      1.0  0.18473  0.78166  0.48654  1.0000
  H   H213      1.0  0.26282  0.61000  0.02634  1.0000
  Fe  Fe29      1.0  0.25106  0.66312  0.15678  1.0000
  S   S52       1.0  0.29209  0.65358  0.15785  1.0000
  S   S53       1.0  0.22953  0.66124  0.21882  1.0000
  Fe  Fe30      1.0  0.25129  0.67035  0.06106  1.0000
  S   S54       1.0  0.29207  0.66120  0.05539  1.0000
  Fe  Fe31      1.0  0.28377  0.62993  0.10098  1.0000
  S   S55       1.0  0.30247  0.59266  0.08643  1.0000
  Fe  Fe32      1.0  0.29653  0.68554  0.11217  1.0000
  S   S56       1.0  0.32455  0.71684  0.11988  1.0000
  S   S57       1.0  0.24236  0.63727  0.10234  1.0000
  S   S58       1.0  0.25607  0.69678  0.11550  1.0000
  C   C130      1.0  0.33963  0.72895  0.07425  1.0000
  C   C131      1.0  0.26560  0.56172  0.11890  1.0000
  C   C132      1.0  0.35117  0.75244  0.07584  1.0000
  H   H214      1.0  0.32287  0.72272  0.30786  1.0000
  H   H215      1.0  0.35146  0.76266  0.10533  1.0000
  C   C133      1.0  0.28873  0.56342  0.09823  1.0000
  H   H216      1.0  0.32462  0.74744  0.26936  1.0000
  C   C134      1.0  0.33951  0.71589  0.03600  1.0000
  C   C135      1.0  0.04981  0.79045  0.43028  1.0000
  H   H217      1.0  0.25581  0.57853  0.12853  1.0000
  C   C136      1.0  0.22309  0.68739  0.25137  1.0000
  C   C137      1.0  0.21342  0.68357  0.29232  1.0000
  C   C138      1.0  0.20943  0.70381  0.32002  1.0000
  C   C139      1.0  0.21529  0.72806  0.30704  1.0000
  C   C140      1.0  0.22456  0.73192  0.26582  1.0000
  C   C141      1.0  0.22821  0.71171  0.23791  1.0000
  H   H218      1.0  0.20924  0.66482  0.30286  1.0000
  H   H219      1.0  0.20226  0.70061  0.35166  1.0000
  H   H220      1.0  0.22881  0.75068  0.25543  1.0000
  H   H221      1.0  0.23508  0.71490  0.20614  1.0000
  H   H222      1.0  0.37020  0.78145  0.04043  1.0000
  C   C142      1.0  0.07221  0.77800  0.44048  1.0000
  S   S59       1.0  0.16089  0.69137  0.51308  1.0000
  H   H223      1.0  0.08855  0.74776  0.47583  1.0000
  C   C143      1.0  0.07142  0.75748  0.46775  1.0000
  N   N15       1.0  0.30487  0.71485  0.24882  1.0000
  C   C144      1.0  0.32739  0.70310  0.22985  1.0000
  C   C145      1.0  0.29106  0.72859  0.21574  1.0000
  C   C146      1.0  0.28861  0.69536  0.26734  1.0000
  H   H224      1.0  0.32232  0.68977  0.20439  1.0000
  H   H225      1.0  0.33988  0.71724  0.21492  1.0000
  H   H226      1.0  0.33844  0.69262  0.25374  1.0000
  H   H227      1.0  0.28437  0.71574  0.19068  1.0000
  H   H228      1.0  0.30310  0.74272  0.19980  1.0000
  H   H229      1.0  0.27446  0.73849  0.22909  1.0000
  H   H230      1.0  0.28137  0.68250  0.24265  1.0000
  H   H231      1.0  0.27204  0.70367  0.28374  1.0000
  H   H232      1.0  0.29875  0.68380  0.29097  1.0000
  C   C147      1.0  0.31241  0.73244  0.28232  1.0000
  H   H233      1.0  0.25955  0.72851  0.03960  1.0000
  H   H234      1.0  0.33117  0.69762  0.03448  1.0000
  S   S60       1.0  0.17263  0.79055  0.42058  1.0000
  H   H235      1.0  0.28978  0.74141  0.05067  1.0000
  C   C148      1.0  0.27766  0.73418  0.02499  1.0000
  H   H236      1.0  0.24361  0.77100  0.02496  1.0000
  C   C149      1.0  0.04840  0.74942  0.48456  1.0000
  H   H237      1.0  0.04797  0.73350  0.50564  1.0000
  H   H238      1.0  0.27402  0.78380  0.03486  1.0000
  S   S61       1.0  0.14848  0.76283  0.50343  1.0000
  S   S62       1.0  0.10078  0.78864  0.41880  1.0000
  Fe  Fe33      1.0  0.17648  0.59476  0.73255  1.0000
  S   S63       1.0  0.15292  0.58165  0.78649  1.0000
  S   S64       1.0  0.19994  0.56634  0.69881  1.0000
  Fe  Fe34      1.0  0.15909  0.64811  0.74175  1.0000
  S   S65       1.0  0.13471  0.63972  0.79844  1.0000
  S   S66       1.0  0.16094  0.68678  0.71322  1.0000
  Fe  Fe35      1.0  0.16695  0.61563  0.81988  1.0000
  S   S67       1.0  0.17953  0.60523  0.88565  1.0000
  Fe  Fe36      1.0  0.12313  0.60636  0.76061  1.0000
  S   S68       1.0  0.08426  0.59232  0.74959  1.0000
  S   S69       1.0  0.19263  0.62728  0.76697  1.0000
  S   S70       1.0  0.14540  0.61622  0.70281  1.0000
  C   C150      1.0  0.30404  0.60077  0.97951  1.0000
  H   H239      1.0  0.22074  0.58826  0.56470  1.0000
  H   H240      1.0  0.30759  0.74327  0.95766  1.0000
  H   H241      1.0  0.31719  0.60404  0.95268  1.0000
  H   H242      1.0  0.29613  0.77413  0.94717  1.0000
  H   H243      1.0  0.28708  0.58264  0.90597  1.0000
  H   H244      1.0  0.08499  0.65570  0.67955  1.0000
  S   S71       1.0  0.23442  0.68442  0.00019  1.0000
  C   C151      1.0  0.19358  0.62801  0.91751  1.0000
  C   C152      1.0  0.20015  0.65137  0.90123  1.0000
  C   C153      1.0  0.21229  0.66877  0.92713  1.0000
  C   C154      1.0  0.21797  0.66284  0.96925  1.0000
  C   C155      1.0  0.36121  0.75020  0.00070  1.0000
  C   C156      1.0  0.19899  0.62222  0.95975  1.0000
  H   H245      1.0  0.19599  0.65597  0.86868  1.0000
  H   H246      1.0  0.21747  0.68677  0.91437  1.0000
  H   H247      1.0  0.16374  0.62112  0.60399  1.0000
  H   H248      1.0  0.19365  0.60428  0.97259  1.0000
  C   C157      1.0  0.15884  0.68932  0.65761  1.0000
  C   C158      1.0  0.16940  0.70990  0.63676  1.0000
  C   C159      1.0  0.16923  0.71140  0.59226  1.0000
  C   C160      1.0  0.15836  0.69232  0.56857  1.0000
  C   C161      1.0  0.14683  0.67238  0.58951  1.0000
  C   C162      1.0  0.14700  0.67092  0.63378  1.0000
  H   H249      1.0  0.17834  0.72441  0.65491  1.0000
  H   H250      1.0  0.17816  0.72689  0.57629  1.0000
  H   H251      1.0  0.13803  0.65782  0.57125  1.0000
  H   H252      1.0  0.13795  0.65549  0.64911  1.0000
  H   H253      1.0  0.30972  0.58304  0.99536  1.0000
  H   H254      1.0  0.20269  0.62730  0.53361  1.0000
  H   H255      1.0  0.22481  0.64509  0.56365  1.0000
  H   H256      1.0  0.08494  0.62335  0.82463  1.0000
  H   H257      1.0  0.19210  0.65172  0.56788  1.0000
  H   H258      1.0  0.17511  0.59699  0.56946  1.0000
  H   H259      1.0  0.07993  0.70086  0.66576  1.0000
  H   H260      1.0  0.25519  0.57843  0.92305  1.0000
  H   H261      1.0  0.14676  0.56150  0.69007  1.0000
  H   H262      1.0  0.25156  0.62359  0.93288  1.0000
  H   H263      1.0  0.30691  0.61597  0.00295  1.0000
  C   C163      1.0  0.26120  0.59505  0.00214  1.0000
  H   H264      1.0  0.10748  0.70704  0.69600  1.0000
  N   N16       1.0  0.08034  0.68390  0.72752  1.0000
  H   H265      1.0  0.24122  0.59405  0.99278  1.0000
  H   H266      1.0  0.31118  0.76737  0.99639  1.0000
  C   C164      1.0  0.21115  0.63959  0.98560  1.0000
  N   N17       1.0  0.27775  0.59988  0.96540  1.0000
  C   C165      1.0  0.27086  0.62401  0.94581  1.0000
  H   H267      1.0  0.19723  0.55135  0.88087  1.0000
  H   H268      1.0  0.17657  0.59290  0.62578  1.0000
  C   C166      1.0  0.09017  0.68941  0.77008  1.0000
  H   H269      1.0  0.08579  0.67411  0.79281  1.0000
  C   C167      1.0  0.06603  0.62261  0.81292  1.0000
  H   H270      1.0  0.27997  0.56119  0.94816  1.0000
  C   C168      1.0  0.27487  0.57962  0.93418  1.0000
  C   C169      1.0  0.08680  0.70451  0.69834  1.0000
  C   C170      1.0  0.06052  0.60806  0.77749  1.0000
  C   C171      1.0  0.05285  0.68105  0.72995  1.0000
  H   H271      1.0  0.23870  0.73742  0.97196  1.0000
  H   H272      1.0  0.22317  0.55286  0.81625  1.0000
  N   N18       1.0  0.20382  0.61827  0.60005  1.0000
  C   C172      1.0  0.20757  0.63133  0.64069  1.0000
  C   C173      1.0  0.22304  0.59852  0.59501  1.0000
  C   C174      1.0  0.20600  0.63631  0.56478  1.0000
  C   C175      1.0  0.17871  0.60683  0.59979  1.0000
  H   H273      1.0  0.19335  0.64631  0.64569  1.0000
  H   H274      1.0  0.22629  0.64025  0.64204  1.0000
  H   H275      1.0  0.20612  0.61822  0.66795  1.0000
  H   H276      1.0  0.08722  0.64453  0.73283  1.0000
  H   H277      1.0  0.24225  0.60639  0.59538  1.0000
  H   H278      1.0  0.22184  0.58452  0.62105  1.0000
  H   H279      1.0  0.05113  0.64695  0.86138  1.0000
  H   H280      1.0  0.26547  0.72508  0.94486  1.0000
  H   H281      1.0  0.07854  0.72254  0.70913  1.0000
  H   H282      1.0  0.34986  0.71630  0.96994  1.0000
  S   S72       1.0  0.37107  0.76390  0.95251  1.0000
  H   H283      1.0  0.27146  0.63954  0.96921  1.0000
  H   H284      1.0  0.25868  0.79009  0.98555  1.0000
  N   N19       1.0  0.27380  0.75299  0.99142  1.0000
  C   C176      1.0  0.09171  0.66050  0.71175  1.0000
  H   H285      1.0  0.11241  0.66195  0.71024  1.0000
  H   H286      1.0  0.25429  0.75595  0.93228  1.0000
  C   C177      1.0  0.26197  0.77549  0.00998  1.0000
  H   H287      1.0  0.19591  0.54896  0.78455  1.0000
  H   H288      1.0  0.11091  0.69163  0.76930  1.0000
  C   C178      1.0  0.25735  0.74250  0.95859  1.0000
  H   H289      1.0  0.28373  0.62890  0.91929  1.0000
  C   C179      1.0  0.29817  0.75974  0.97231  1.0000
  C   C180      1.0  0.35027  0.72645  0.99950  1.0000
  H   H290      1.0  0.30727  0.78686  0.63908  1.0000
  H   H291      1.0  0.08197  0.70694  0.78312  1.0000
  H   H292      1.0  0.16954  0.54718  0.85041  1.0000
  H   H293      1.0  0.28665  0.71694  0.01228  1.0000
  H   H294      1.0  0.26608  0.57715  0.01810  1.0000
  H   H295      1.0  0.21510  0.63505  0.01821  1.0000
  H   H296      1.0  0.04749  0.66550  0.75158  1.0000
  C   C181      1.0  0.04687  0.63580  0.83386  1.0000
  S   S73       1.0  0.43105  0.79522  0.90560  1.0000
  H   H297      1.0  0.33428  0.03944  0.48028  1.0000
  H   H298      1.0  0.29344  0.88938  0.41952  1.0000
  C   C182      1.0  0.34045  0.87192  0.41115  1.0000
  H   H299      1.0  0.33150  0.86582  0.44135  1.0000
  C   C183      1.0  0.52766  0.92832  0.21621  1.0000
  H   H300      1.0  0.47583  0.03408  0.22564  1.0000
  H   H301      1.0  0.32694  0.90972  0.46151  1.0000
  C   C184      1.0  0.37518  0.86928  0.06040  1.0000
  H   H302      1.0  0.35619  0.91713  0.43685  1.0000
  H   H303      1.0  0.36431  0.90549  0.36281  1.0000
  H   H304      1.0  0.39537  0.89286  0.51442  1.0000
  N   N20       1.0  0.12519  0.84520  0.50083  1.0000
  H   H305      1.0  0.40432  0.96400  0.45359  1.0000
  C   C185      1.0  0.26047  0.84106  0.48490  1.0000
  H   H306      1.0  0.49109  0.94419  0.33831  1.0000
  C   C186      1.0  0.23900  0.82627  0.49020  1.0000
  C   C187      1.0  0.53909  0.96051  0.26632  1.0000
  C   C188      1.0  0.14219  0.84200  0.46414  1.0000
  H   H307      1.0  0.53425  0.88946  0.33933  1.0000
  C   C189      1.0  0.34372  0.90419  0.35818  1.0000
  H   H308      1.0  0.33681  0.85736  0.38694  1.0000
  H   H309      1.0  0.14492  0.85982  0.44667  1.0000
  H   H310      1.0  0.36102  0.87237  0.41632  1.0000
  C   C190      1.0  0.40445  0.94382  0.45201  1.0000
  C   C191      1.0  0.48706  0.89672  0.31292  1.0000
  N   N21       1.0  0.33089  0.89659  0.39764  1.0000
  H   H311      1.0  0.23437  0.81231  0.46684  1.0000
  C   C192      1.0  0.48735  0.93028  0.36381  1.0000
  H   H312      1.0  0.29927  0.88122  0.36526  1.0000
  N   N22       1.0  0.45979  0.86990  0.08854  1.0000
  H   H313      1.0  0.32852  0.93398  0.42239  1.0000
  C   C193      1.0  0.33582  0.91519  0.43100  1.0000
  H   H314      1.0  0.34062  0.89057  0.33218  1.0000
  H   H315      1.0  0.46529  0.86634  0.02127  1.0000
  C   C194      1.0  0.30366  0.89509  0.39027  1.0000
  H   H316      1.0  0.47508  0.83366  0.07395  1.0000
  H   H317      1.0  0.36075  0.85323  0.11828  1.0000
  H   H318      1.0  0.08700  0.85614  0.51271  1.0000
  C   C195      1.0  0.51489  0.97046  0.26415  1.0000
  H   H319      1.0  0.29583  0.91343  0.38024  1.0000
  H   H320      1.0  0.42252  0.87282  0.11431  1.0000
  C   C196      1.0  0.42099  0.02255  0.27773  1.0000
  Fe  Fe37      1.0  0.40564  0.96255  0.26159  1.0000
  S   S74       1.0  0.44016  0.94511  0.28881  1.0000
  S   S75       1.0  0.39553  0.00202  0.27829  1.0000
  Fe  Fe38      1.0  0.38928  0.91489  0.21884  1.0000
  S   S76       1.0  0.42231  0.89356  0.24278  1.0000
  Fe  Fe39      1.0  0.41518  0.91298  0.30437  1.0000
  S   S77       1.0  0.41758  0.89011  0.36409  1.0000
  Fe  Fe40      1.0  0.44390  0.92748  0.22460  1.0000
  S   S78       1.0  0.47987  0.92101  0.18955  1.0000
  S   S79       1.0  0.38007  0.93160  0.28212  1.0000
  S   S80       1.0  0.41150  0.94771  0.19581  1.0000
  H   H321      1.0  0.44282  0.83359  0.08975  1.0000
  H   H322      1.0  0.48418  0.90163  0.09124  1.0000
  H   H323      1.0  0.49896  0.87314  0.07347  1.0000
  C   C197      1.0  0.40983  0.93181  0.41344  1.0000
  H   H324      1.0  0.41368  0.94275  0.38536  1.0000
  H   H325      1.0  0.49984  0.86878  0.37998  1.0000
  H   H326      1.0  0.33710  0.92280  0.34711  1.0000
  C   C198      1.0  0.38423  0.89090  0.04086  1.0000
  C   C199      1.0  0.38663  0.91287  0.06434  1.0000
  C   C200      1.0  0.38015  0.91324  0.10739  1.0000
  H   H327      1.0  0.39358  0.92962  0.04930  1.0000
  H   H328      1.0  0.38179  0.93033  0.12520  1.0000
  C   C201      1.0  0.50323  0.93773  0.21528  1.0000
  C   C202      1.0  0.49699  0.95909  0.23854  1.0000
  N   N23       1.0  0.49804  0.90558  0.35295  1.0000
  H   H329      1.0  0.50974  0.98658  0.28286  1.0000
  H   H330      1.0  0.47830  0.96680  0.23696  1.0000
  H   H331      1.0  0.44704  0.87820  0.15175  1.0000
  C   C203      1.0  0.40559  0.89176  0.44819  1.0000
  C   C204      1.0  0.45194  0.87477  0.04455  1.0000
  H   H332      1.0  0.44283  0.00167  0.23224  1.0000
  S   S81       1.0  0.36243  0.89221  0.18072  1.0000
  H   H333      1.0  0.46679  0.83820  0.12863  1.0000
  H   H334      1.0  0.46641  0.89453  0.31580  1.0000
  H   H335      1.0  0.27233  0.83832  0.45739  1.0000
  H   H336      1.0  0.40640  0.87159  0.44699  1.0000
  H   H337      1.0  0.13817  0.88227  0.51408  1.0000
  H   H338      1.0  0.49502  0.87834  0.30324  1.0000
  H   H339      1.0  0.09207  0.83965  0.46395  1.0000
  C   C205      1.0  0.48466  0.88101  0.09565  1.0000
  H   H340      1.0  0.45057  0.89512  0.03785  1.0000
  C   C206      1.0  0.36806  0.86985  0.10327  1.0000
  C   C207      1.0  0.44173  0.01845  0.25122  1.0000
  H   H341      1.0  0.46669  0.92925  0.36854  1.0000
  H   H342      1.0  0.37318  0.85228  0.04234  1.0000
  H   H343      1.0  0.49123  0.87754  0.12851  1.0000
  H   H344      1.0  0.49549  0.93772  0.39351  1.0000
  C   C208      1.0  0.39928  0.90374  0.48631  1.0000
  C   C209      1.0  0.37071  0.89180  0.12689  1.0000
  C   C210      1.0  0.41063  0.90574  0.41163  1.0000
  C   C211      1.0  0.46118  0.84265  0.09564  1.0000
  C   C212      1.0  0.46042  0.03675  0.24760  1.0000
  C   C213      1.0  0.44141  0.88108  0.11825  1.0000
  H   H345      1.0  0.13465  0.82822  0.44127  1.0000
  H   H346      1.0  0.50005  0.89378  0.41790  1.0000
  C   C214      1.0  0.52549  0.90768  0.34794  1.0000
  C   C215      1.0  0.49215  0.88766  0.38715  1.0000
  H   H347      1.0  0.47152  0.88571  0.39165  1.0000
  C   C216      1.0  0.39897  0.92981  0.48842  1.0000
  H   H348      1.0  0.53252  0.91170  0.19845  1.0000
  H   H349      1.0  0.53015  0.02059  0.31956  1.0000
  H   H350      1.0  0.05032  0.80647  0.40941  1.0000
  H   H351      1.0  0.49070  0.91002  0.28658  1.0000
  H   H352      1.0  0.43957  0.90160  0.11334  1.0000
  C   C217      1.0  0.26666  0.85929  0.51491  1.0000
  S   S82       1.0  0.29412  0.87697  0.50727  1.0000
  H   H353      1.0  0.16099  0.83524  0.47416  1.0000
  H   H354      1.0  0.53051  0.92118  0.32255  1.0000
  H   H355      1.0  0.10166  0.87162  0.46850  1.0000
  C   C218      1.0  0.10038  0.85361  0.48591  1.0000
  H   H356      1.0  0.43324  0.86666  0.03825  1.0000
  H   H357      1.0  0.53448  0.91434  0.37748  1.0000
  C   C219      1.0  0.41975  0.04417  0.30241  1.0000
  H   H358      1.0  0.11461  0.80658  0.50217  1.0000
  C   C220      1.0  0.52801  0.04110  0.32419  1.0000
  C   C221      1.0  0.54557  0.93967  0.24185  1.0000
  H   H359      1.0  0.52743  0.04462  0.35884  1.0000
  Fe  Fe41      1.0  0.30916  0.90417  0.55577  1.0000
  S   S83       1.0  0.34596  0.89318  0.58430  1.0000
  C   C222      1.0  0.34254  0.04312  0.61010  1.0000
  Fe  Fe42      1.0  0.30896  0.95540  0.60029  1.0000
  S   S84       1.0  0.34532  0.94776  0.63305  1.0000
  S   S85       1.0  0.28702  0.99158  0.60741  1.0000
  Fe  Fe43      1.0  0.35751  0.93249  0.56971  1.0000
  Fe  Fe44      1.0  0.33021  0.90916  0.64464  1.0000
  S   S86       1.0  0.32783  0.88758  0.70654  1.0000
  S   S87       1.0  0.32204  0.94240  0.53642  1.0000
  S   S88       1.0  0.29245  0.91795  0.61670  1.0000
  C   C223      1.0  0.30359  0.02001  0.60957  1.0000
  C   C224      1.0  0.32972  0.02034  0.60805  1.0000
  H   H360      1.0  0.12358  0.86668  0.55821  1.0000
  H   H361      1.0  0.34008  0.00300  0.60536  1.0000
  S   S89       1.0  0.41522  0.81929  0.99826  1.0000
  Fe  Fe45      1.0  0.39626  0.79789  0.94652  1.0000
  H   H362      1.0  0.38769  0.95854  0.84142  1.0000
  C   C225      1.0  0.34964  0.86109  0.77056  1.0000
  C   C226      1.0  0.30831  0.82627  0.58635  1.0000
  H   H363      1.0  0.21783  0.85057  0.58313  1.0000
  C   C227      1.0  0.13580  0.86387  0.52994  1.0000
  H   H364      1.0  0.33075  0.85876  0.78241  1.0000
  C   C228      1.0  0.25124  0.86265  0.55039  1.0000
  C   C229      1.0  0.22977  0.84782  0.55573  1.0000
  C   C230      1.0  0.40020  0.94206  0.84554  1.0000
  C   C231      1.0  0.37823  0.87713  0.71762  1.0000
  C   C232      1.0  0.28975  0.84776  0.64590  1.0000
  C   C233      1.0  0.12250  0.82115  0.52326  1.0000
  H   H365      1.0  0.25570  0.87681  0.57345  1.0000
  S   S90       1.0  0.19631  0.81159  0.53341  1.0000
  H   H366      1.0  0.39319  0.88104  0.87188  1.0000
  C   C234      1.0  0.29040  0.04273  0.61282  1.0000
  H   H367      1.0  0.15460  0.85781  0.54138  1.0000
  H   H368      1.0  0.10978  0.82279  0.55112  1.0000
  C   C235      1.0  0.51702  0.82411  0.91904  1.0000
  C   C236      1.0  0.54053  0.82671  0.89910  1.0000
  H   H369      1.0  0.36642  0.84099  0.82259  1.0000
  N   N24       1.0  0.30618  0.82681  0.63300  1.0000
  C   C237      1.0  0.36982  0.85111  0.79352  1.0000
  H   H370      1.0  0.28973  0.82356  0.57132  1.0000
  H   H371      1.0  0.31599  0.84410  0.57374  1.0000
  C   C238      1.0  0.33126  0.83017  0.65159  1.0000
  C   C239      1.0  0.35378  0.87440  0.73286  1.0000
  H   H372      1.0  0.27015  0.04258  0.61399  1.0000
  S   S91       1.0  0.39279  0.89094  0.98720  1.0000
  C   C240      1.0  0.22355  0.82962  0.52564  1.0000
  C   C241      1.0  0.53777  0.81831  0.98607  1.0000
  H   H373      1.0  0.35876  0.93997  0.89575  1.0000
  S   S92       1.0  0.39266  0.94506  0.53656  1.0000
  N   N25       1.0  0.38592  0.91973  0.85838  1.0000
  S   S93       1.0  0.48638  0.81623  0.98906  1.0000
  H   H374      1.0  0.27055  0.84577  0.63297  1.0000
  Fe  Fe46      1.0  0.44909  0.81927  0.95518  1.0000
  H   H375      1.0  0.34429  0.81478  0.64258  1.0000
  H   H376      1.0  0.28821  0.84926  0.68097  1.0000
  H   H377      1.0  0.35608  0.89720  0.83457  1.0000
  H   H378      1.0  0.41687  0.90201  0.88975  1.0000
  H   H379      1.0  0.41024  0.93889  0.81496  1.0000
  Fe  Fe47      1.0  0.40358  0.85327  0.96176  1.0000
  Fe  Fe48      1.0  0.41728  0.83121  0.87649  1.0000
  S   S94       1.0  0.42026  0.84265  0.80733  1.0000
  H   H380      1.0  0.37693  0.90911  0.79474  1.0000
  C   C242      1.0  0.40335  0.89850  0.86383  1.0000
  S   S95       1.0  0.43848  0.85472  0.92261  1.0000
  H   H381      1.0  0.41449  0.94691  0.86960  1.0000
  H   H382      1.0  0.41733  0.86919  0.72860  1.0000
  C   C243      1.0  0.51554  0.81980  0.96263  1.0000
  C   C244      1.0  0.36751  0.91366  0.82536  1.0000
  H   H383      1.0  0.50006  0.82525  0.90064  1.0000
  C   C245      1.0  0.39842  0.86693  0.74042  1.0000
  H   H384      1.0  0.33031  0.83089  0.68680  1.0000
  C   C246      1.0  0.39433  0.85411  0.77866  1.0000
  H   H385      1.0  0.29727  0.86584  0.63439  1.0000
  H   H386      1.0  0.54147  0.82988  0.86533  1.0000
  C   C247      1.0  0.37271  0.92462  0.89880  1.0000
  S   S96       1.0  0.38145  0.83230  0.91366  1.0000
  H   H387      1.0  0.38165  0.88725  0.68851  1.0000
  H   H388      1.0  0.36265  0.90770  0.91025  1.0000
  H   H389      1.0  0.41434  0.89468  0.83443  1.0000
  H   H390      1.0  0.35437  0.92943  0.81947  1.0000
  H   H391      1.0  0.38602  0.92985  0.92422  1.0000
  H   H392      1.0  0.33988  0.84802  0.64107  1.0000
  H   H393      1.0  0.29339  0.80299  0.68332  1.0000
  H   H394      1.0  0.32085  0.81094  0.57533  1.0000
  H   H395      1.0  0.27638  0.80004  0.63472  1.0000
  H   H396      1.0  0.14090  0.81418  0.53485  1.0000
  C   C248      1.0  0.29533  0.80310  0.64821  1.0000
  H   H397      1.0  0.36279  0.04312  0.60900  1.0000
  H   H398      1.0  0.53680  0.81492  0.01977  1.0000
  Fe  Fe49      1.0  0.62560  0.16393  0.32869  1.0000
  S   S97       1.0  0.61095  0.15798  0.26352  1.0000
  S   S98       1.0  0.60411  0.18176  0.38188  1.0000
  Fe  Fe50      1.0  0.67818  0.14785  0.30510  1.0000
  S   S99       1.0  0.66849  0.14058  0.23679  1.0000
  H   H399      1.0  0.62865  0.25921  0.36483  1.0000
  Fe  Fe51      1.0  0.64620  0.17627  0.24103  1.0000
  S   S100      1.0  0.64256  0.20974  0.19780  1.0000
  Fe  Fe52      1.0  0.63400  0.12287  0.26484  1.0000
  S   S101      1.0  0.61438  0.08833  0.24285  1.0000
  S   S102      1.0  0.65919  0.18499  0.30656  1.0000
  S   S103      1.0  0.64551  0.12719  0.33261  1.0000
  H   H400      1.0  0.67950  0.17899  0.46470  1.0000
  C   C249      1.0  0.69550  0.16458  0.40677  1.0000
  C   C250      1.0  0.69659  0.17377  0.44836  1.0000
  H   H401      1.0  0.67760  0.16270  0.39143  1.0000
  C   C251      1.0  0.64596  0.20558  0.14285  1.0000
  C   C252      1.0  0.64103  0.22585  0.11610  1.0000
  C   C253      1.0  0.64515  0.22389  0.07236  1.0000
  C   C254      1.0  0.65445  0.20170  0.05496  1.0000
  C   C255      1.0  0.65871  0.18115  0.08155  1.0000
  C   C256      1.0  0.65453  0.18307  0.12547  1.0000
  H   H402      1.0  0.69568  0.22021  0.12306  1.0000
  H   H403      1.0  0.65833  0.16729  0.14589  1.0000
  C   C257      1.0  0.65866  0.06165  0.24871  1.0000
  H   H404      1.0  0.66819  0.07939  0.24993  1.0000
  H   H405      1.0  0.82837  0.25931  0.48054  1.0000
  C   C258      1.0  0.57284  0.04605  0.32083  1.0000
  C   C259      1.0  0.57219  0.18610  0.37230  1.0000
  C   C260      1.0  0.86740  0.25895  0.49739  1.0000
  H   H406      1.0  0.56967  0.21718  0.41528  1.0000
  H   H407      1.0  0.56875  0.15575  0.32805  1.0000
  N   N26       1.0  0.61161  0.24777  0.30646  1.0000
  C   C261      1.0  0.59440  0.26943  0.30515  1.0000
  C   C262      1.0  0.59881  0.22562  0.28935  1.0000
  C   C263      1.0  0.61905  0.24290  0.35068  1.0000
  C   C264      1.0  0.63414  0.25308  0.28063  1.0000
  H   H408      1.0  0.64742  0.23699  0.28079  1.0000
  H   H409      1.0  0.71823  0.05950  0.48770  1.0000
  H   H410      1.0  0.75880  0.24605  0.10046  1.0000
  H   H411      1.0  0.61078  0.20872  0.29206  1.0000
  H   H412      1.0  0.58113  0.22161  0.30683  1.0000
  H   H413      1.0  0.71826  0.11693  0.46859  1.0000
  C   C265      1.0  0.74343  0.26012  0.10195  1.0000
  H   H414      1.0  0.71426  0.10258  0.39551  1.0000
  H   H415      1.0  0.63206  0.22663  0.35285  1.0000
  H   H416      1.0  0.85806  0.25302  0.32520  1.0000
  H   H417      1.0  0.70011  0.22814  0.04590  1.0000
  H   H418      1.0  0.66570  0.16382  0.06830  1.0000
  C   C266      1.0  0.63257  0.06098  0.24492  1.0000
  H   H419      1.0  0.73682  0.09964  0.50583  1.0000
  H   H420      1.0  0.64435  0.26964  0.29257  1.0000
  S   S104      1.0  0.93444  0.28770  0.39344  1.0000
  H   H421      1.0  0.70219  0.28256  0.07190  1.0000
  H   H422      1.0  0.63418  0.24324  0.12931  1.0000
  H   H423      1.0  0.69859  0.27764  0.12769  1.0000
  H   H424      1.0  0.77637  0.08377  0.43875  1.0000
  C   C267      1.0  0.83411  0.28492  0.37726  1.0000
  H   H425      1.0  0.72313  0.24974  0.02741  1.0000
  H   H426      1.0  0.60258  0.23837  0.37095  1.0000
  H   H427      1.0  0.62929  0.25655  0.24691  1.0000
  C   C268      1.0  0.73567  0.10565  0.47218  1.0000
  N   N27       1.0  0.73617  0.08403  0.44313  1.0000
  H   H428      1.0  0.59432  0.22789  0.25523  1.0000
  C   C269      1.0  0.55922  0.17103  0.34377  1.0000
  S   S105      1.0  0.87441  0.28468  0.46416  1.0000
  N   N28       1.0  0.71877  0.24852  0.09497  1.0000
  H   H429      1.0  0.74737  0.10617  0.38944  1.0000
  H   H430      1.0  0.73293  0.07704  0.37628  1.0000
  H   H431      1.0  0.60343  0.28653  0.31772  1.0000
  C   C270      1.0  0.74055  0.16005  0.40580  1.0000
  H   H432      1.0  0.72858  0.21490  0.12845  1.0000
  H   H433      1.0  0.75950  0.17127  0.46256  1.0000
  H   H434      1.0  0.75764  0.15498  0.38932  1.0000
  H   H435      1.0  0.84155  0.26810  0.39390  1.0000
  N   N29       1.0  0.84968  0.29130  0.33995  1.0000
  C   C271      1.0  0.71387  0.22969  0.12819  1.0000
  S   S106      1.0  0.00338  0.27098  0.42532  1.0000
  C   C272      1.0  0.03172  0.28342  0.44388  1.0000
  H   H436      1.0  0.68028  0.26007  0.09094  1.0000
  C   C273      1.0  0.85013  0.27009  0.31010  1.0000
  C   C274      1.0  0.71868  0.23627  0.05309  1.0000
  C   C275      1.0  0.74161  0.16912  0.44744  1.0000
  H   H437      1.0  0.74751  0.27454  0.07740  1.0000
  C   C276      1.0  0.71590  0.06662  0.45480  1.0000
  C   C277      1.0  0.55976  0.20565  0.39295  1.0000
  C   C278      1.0  0.73255  0.09278  0.39922  1.0000
  H   H438      1.0  0.81443  0.28107  0.36837  1.0000
  C   C279      1.0  0.76057  0.07104  0.44639  1.0000
  H   H439      1.0  0.88369  0.28006  0.37016  1.0000
  H   H440      1.0  0.57724  0.26595  0.32448  1.0000
  H   H441      1.0  0.75180  0.11826  0.46627  1.0000
  H   H442      1.0  0.71311  0.23826  0.16023  1.0000
  H   H443      1.0  0.58835  0.27347  0.27220  1.0000
  H   H444      1.0  0.73274  0.22093  0.05113  1.0000
  C   C280      1.0  0.69909  0.26802  0.09653  1.0000
  H   H445      1.0  0.69724  0.07588  0.45297  1.0000
  H   H446      1.0  0.83100  0.26553  0.29897  1.0000
  C   C281      1.0  0.71749  0.15762  0.38543  1.0000
  C   C282      1.0  0.84263  0.25028  0.49932  1.0000
  S   S107      1.0  0.71647  0.14502  0.33400  1.0000
  H   H447      1.0  0.64098  0.23957  0.05224  1.0000
  C   C283      1.0  0.71962  0.17579  0.46899  1.0000
  H   H448      1.0  0.76374  0.06395  0.47903  1.0000
  H   H449      1.0  0.74422  0.26953  0.13327  1.0000
  H   H450      1.0  0.57341  0.04807  0.35580  1.0000
  H   H451      1.0  0.58878  0.05691  0.30761  1.0000
  H   H452      1.0  0.86192  0.27432  0.28178  1.0000
  H   H453      1.0  0.56116  0.09261  0.29574  1.0000
  H   H454      1.0  0.76176  0.05477  0.42461  1.0000
  H   H455      1.0  0.71564  0.05012  0.43339  1.0000
  H   H456      1.0  0.55493  0.27446  0.04112  1.0000
  H   H457      1.0  0.56302  0.06073  0.24060  1.0000
  H   H458      1.0  0.90478  0.25364  0.52069  1.0000
  N   N30       1.0  0.54870  0.05478  0.30348  1.0000
  C   C284      1.0  0.54810  0.05010  0.25743  1.0000
  H   H459      1.0  0.71448  0.20568  0.60374  1.0000
  Fe  Fe53      1.0  0.64273  0.28103  0.92905  1.0000
  S   S108      1.0  0.64942  0.24289  0.90210  1.0000
  Fe  Fe54      1.0  0.66810  0.23531  0.96421  1.0000
  Fe  Fe55      1.0  0.68647  0.25754  0.87958  1.0000
  C   C285      1.0  0.87906  0.22705  0.54852  1.0000
  H   H460      1.0  0.71233  0.20398  0.83884  1.0000
  H   H461      1.0  0.68669  0.16950  0.59551  1.0000
  H   H462      1.0  0.69571  0.15680  0.64575  1.0000
  H   H463      1.0  0.66977  0.21289  0.59180  1.0000
  H   H464      1.0  0.81836  0.16663  0.71261  1.0000
  Fe  Fe56      1.0  0.69624  0.28453  0.96368  1.0000
  H   H465      1.0  0.71353  0.22367  0.65143  1.0000
  S   S109      1.0  0.65947  0.27267  0.99264  1.0000
  H   H466      1.0  0.86259  0.21543  0.67629  1.0000
  C   C286      1.0  0.71830  0.23040  0.78854  1.0000
  H   H467      1.0  0.61118  0.17585  0.96401  1.0000
  H   H468      1.0  0.81698  0.22353  0.52668  1.0000
  N   N31       1.0  0.58572  0.20688  0.95751  1.0000
  H   H469      1.0  0.54896  0.20524  0.98545  1.0000
  H   H470      1.0  0.66843  0.23179  0.63876  1.0000
  H   H471      1.0  0.56877  0.17884  0.99688  1.0000
  C   C287      1.0  0.68253  0.17003  0.63015  1.0000
  N   N32       1.0  0.68513  0.19556  0.64723  1.0000
  H   H472      1.0  0.69448  0.18286  0.70982  1.0000
  H   H473      1.0  0.72492  0.19196  0.65231  1.0000
  H   H474      1.0  0.59730  0.17892  0.91244  1.0000
  H   H475      1.0  0.66169  0.18848  0.70160  1.0000
  H   H476      1.0  0.59378  0.23716  0.91459  1.0000
  H   H477      1.0  0.64726  0.20610  0.63279  1.0000
  C   C288      1.0  0.68077  0.19526  0.69351  1.0000
  C   C289      1.0  0.66679  0.21233  0.62677  1.0000
  H   H478      1.0  0.68281  0.21422  0.70754  1.0000
  S   S110      1.0  0.70089  0.25504  0.81166  1.0000
  H   H479      1.0  0.58255  0.23302  0.00883  1.0000
  C   C290      1.0  0.83610  0.23002  0.52552  1.0000
  H   H480      1.0  0.87123  0.21003  0.73040  1.0000
  H   H481      1.0  0.89327  0.21807  0.56748  1.0000
  S   S111      1.0  0.70596  0.24614  0.93917  1.0000
  S   S112      1.0  0.66114  0.19941  0.00032  1.0000
  H   H482      1.0  0.85401  0.23777  0.71626  1.0000
  H   H483      1.0  0.60337  0.20724  0.01841  1.0000
  C   C291      1.0  0.85429  0.21835  0.55034  1.0000
  C   C292      1.0  0.82408  0.20699  0.76147  1.0000
  H   H484      1.0  0.66327  0.16276  0.63506  1.0000
  C   C293      1.0  0.71065  0.20464  0.63833  1.0000
  H   H485      1.0  0.72770  0.25229  0.73352  1.0000
  C   C294      1.0  0.72069  0.20708  0.80801  1.0000
  H   H486      1.0  0.61275  0.23199  0.98365  1.0000
  Fe  Fe57      1.0  0.75375  0.17308  0.55915  1.0000
  C   C295      1.0  0.72930  0.23419  0.74853  1.0000
  Fe  Fe58      1.0  0.76847  0.16385  0.65085  1.0000
  S   S113      1.0  0.80370  0.14365  0.63145  1.0000
  S   S114      1.0  0.75906  0.16592  0.72096  1.0000
  Fe  Fe59      1.0  0.80831  0.17531  0.58499  1.0000
  S   S115      1.0  0.84669  0.19338  0.58486  1.0000
  Fe  Fe60      1.0  0.78067  0.12502  0.58178  1.0000
  S   S116      1.0  0.77797  0.08534  0.55750  1.0000
  S   S117      1.0  0.77409  0.19633  0.60707  1.0000
  S   S118      1.0  0.74498  0.14246  0.60508  1.0000
  C   C296      1.0  0.74410  0.19127  0.74677  1.0000
  C   C297      1.0  0.73355  0.18759  0.78713  1.0000
  H   H487      1.0  0.81878  0.21310  0.65500  1.0000
  H   H488      1.0  0.80928  0.23459  0.69558  1.0000
  H   H489      1.0  0.80602  0.19713  0.76736  1.0000
  C   C298      1.0  0.79661  0.05853  0.62595  1.0000
  C   C299      1.0  0.60468  0.18953  0.93982  1.0000
  H   H490      1.0  0.83809  0.19913  0.78375  1.0000
  H   H491      1.0  0.80168  0.07625  0.63971  1.0000
  C   C300      1.0  0.74237  0.21481  0.72791  1.0000
  H   H492      1.0  0.73503  0.16948  0.80215  1.0000
  H   H493      1.0  0.75103  0.21816  0.69747  1.0000
  H   H494      1.0  0.84205  0.17445  0.67403  1.0000
  C   C301      1.0  0.78475  0.05794  0.58662  1.0000
  C   C302      1.0  0.59652  0.22038  0.99372  1.0000
  H   H495      1.0  0.85055  0.16877  0.72799  1.0000
  H   H496      1.0  0.79502  0.20438  0.69264  1.0000
  C   C303      1.0  0.56364  0.19262  0.97198  1.0000
  H   H497      1.0  0.82105  0.22697  0.76975  1.0000
  N   N33       1.0  0.83232  0.20409  0.71698  1.0000
  C   C304      1.0  0.85611  0.21745  0.70981  1.0000
  C   C305      1.0  0.83598  0.17731  0.70753  1.0000
  C   C306      1.0  0.81299  0.21453  0.68882  1.0000
  H   H498      1.0  0.62161  0.19968  0.92881  1.0000
  S   S119      1.0  0.78842  0.15478  0.53311  1.0000
  C   C307      1.0  0.88564  0.24719  0.52200  1.0000
  C   C308      1.0  0.57699  0.28329  0.98566  1.0000
  H   H499      1.0  0.55297  0.29423  0.88814  1.0000
  C   C309      1.0  0.57798  0.22498  0.92469  1.0000
  C   C310      1.0  0.57654  0.28913  0.94254  1.0000
  H   H500      1.0  0.59459  0.28339  0.00236  1.0000
  H   H501      1.0  0.56281  0.23751  0.93652  1.0000
  H   H502      1.0  0.57083  0.21549  0.89598  1.0000
  C   C311      1.0  0.55450  0.27827  0.00753  1.0000
  H   H503      1.0  0.55499  0.18223  0.94540  1.0000
  C   C312      1.0  0.55349  0.28952  0.92143  1.0000
  S   S120      1.0  0.72044  0.18640  0.52176  1.0000
  Fe  Fe61      1.0  0.79612  0.41687  0.09161  1.0000
  S   S121      1.0  0.82447  0.38685  0.10464  1.0000
  H   H504      1.0  0.87589  0.31232  0.37660  1.0000
  Fe  Fe62      1.0  0.83055  0.45890  0.12308  1.0000
  S   S122      1.0  0.86136  0.43135  0.13708  1.0000
  S   S123      1.0  0.84323  0.49792  0.14143  1.0000
  Fe  Fe63      1.0  0.85172  0.41376  0.07520  1.0000
  Fe  Fe64      1.0  0.83141  0.40737  0.16539  1.0000
  S   S124      1.0  0.83298  0.39160  0.23214  1.0000
  S   S125      1.0  0.82307  0.44282  0.05870  1.0000
  S   S126      1.0  0.80089  0.43578  0.15485  1.0000
  S   S127      1.0  0.91189  0.34106  0.42986  1.0000
  S   S128      1.0  0.96322  0.37689  0.50117  1.0000
  S   S129      1.0  0.97155  0.33504  0.40658  1.0000
  H   H505      1.0  0.85378  0.42819  0.28604  1.0000
  Fe  Fe65      1.0  0.94842  0.34439  0.46399  1.0000
  Fe  Fe66      1.0  0.93494  0.32805  0.37458  1.0000
  S   S130      1.0  0.92948  0.33773  0.30537  1.0000
  C   C313      1.0  0.89436  0.43202  0.23466  1.0000
  H   H506      1.0  0.91608  0.45848  0.29595  1.0000
  H   H507      1.0  0.88795  0.30143  0.32672  1.0000
  H   H508      1.0  0.84926  0.45389  0.22288  1.0000
  H   H509      1.0  0.88198  0.42855  0.31629  1.0000
  H   H510      1.0  0.91244  0.47775  0.24972  1.0000
  H   H511      1.0  0.86073  0.45479  0.31795  1.0000
  H   H512      1.0  0.78203  0.36017  0.07240  1.0000
  C   C314      1.0  0.90253  0.35280  0.28580  1.0000
  C   C315      1.0  0.90015  0.35616  0.24195  1.0000
  C   C316      1.0  0.87884  0.36784  0.22501  1.0000
  C   C317      1.0  0.85971  0.37621  0.25191  1.0000
  C   C318      1.0  0.86209  0.37292  0.29579  1.0000
  C   C319      1.0  0.88347  0.36133  0.31276  1.0000
  H   H513      1.0  0.91487  0.34961  0.22094  1.0000
  H   H514      1.0  0.87720  0.37030  0.19114  1.0000
  H   H515      1.0  0.84740  0.37951  0.31678  1.0000
  H   H516      1.0  0.88525  0.35903  0.34660  1.0000
  H   H517      1.0  0.85075  0.31901  0.29069  1.0000
  C   C320      1.0  0.82799  0.52661  0.13028  1.0000
  C   C321      1.0  0.80265  0.52796  0.11975  1.0000
  S   S131      1.0  0.75898  0.40905  0.05948  1.0000
  H   H518      1.0  0.79191  0.51099  0.11682  1.0000
  H   H519      1.0  0.01479  0.31636  0.47084  1.0000
  H   H520      1.0  0.90723  0.42005  0.25356  1.0000
  C   C322      1.0  0.76512  0.35777  0.05446  1.0000
  H   H521      1.0  0.90516  0.43993  0.20759  1.0000
  N   N34       1.0  0.88258  0.45182  0.26067  1.0000
  S   S132      1.0  0.94787  0.30534  0.49025  1.0000
  C   C323      1.0  0.75831  0.33383  0.04074  1.0000
  H   H522      1.0  0.87383  0.47439  0.20626  1.0000
  C   C324      1.0  0.86459  0.46605  0.23461  1.0000
  Fe  Fe67      1.0  0.91308  0.30075  0.45092  1.0000
  C   C325      1.0  0.86924  0.44039  0.29692  1.0000
  H   H523      1.0  0.85562  0.48153  0.25268  1.0000
  H   H524      1.0  0.88001  0.41957  0.22100  1.0000
  C   C326      1.0  0.03208  0.30620  0.46537  1.0000
  H   H525      1.0  0.77022  0.31805  0.04810  1.0000
  H   H526      1.0  0.89396  0.48391  0.29627  1.0000
  C   C327      1.0  0.90215  0.46875  0.27640  1.0000
  H   H527      1.0  0.83882  0.32996  0.34056  1.0000
  S   S133      1.0  0.88114  0.39938  0.02944  1.0000
  C   C328      1.0  0.75006  0.37841  0.04503  1.0000
  H   H528      1.0  0.81982  0.31044  0.30781  1.0000
  C   C329      1.0  0.83926  0.31362  0.31881  1.0000
  H   H529      1.0  0.83398  0.30031  0.40097  1.0000
  C   C330      1.0  0.87544  0.29653  0.35380  1.0000
  Fe  Fe68      1.0  0.96914  0.29589  0.43047  1.0000
  C   C331      1.0  0.72796  0.37477  0.02198  1.0000
  H   H530      1.0  0.02362  0.45790  0.78323  1.0000
  Fe  Fe69      1.0  0.96158  0.40984  0.77028  1.0000
  S   S134      1.0  0.96483  0.43182  0.71030  1.0000
  S   S135      1.0  0.98892  0.37791  0.77265  1.0000
  Fe  Fe70      1.0  0.91784  0.44094  0.80358  1.0000
  S   S136      1.0  0.91756  0.46511  0.74558  1.0000
  S   S137      1.0  0.88928  0.45384  0.85190  1.0000
  Fe  Fe71      1.0  0.92296  0.42948  0.70954  1.0000
  S   S138      1.0  0.89931  0.41810  0.65419  1.0000
  Fe  Fe72      1.0  0.95920  0.46502  0.75217  1.0000
  S   S139      1.0  0.98383  0.49877  0.75185  1.0000
  S   S140      1.0  0.91992  0.40504  0.76697  1.0000
  S   S141      1.0  0.95936  0.44336  0.81271  1.0000
  C   C332      1.0  0.91927  0.38266  0.54618  1.0000
  H   H531      1.0  0.92744  0.35380  0.71430  1.0000
  C   C333      1.0  0.94252  0.34010  0.70636  1.0000
  C   C334      1.0  0.97300  0.32643  0.65430  1.0000
  H   H532      1.0  0.02923  0.47142  0.70944  1.0000
  C   C335      1.0  0.01763  0.40350  0.82927  1.0000
  C   C336      1.0  0.91584  0.40927  0.60836  1.0000
  C   C337      1.0  0.94021  0.41768  0.60123  1.0000
  C   C338      1.0  0.95422  0.40829  0.56710  1.0000
  H   H533      1.0  0.92062  0.49598  0.83433  1.0000
  H   H534      1.0  0.71617  0.39064  0.01451  1.0000
  C   C339      1.0  0.90510  0.39236  0.58004  1.0000
  H   H535      1.0  0.94833  0.43125  0.62221  1.0000
  S   S142      1.0  0.60417  0.29649  0.91409  1.0000
  H   H536      1.0  0.78467  0.36414  0.93438  1.0000
  H   H537      1.0  0.88612  0.38605  0.58521  1.0000
  C   C340      1.0  0.88441  0.41518  0.98078  1.0000
  C   C341      1.0  0.89910  0.40463  0.94836  1.0000
  C   C342      1.0  0.90109  0.41649  0.90873  1.0000
  C   C343      1.0  0.88821  0.43885  0.90138  1.0000
  C   C344      1.0  0.87367  0.44945  0.93383  1.0000
  C   C345      1.0  0.87198  0.43779  0.97350  1.0000
  C   C346      1.0  0.88485  0.52752  0.86134  1.0000
  H   H538      1.0  0.91238  0.40821  0.88383  1.0000
  H   H539      1.0  0.86385  0.46686  0.92844  1.0000
  C   C347      1.0  0.82362  0.39445  0.91381  1.0000
  C   C348      1.0  0.96873  0.52564  0.73313  1.0000
  C   C349      1.0  0.94821  0.52380  0.70614  1.0000
  H   H540      1.0  0.78621  0.42756  0.98111  1.0000
  H   H541      1.0  0.94222  0.50573  0.69502  1.0000
  H   H542      1.0  0.84161  0.40380  0.92143  1.0000
  C   C350      1.0  0.01739  0.38727  0.79469  1.0000
  C   C351      1.0  0.04476  0.48377  0.71965  1.0000
  H   H543      1.0  0.86131  0.44649  0.99853  1.0000
  N   N35       1.0  0.89969  0.52959  0.82184  1.0000
  H   H544      1.0  0.93967  0.34535  0.59927  1.0000
  C   C352      1.0  0.03898  0.47079  0.79229  1.0000
  S   S143      1.0  0.72906  0.29945  0.00150  1.0000
  H   H545      1.0  0.93453  0.32106  0.70936  1.0000
  C   C353      1.0  0.88556  0.51852  0.78655  1.0000
  H   H546      1.0  0.90887  0.38719  0.95386  1.0000
  H   H547      1.0  0.80187  0.38925  0.01458  1.0000
  C   C354      1.0  0.92368  0.51605  0.82688  1.0000
  H   H548      1.0  0.94805  0.38422  0.66842  1.0000
  H   H549      1.0  0.81680  0.40261  0.88361  1.0000
  H   H550      1.0  0.81953  0.36675  0.98461  1.0000
  H   H551      1.0  0.81710  0.43494  0.96237  1.0000
  C   C355      1.0  0.81527  0.38701  0.98781  1.0000
  C   C356      1.0  0.79977  0.42451  0.95459  1.0000
  H   H552      1.0  0.89639  0.51942  0.75633  1.0000
  H   H553      1.0  0.76710  0.38747  0.96244  1.0000
  H   H554      1.0  0.00021  0.41013  0.84287  1.0000
  H   H555      1.0  0.95725  0.34206  0.73088  1.0000
  H   H556      1.0  0.82797  0.37438  0.90820  1.0000
  H   H557      1.0  0.88122  0.49852  0.79284  1.0000
  C   C357      1.0  0.96283  0.37013  0.66109  1.0000
  H   H558      1.0  0.92465  0.32263  0.63243  1.0000
  H   H559      1.0  0.98104  0.32943  0.62204  1.0000
  H   H560      1.0  0.91702  0.35516  0.63817  1.0000
  H   H561      1.0  0.86748  0.52842  0.78150  1.0000
  C   C358      1.0  0.93263  0.34176  0.63199  1.0000
  C   C359      1.0  0.04002  0.37828  0.77785  1.0000
  H   H562      1.0  0.70409  0.34815  0.99041  1.0000
  C   C360      1.0  0.78166  0.38464  0.93750  1.0000
  H   H563      1.0  0.03004  0.48896  0.80074  1.0000
  N   N36       1.0  0.95275  0.34456  0.66345  1.0000
  H   H564      1.0  0.97821  0.37294  0.68410  1.0000
  H   H565      1.0  0.97038  0.37435  0.62898  1.0000
  N   N37       1.0  0.80508  0.39764  0.94836  1.0000
  C   C361      1.0  0.72109  0.35073  0.00822  1.0000
  H   H566      1.0  0.79166  0.43312  0.92571  1.0000
  H   H567      1.0  0.98851  0.32818  0.67746  1.0000
  H   H568      1.0  0.77376  0.39165  0.90726  1.0000
  H   H569      1.0  0.96607  0.30690  0.65572  1.0000
  H   H570      1.0  0.93515  0.51677  0.79745  1.0000
  H   H571      1.0  0.83283  0.39647  0.99701  1.0000
  H   H572      1.0  0.88078  0.50763  0.86911  1.0000
  H   H573      1.0  0.03987  0.36561  0.75123  1.0000
  C   C362      1.0  0.04041  0.41031  0.84756  1.0000
  H   H574      1.0  0.04045  0.42243  0.87491  1.0000
  H   H575      1.0  0.97325  0.41451  0.56210  1.0000
  H   H576      1.0  0.03638  0.50251  0.72596  1.0000
  C   C363      1.0  0.73632  0.33017  0.01755  1.0000
  H   H577      1.0  0.93506  0.52404  0.85279  1.0000
  C   C364      1.0  0.94402  0.39032  0.54021  1.0000
  H   H578      1.0  0.86659  0.53748  0.85868  1.0000
  H   H579      1.0  0.89496  0.53558  0.88871  1.0000
  S   S144      1.0  0.67876  0.29667  0.90243  1.0000
  H   H580      1.0  0.91980  0.54403  0.67193  1.0000
  H   H581      1.0  0.91124  0.36898  0.52519  1.0000
  H   H582      1.0  0.69887  0.71324  0.03805  1.0000
  H   H583      1.0  0.74000  0.70269  0.07026  1.0000
  H   H584      1.0  0.96976  0.73172  0.29732  1.0000
  S   S145      1.0  0.94489  0.78632  0.42259  1.0000
  H   H585      1.0  0.68446  0.76340  0.09731  1.0000
  H   H586      1.0  0.79797  0.56474  0.24262  1.0000
  Fe  Fe73      1.0  0.90602  0.74303  0.49484  1.0000
  C   C365      1.0  0.75093  0.76303  0.04266  1.0000
  Fe  Fe74      1.0  0.92022  0.75427  0.40363  1.0000
  C   C366      1.0  0.77978  0.62551  0.23603  1.0000
  S   S146      1.0  0.92067  0.74453  0.33382  1.0000
  Fe  Fe75      1.0  0.95858  0.76094  0.47406  1.0000
  C   C367      1.0  0.83016  0.57218  0.12749  1.0000
  H   H587      1.0  0.78122  0.58003  0.20107  1.0000
  S   S147      1.0  0.93611  0.72816  0.45217  1.0000
  S   S148      1.0  0.88763  0.76631  0.44439  1.0000
  Fe  Fe76      1.0  0.85269  0.67246  0.09187  1.0000
  S   S149      1.0  0.81521  0.66597  0.06266  1.0000
  Fe  Fe77      1.0  0.83147  0.67549  0.18152  1.0000
  S   S150      1.0  0.79214  0.67037  0.15839  1.0000
  S   S151      1.0  0.83606  0.67681  0.25279  1.0000
  Fe  Fe78      1.0  0.80909  0.63997  0.11778  1.0000
  S   S152      1.0  0.78899  0.60275  0.11315  1.0000
  Fe  Fe79      1.0  0.80202  0.69677  0.10567  1.0000
  S   S153      1.0  0.78513  0.73309  0.08162  1.0000
  S   S154      1.0  0.84793  0.64394  0.14334  1.0000
  S   S155      1.0  0.84009  0.70439  0.13246  1.0000
  C   C368      1.0  0.73670  0.72114  0.05744  1.0000
  S   S156      1.0  0.88652  0.67898  0.05068  1.0000
  H   H588      1.0  0.78830  0.64401  0.24301  1.0000
  H   H589      1.0  0.76539  0.77706  0.04398  1.0000
  C   C369      1.0  0.80469  0.57362  0.11786  1.0000
  S   S157      1.0  0.99762  0.75057  0.49600  1.0000
  H   H590      1.0  0.83382  0.59195  0.22941  1.0000
  C   C370      1.0  0.82068  0.60772  0.22346  1.0000
  H   H591      1.0  0.03341  0.72467  0.34298  1.0000
  C   C371      1.0  0.85932  0.69618  0.27481  1.0000
  C   C372      1.0  0.86018  0.69943  0.31889  1.0000
  C   C373      1.0  0.87867  0.71445  0.33737  1.0000
  C   C374      1.0  0.89662  0.72615  0.31186  1.0000
  C   C375      1.0  0.89583  0.72282  0.26781  1.0000
  C   C376      1.0  0.87719  0.70800  0.24930  1.0000
  H   H592      1.0  0.84641  0.69038  0.33883  1.0000
  H   H593      1.0  0.87910  0.71688  0.37133  1.0000
  H   H594      1.0  0.90960  0.73183  0.24784  1.0000
  H   H595      1.0  0.87673  0.70563  0.21534  1.0000
  C   C377      1.0  0.02599  0.76168  0.47415  1.0000
  C   C378      1.0  0.02596  0.74411  0.34253  1.0000
  N   N38       1.0  0.79695  0.60483  0.24708  1.0000
  C   C379      1.0  0.98743  0.73175  0.37663  1.0000
  H   H596      1.0  0.99720  0.78093  0.31068  1.0000
  H   H597      1.0  0.64678  0.78487  0.07281  1.0000
  H   H598      1.0  0.86127  0.54795  0.14214  1.0000
  H   H599      1.0  0.81076  0.62356  0.30213  1.0000
  H   H600      1.0  0.81515  0.59027  0.30229  1.0000
  H   H601      1.0  0.76184  0.62436  0.25396  1.0000
  H   H602      1.0  0.76740  0.57788  0.25285  1.0000
  H   H603      1.0  0.77512  0.62517  0.20171  1.0000
  H   H604      1.0  0.99672  0.71171  0.30046  1.0000
  C   C380      1.0  0.78537  0.58079  0.23559  1.0000
  H   H605      1.0  0.99222  0.74147  0.40656  1.0000
  H   H606      1.0  0.83036  0.62532  0.23212  1.0000
  C   C381      1.0  0.79102  0.55140  0.11391  1.0000
  C   C382      1.0  0.68519  0.77610  0.12514  1.0000
  H   H607      1.0  0.81727  0.60841  0.18892  1.0000
  H   H608      1.0  0.78455  0.60340  0.31188  1.0000
  C   C383      1.0  0.80205  0.60547  0.29294  1.0000
  C   C384      1.0  0.98936  0.77065  0.33830  1.0000
  H   H609      1.0  0.99843  0.74070  0.27173  1.0000
  H   H610      1.0  0.96856  0.77157  0.33594  1.0000
  H   H611      1.0  0.84105  0.58902  0.12998  1.0000
  C   C385      1.0  0.02674  0.78232  0.44703  1.0000
  C   C386      1.0  0.75544  0.73919  0.05954  1.0000
  C   C387      1.0  0.71346  0.72715  0.03908  1.0000
  C   C388      1.0  0.99055  0.73158  0.30048  1.0000
  H   H612      1.0  0.99469  0.78095  0.36739  1.0000
  H   H613      1.0  0.03237  0.75327  0.37210  1.0000
  C   C389      1.0  0.84163  0.54882  0.13418  1.0000
  N   N39       1.0  0.99836  0.74452  0.33946  1.0000
  H   H614      1.0  0.03491  0.75405  0.31550  1.0000
  H   H615      1.0  0.96668  0.73115  0.37468  1.0000
  H   H616      1.0  0.70525  0.77805  0.13376  1.0000
  H   H617      1.0  0.77132  0.55231  0.10640  1.0000
  H   H618      1.0  0.99426  0.71217  0.37934  1.0000
  H   H619      1.0  0.67539  0.76656  0.15172  1.0000
  H   H620      1.0  0.63613  0.78744  0.12670  1.0000
  H   H621      1.0  0.95905  0.64800  0.02466  1.0000
  S   S158      1.0  0.92934  0.77404  0.52050  1.0000
  C   C390      1.0  0.72793  0.76886  0.02374  1.0000
  C   C391      1.0  0.70898  0.75103  0.02214  1.0000
  H   H622      1.0  0.00963  0.79219  0.43953  1.0000
  H   H623      1.0  0.83072  0.71244  0.02680  1.0000
  H   H624      1.0  0.96552  0.65448  0.61694  1.0000
  H   H625      1.0  0.93027  0.62752  0.92350  1.0000
  H   H626      1.0  0.91577  0.55833  0.78282  1.0000
  H   H627      1.0  0.77993  0.71097  0.94725  1.0000
  Fe  Fe80      1.0  0.93108  0.62629  0.74057  1.0000
  S   S159      1.0  0.93721  0.61775  0.80901  1.0000
  S   S160      1.0  0.92652  0.59567  0.69289  1.0000
  Fe  Fe81      1.0  0.92779  0.68193  0.75508  1.0000
  S   S161      1.0  0.93316  0.67835  0.82505  1.0000
  S   S162      1.0  0.92554  0.71991  0.72527  1.0000
  Fe  Fe82      1.0  0.96289  0.65061  0.80758  1.0000
  S   S163      1.0  0.99853  0.65163  0.84464  1.0000
  Fe  Fe83      1.0  0.90693  0.64599  0.82059  1.0000
  S   S164      1.0  0.87719  0.63435  0.86708  1.0000
  S   S165      1.0  0.95982  0.65663  0.73752  1.0000
  S   S166      1.0  0.89860  0.65212  0.75188  1.0000
  C   C392      1.0  0.03586  0.60667  0.76314  1.0000
  S   S167      1.0  0.88448  0.71783  0.53886  1.0000
  H   H628      1.0  0.85178  0.78225  0.66311  1.0000
  H   H629      1.0  0.91567  0.60710  0.60444  1.0000
  H   H630      1.0  0.81090  0.73239  0.90040  1.0000
  H   H631      1.0  0.88031  0.76436  0.66393  1.0000
  H   H632      1.0  0.82654  0.74442  0.01312  1.0000
  C   C393      1.0  0.91415  0.71881  0.67365  1.0000
  C   C394      1.0  0.89018  0.70971  0.66557  1.0000
  C   C395      1.0  0.88112  0.70942  0.62400  1.0000
  C   C396      1.0  0.89620  0.71775  0.59050  1.0000
  C   C397      1.0  0.92032  0.72641  0.59863  1.0000
  C   C398      1.0  0.92916  0.72725  0.64021  1.0000
  H   H633      1.0  0.87852  0.70322  0.69144  1.0000
  H   H634      1.0  0.86241  0.70277  0.61782  1.0000
  H   H635      1.0  0.93237  0.73210  0.57287  1.0000
  H   H636      1.0  0.94780  0.73409  0.64638  1.0000
  C   C399      1.0  0.87893  0.64770  0.91756  1.0000
  C   C400      1.0  0.89392  0.66853  0.92493  1.0000
  C   C401      1.0  0.89587  0.67831  0.96587  1.0000
  H   H637      1.0  0.84174  0.73898  0.91968  1.0000
  C   C402      1.0  0.86740  0.64680  0.99207  1.0000
  C   C403      1.0  0.86544  0.63704  0.95108  1.0000
  H   H638      1.0  0.90383  0.67725  0.89911  1.0000
  H   H639      1.0  0.90749  0.69442  0.97150  1.0000
  H   H640      1.0  0.78413  0.73546  0.98516  1.0000
  H   H641      1.0  0.85375  0.62095  0.94551  1.0000
  C   C404      1.0  0.02227  0.63461  0.81913  1.0000
  C   C405      1.0  0.87256  0.78372  0.66344  1.0000
  C   C406      1.0  0.01678  0.62008  0.78377  1.0000
  H   H642      1.0  0.94780  0.66849  0.98402  1.0000
  H   H643      1.0  0.99782  0.61909  0.77240  1.0000
  H   H644      1.0  0.62912  0.79095  0.77253  1.0000
  C   C407      1.0  0.94328  0.56888  0.70737  1.0000
  C   C408      1.0  0.96375  0.57068  0.73441  1.0000
  H   H645      1.0  0.94800  0.65468  0.90920  1.0000
  H   H646      1.0  0.96979  0.58874  0.74537  1.0000
  N   N40       1.0  0.92948  0.64414  0.59306  1.0000
  C   C409      1.0  0.82715  0.69399  0.94772  1.0000
  C   C410      1.0  0.83290  0.72603  0.00048  1.0000
  C   C411      1.0  0.97666  0.54910  0.74691  1.0000
  C   C412      1.0  0.91595  0.65483  0.62975  1.0000
  H   H647      1.0  0.85744  0.63808  0.01805  1.0000
  H   H648      1.0  0.84723  0.69454  0.93838  1.0000
  H   H649      1.0  0.92553  0.67169  0.64192  1.0000
  H   H650      1.0  0.91080  0.66824  0.54860  1.0000
  H   H651      1.0  0.97482  0.60570  0.00565  1.0000
  H   H652      1.0  0.93981  0.68003  0.56800  1.0000
  H   H653      1.0  0.91802  0.77995  0.62641  1.0000
  C   C413      1.0  0.79151  0.71705  0.97442  1.0000
  H   H654      1.0  0.99949  0.63278  0.93177  1.0000
  H   H655      1.0  0.95955  0.62435  0.89548  1.0000
  H   H656      1.0  0.93013  0.64141  0.99871  1.0000
  C   C414      1.0  0.95533  0.63773  0.60556  1.0000
  H   H657      1.0  0.72490  0.78723  0.01065  1.0000
  H   H658      1.0  0.95549  0.62377  0.63172  1.0000
  C   C415      1.0  0.94946  0.64854  0.99355  1.0000
  H   H659      1.0  0.85328  0.72714  0.99326  1.0000
  N   N41       1.0  0.96307  0.63374  0.96123  1.0000
  H   H660      1.0  0.88062  0.76545  0.58650  1.0000
  C   C416      1.0  0.91650  0.62139  0.57880  1.0000
  H   H661      1.0  0.99255  0.55058  0.76778  1.0000
  C   C417      1.0  0.90468  0.55616  0.81255  1.0000
  H   H662      1.0  0.03152  0.59538  0.73580  1.0000
  H   H663      1.0  0.96617  0.62964  0.57865  1.0000
  H   H664      1.0  0.89646  0.66015  0.62142  1.0000
  C   C418      1.0  0.88277  0.66732  0.99950  1.0000
  H   H665      1.0  0.88225  0.79436  0.55883  1.0000
  H   H666      1.0  0.91472  0.64135  0.65636  1.0000
  C   C419      1.0  0.94958  0.63509  0.92064  1.0000
  H   H667      1.0  0.88701  0.56702  0.80859  1.0000
  H   H668      1.0  0.91539  0.56513  0.83839  1.0000
  H   H669      1.0  0.78830  0.70361  0.00080  1.0000
  H   H670      1.0  0.89689  0.62561  0.56938  1.0000
  H   H671      1.0  0.81645  0.68762  0.91970  1.0000
  H   H672      1.0  0.92621  0.61272  0.55121  1.0000
  H   H673      1.0  0.81519  0.75616  0.93970  1.0000
  H   H674      1.0  0.04481  0.67681  0.69840  1.0000
  C   C420      1.0  0.96467  0.60744  0.97514  1.0000
  H   H675      1.0  0.04357  0.69830  0.74207  1.0000
  H   H676      1.0  0.99918  0.64378  0.98553  1.0000
  N   N42       1.0  0.81832  0.71859  0.96297  1.0000
  C   C421      1.0  0.82170  0.73737  0.92915  1.0000
  C   C422      1.0  0.93005  0.66266  0.55833  1.0000
  H   H677      1.0  0.82515  0.67943  0.97263  1.0000
  S   S168      1.0  0.67907  0.75847  0.00179  1.0000
  H   H678      1.0  0.94570  0.59932  0.97983  1.0000
  H   H679      1.0  0.93989  0.65524  0.52984  1.0000
  H   H680      1.0  0.98798  0.66341  0.94336  1.0000
  H   H681      1.0  0.97475  0.59574  0.95133  1.0000
  C   C423      1.0  0.87415  0.78514  0.58724  1.0000
  H   H682      1.0  0.85344  0.78504  0.58386  1.0000
  C   C424      1.0  0.98855  0.64385  0.95541  1.0000
  H   H683      1.0  0.87795  0.79279  0.69365  1.0000
  C   C425      1.0  0.93565  0.54546  0.69289  1.0000
  S   S169      1.0  0.90120  0.83656  0.47881  1.0000
  Fe  Fe84      1.0  0.63678  0.92107  0.34135  1.0000
  S   S170      1.0  0.66044  0.91693  0.28260  1.0000
  N   N43       1.0  0.67359  0.80055  0.11553  1.0000
  Fe  Fe85      1.0  0.59648  0.95114  0.29663  1.0000
  S   S171      1.0  0.61626  0.94888  0.23415  1.0000
  S   S172      1.0  0.56054  0.97294  0.30198  1.0000
  Fe  Fe86      1.0  0.62388  0.90903  0.25079  1.0000
  S   S173      1.0  0.61571  0.87888  0.20342  1.0000
  Fe  Fe87      1.0  0.65055  0.95734  0.27186  1.0000
  S   S174      1.0  0.67676  0.98785  0.25122  1.0000
  S   S175      1.0  0.60077  0.91034  0.31030  1.0000
  S   S176      1.0  0.63020  0.96220  0.33350  1.0000
  H   H684      1.0  0.85735  0.80638  0.49741  1.0000
  H   H685      1.0  0.63700  0.99970  0.12371  1.0000
  C   C426      1.0  0.87257  0.84318  0.50484  1.0000
  C   C427      1.0  0.64751  0.79676  0.10173  1.0000
  H   H686      1.0  0.75447  0.87762  0.40268  1.0000
  H   H687      1.0  0.81130  0.89727  0.49087  1.0000
  C   C428      1.0  0.66091  0.87978  0.08053  1.0000
  C   C429      1.0  0.63688  0.86968  0.08157  1.0000
  C   C430      1.0  0.62318  0.86936  0.11958  1.0000
  C   C431      1.0  0.63326  0.87961  0.15643  1.0000
  C   C432      1.0  0.65738  0.88958  0.15551  1.0000
  C   C433      1.0  0.67131  0.88934  0.11766  1.0000
  H   H688      1.0  0.60452  0.86159  0.12027  1.0000
  H   H689      1.0  0.66543  0.89694  0.18419  1.0000
  C   C434      1.0  0.67987  0.90625  0.46781  1.0000
  C   C435      1.0  0.66005  0.01620  0.24989  1.0000
  C   C436      1.0  0.63400  0.01580  0.24714  1.0000
  C   C437      1.0  0.70122  0.91579  0.48762  1.0000
  H   H690      1.0  0.62414  0.99839  0.24759  1.0000
  C   C438      1.0  0.67509  0.97390  0.08880  1.0000
  C   C439      1.0  0.79765  0.86082  0.43722  1.0000
  C   C440      1.0  0.67690  0.95435  0.15747  1.0000
  C   C441      1.0  0.67373  0.81645  0.15372  1.0000
  H   H691      1.0  0.69265  0.03964  0.25252  1.0000
  H   H692      1.0  0.56416  0.93173  0.24359  1.0000
  H   H693      1.0  0.66514  0.83504  0.14732  1.0000
  C   C442      1.0  0.76595  0.87676  0.48490  1.0000
  H   H694      1.0  0.78971  0.92039  0.47181  1.0000
  S   S177      1.0  0.74294  0.94569  0.49024  1.0000
  H   H695      1.0  0.66318  0.98331  0.06479  1.0000
  H   H696      1.0  0.64769  0.93308  0.09681  1.0000
  C   C443      1.0  0.85454  0.82471  0.51099  1.0000
  H   H697      1.0  0.80911  0.85384  0.46410  1.0000
  H   H698      1.0  0.60044  0.03718  0.23947  1.0000
  H   H699      1.0  0.68628  0.93772  0.14360  1.0000
  C   C444      1.0  0.67289  0.91486  0.42765  1.0000
  H   H700      1.0  0.81353  0.90818  0.43723  1.0000
  C   C445      1.0  0.70884  0.94228  0.42683  1.0000
  N   N44       1.0  0.78295  0.88316  0.44950  1.0000
  H   H701      1.0  0.78018  0.89689  0.38568  1.0000
  H   H702      1.0  0.69312  0.81973  0.16496  1.0000
  N   N45       1.0  0.66032  0.96680  0.12662  1.0000
  H   H703      1.0  0.66859  0.89236  0.48374  1.0000
  H   H704      1.0  0.68216  0.93955  0.37615  1.0000
  H   H705      1.0  0.68374  0.95720  0.07343  1.0000
  H   H706      1.0  0.75448  0.89318  0.49466  1.0000
  S   S178      1.0  0.64604  0.90287  0.40350  1.0000
  H   H707      1.0  0.69020  0.89647  0.11703  1.0000
  C   C446      1.0  0.80015  0.90311  0.46291  1.0000
  S   S179      1.0  0.67827  0.88082  0.03328  1.0000
  C   C447      1.0  0.76804  0.89200  0.41316  1.0000
  H   H708      1.0  0.69048  0.98688  0.09720  1.0000
  H   H709      1.0  0.69181  0.96713  0.16872  1.0000
  H   H710      1.0  0.72002  0.95623  0.41084  1.0000
  C   C448      1.0  0.64014  0.94958  0.11411  1.0000
  H   H711      1.0  0.62860  0.86256  0.05295  1.0000
  C   C449      1.0  0.68744  0.93286  0.40714  1.0000
  C   C450      1.0  0.62044  0.03799  0.24318  1.0000
  C   C451      1.0  0.64926  0.98941  0.14610  1.0000
  H   H712      1.0  0.57635  0.02598  0.31338  1.0000
  H   H713      1.0  0.62965  0.94239  0.14213  1.0000
  Fe  Fe88      1.0  0.91324  0.79646  0.46716  1.0000
  H   H714      1.0  0.81076  0.86495  0.41062  1.0000
  H   H715      1.0  0.63774  0.98459  0.17431  1.0000
  H   H716      1.0  0.66633  0.94811  0.18603  1.0000
  H   H717      1.0  0.55085  0.02989  0.25024  1.0000
  H   H718      1.0  0.63818  0.81483  0.09413  1.0000
  H   H719      1.0  0.66398  0.00250  0.15715  1.0000
  H   H720      1.0  0.62640  0.95886  0.09294  1.0000
  C   C452      1.0  0.68790  0.81291  0.08134  1.0000
  H   H721      1.0  0.75272  0.86171  0.47611  1.0000
  H   H722      1.0  0.67987  0.83149  0.07349  1.0000
  H   H723      1.0  0.66289  0.80789  0.18015  1.0000
  C   C453      1.0  0.71569  0.93386  0.46712  1.0000
  H   H724      1.0  0.75696  0.90901  0.42154  1.0000
  H   H725      1.0  0.78528  0.84531  0.42714  1.0000
  C   C454      1.0  0.67247  0.03919  0.25027  1.0000
  H   H726      1.0  0.70781  0.81569  0.09009  1.0000
  H   H727      1.0  0.88200  0.88163  0.51635  1.0000
  H   H728      1.0  0.68767  0.80170  0.05184  1.0000
  H   H729      1.0  0.77651  0.87031  0.51314  1.0000
  H   H730      1.0  0.70634  0.90927  0.51876  1.0000
  Fe  Fe89      1.0  0.68402  0.83212  0.89834  1.0000
  Fe  Fe90      1.0  0.66811  0.85172  0.98489  1.0000
  Fe  Fe91      1.0  0.62971  0.82721  0.92831  1.0000
  S   S180      1.0  0.70952  0.83317  0.84051  1.0000
  H   H731      1.0  0.61195  0.85583  0.74321  1.0000
  S   S181      1.0  0.65517  0.86025  0.91891  1.0000
  H   H732      1.0  0.67423  0.82636  0.76255  1.0000
  H   H733      1.0  0.60728  0.82337  0.73128  1.0000
  H   H734      1.0  0.65833  0.85027  0.73347  1.0000
  H   H735      1.0  0.71796  0.98987  0.78772  1.0000
  C   C455      1.0  0.56277  0.82511  0.92248  1.0000
  C   C456      1.0  0.65609  0.83128  0.74734  1.0000
  S   S182      1.0  0.59189  0.82827  0.89573  1.0000
  H   H736      1.0  0.87803  0.83448  0.59929  1.0000
  H   H737      1.0  0.91614  0.80812  0.65706  1.0000
  S   S183      1.0  0.69938  0.82643  0.96365  1.0000
  C   C457      1.0  0.61141  0.83675  0.75716  1.0000
  N   N46       1.0  0.63521  0.83048  0.77829  1.0000
  C   C458      1.0  0.71078  0.85772  0.80313  1.0000
  H   H738      1.0  0.72650  0.00156  0.71316  1.0000
  H   H739      1.0  0.91716  0.80968  0.60022  1.0000
  C   C459      1.0  0.69614  0.89739  0.77497  1.0000
  S   S184      1.0  0.64043  0.82093  0.99621  1.0000
  H   H740      1.0  0.76930  0.03407  0.53862  1.0000
  C   C460      1.0  0.63357  0.80520  0.79685  1.0000
  C   C461      1.0  0.56129  0.82097  0.96613  1.0000
  N   N47       1.0  0.88191  0.79783  0.62642  1.0000
  H   H741      1.0  0.68428  0.88173  0.83491  1.0000
  H   H742      1.0  0.73793  0.83848  0.76413  1.0000
  C   C462      1.0  0.84666  0.87228  0.54575  1.0000
  C   C463      1.0  0.69596  0.87920  0.80716  1.0000
  C   C464      1.0  0.72636  0.85502  0.76743  1.0000
  Fe  Fe92      1.0  0.75312  0.93243  0.55554  1.0000
  S   S185      1.0  0.79456  0.93084  0.56633  1.0000
  Fe  Fe93      1.0  0.74083  0.91786  0.64760  1.0000
  S   S186      1.0  0.78144  0.91458  0.66406  1.0000
  S   S187      1.0  0.71076  0.91740  0.69884  1.0000
  Fe  Fe94      1.0  0.78565  0.95047  0.62743  1.0000
  S   S188      1.0  0.80381  0.98474  0.65544  1.0000
  Fe  Fe95      1.0  0.78591  0.89535  0.60104  1.0000
  C   C465      1.0  0.72690  0.87342  0.73565  1.0000
  S   S189      1.0  0.74492  0.95457  0.61385  1.0000
  S   S190      1.0  0.74461  0.89589  0.58721  1.0000
  C   C466      1.0  0.71156  0.89453  0.73909  1.0000
  C   C467      1.0  0.76550  0.95522  0.74627  1.0000
  H   H743      1.0  0.72632  0.96918  0.69881  1.0000
  C   C468      1.0  0.83323  0.82967  0.53598  1.0000
  H   H744      1.0  0.75282  0.98830  0.68578  1.0000
  C   C469      1.0  0.79626  0.01289  0.62903  1.0000
  H   H745      1.0  0.75409  0.93914  0.73555  1.0000
  C   C470      1.0  0.78404  0.01241  0.59011  1.0000
  S   S191      1.0  0.80419  0.85763  0.58951  1.0000
  H   H746      1.0  0.77931  0.99475  0.57578  1.0000
  H   H747      1.0  0.62411  0.84936  0.83546  1.0000
  H   H748      1.0  0.65703  0.84389  0.82991  1.0000
  C   C471      1.0  0.77844  0.03480  0.56897  1.0000
  H   H749      1.0  0.85058  0.82333  0.62604  1.0000
  N   N48       1.0  0.75000  0.97795  0.75134  1.0000
  H   H750      1.0  0.77451  0.94965  0.77645  1.0000
  H   H751      1.0  0.87694  0.83371  0.65608  1.0000
  H   H752      1.0  0.73821  0.96802  0.81430  1.0000
  H   H753      1.0  0.78067  0.95806  0.72249  1.0000
  H   H754      1.0  0.78109  0.00258  0.74148  1.0000
  C   C472      1.0  0.82940  0.85334  0.55396  1.0000
  S   S192      1.0  0.65798  0.79949  0.90375  1.0000
  H   H755      1.0  0.75500  0.01631  0.76920  1.0000
  H   H756      1.0  0.68429  0.91374  0.77790  1.0000
  C   C473      1.0  0.73838  0.98454  0.71052  1.0000
  C   C474      1.0  0.76600  0.99877  0.76524  1.0000
  C   C475      1.0  0.90953  0.79897  0.62765  1.0000
  H   H757      1.0  0.81203  0.03653  0.67701  1.0000
  C   C476      1.0  0.73016  0.97319  0.78311  1.0000
  H   H758      1.0  0.73885  0.87102  0.70814  1.0000
  H   H759      1.0  0.71795  0.95746  0.77302  1.0000
  H   H760      1.0  0.61878  0.80429  0.82193  1.0000
  H   H761      1.0  0.77524  0.99447  0.79583  1.0000
  C   C477      1.0  0.80247  0.03602  0.64699  1.0000
  C   C478      1.0  0.87143  0.82344  0.62708  1.0000
  H   H762      1.0  0.57824  0.81966  0.98447  1.0000
  H   H763      1.0  0.84396  0.89056  0.55968  1.0000
  H   H764      1.0  0.59541  0.83620  0.78004  1.0000
  H   H765      1.0  0.81982  0.81499  0.54192  1.0000
  C   C479      1.0  0.63981  0.84877  0.81219  1.0000
  H   H766      1.0  0.64215  0.86796  0.79936  1.0000
  H   H767      1.0  0.65321  0.81792  0.72094  1.0000
  H   H768      1.0  0.65157  0.79958  0.81172  1.0000
  Fe  Fe96      1.0  0.67114  0.79601  0.97080  1.0000
  C   C480      1.0  0.86822  0.86717  0.52132  1.0000
