data_image0
_chemical_formula_structural       C2SH4CH2CH2NH2CH2CH2CHC2HNFeCHSHFeCS2HCFeHCH2CH4C2HSHCH4SC2FeH2CH2SCSNH3FeHFeS2H3S2CHCHCHCHCHNH2CSFeC3HCH3C3H2CHFeCNS2FeSFeSFeH3SH2CHFeSCNCHNC7H8CSH4CH2C6H3SH3CHCH2SH7C2FeHFeSC2HSHFeSC2HSHSFeSFeH3FeHCHC6H4CH2NHC2HSH2CHSHSCH4SNCHCHCH3CS3FeSFeSCFeHC3H2C2H3C2H2CH10CSHCNHCH2CHCH2NCHCHC2HCHCHFeHSH2SHFeH5FeNC2H4SCH2C4SH3SH2NH5CH2C2H4CSFe2H2CS2FeS2FeS2Fe2S3FeCS2H2SHC2H2C3H2C7H4SC3H3CH2CHCNC3H4NHCH6CH3NC4FeH3CH5CH2SHC2H2NCH7C2HC2HCHCH2SHSCH3CH4SCHCH3S2HCHCHCHNC2NH2CHCSHFeH3C2SHS2HFeSCHFeS2FeH2FeH2S3HSHCHCHC2HFeCHCHSC7H4C2H2CFe2CFeSH2C2HN2SHS2CHCNC2HNH3CNC3H7NC4H2CH9FeCHCHSH2CHSH3SC3H3CH4CH5CH2FeHCHC2HCHSHCH4CFeHS2FeHCH2SHS2FeHCFeHC3H4CHC2S2FeHSHCH2CHCHC2HSH2SCSC2HCH3SC3FeNC4H10NCHCSCSC3H6SC2H3CH3CH3SCFeH2FeHSH2SFeSHCSHCH3CHC2H2SHCH2C3SCH4SCHC2H2C2HCHSC2H7FeS2CHC2HSHC3H2CHSCHFeHNH4FeNHCHCHCH2C2H3CHCH3SCHCH2CFeHSHSHSCH2CHC2H2CH2CHCHCHNHC3H4NHCH2CH2CHCSHFeCSH4CFeCHFeHNCHCHSHCH3NHFeHC2H3S2FeHC4H2SC2H5CSH4SHCH2C2H2CFeS2FeS2FeSFeS3H2NSHC6H4CHCHCSC2H5CHCH3C2HNH4CHCHCSC2H4C2H3C2H3CFeH2C3H2CHFeCSH2SFeS2FeHSFeCFeS3CH3FeH2CH4C6H8C2SHNC4H3SHC3H3NHCHCH5SHCFeHCH2FeSHFeS2FeS2FeSFeS3HC2H3C2H3CHCH2C6H4CHCHNC3H4CHNHC4H2CHSH5SHC2HCHCFeS2FeS2FeSFe2SFeS3C3H2CH2C3HSC7H4NHSC3H3CH2CH11CH2CHCH2SFeHSHCH3SCH3CH2C3H2C2NC2H2CH3C2SCH2CHFeHSH2SHCH6NC4H3SH2FeSH3CHS2C3SFeCHCHFeH2CSHCSHS2H2FeCH2CHSCHC3HCH3CHSCHCHCHCSH3CHNHCHNCH5SC4H4C2H4C2H2CHSFeSHCHCH5FeCHNHSCFeSNSCFeH2S3CH7SC3HCHCHCH2SFeCSC5Fe2H2SC3SNH5CHNC4H12NC4H13FeCH3CH2NH2C3HCH2SFeHCH3CFeHSHCHSC2FeSHFeS2FeSFeS3H5SCHC2H2C2H2CHC6H8C2HCHC2HSH3C2H2C2FeHSHC2NHS2H2SH11C2H2CNH2SCHCH2CHCFeH2SCH3CHSCHC2H5SCHC2HCS2FeSH2FeS2FeS2FeSFeS3CHCH2C3HNC2SH2NC7H4C2H2CH6CHFeHCHSNC4HCHCH2SH5C2H6SH3NHFe2HC2HFeH6CHC2H2CHCH2CNCHCH3CH2CHCHCFeSCHSFeSFeHSHC2HSHC2HCH2CH5CFeH5SHSHNCHC2SC4NH5CH3CH2CHCH3FeCFeSH2SFeCFeSHSC2HCSH4CH4C2HC2NH2CH2S2HCH2C3SH2FeSCHSFeSFeSCSCSHCSFeSFeH3C6H4CHCH3CHN2FeHFeH2CHC3NCHSFeH4CHS2CH2C2H2C3SHCH10NH2CH4NCHC2H2C2H2CSH2FeS2HSHFeSFeS2HFeSCHSFeHFeSHC7H5CSH5C2H3C2H2NCHFeC4H2CHSCHCH9C3NSCHNCH2CH4CHFeCHFeS2FeSCS2HCHCHCH4SNCH4NH3CHCH3CH3C4HCHCNFeHSFeS2NFeH2SC3H5CSHCHCHCHCH2SH2C2H2C2HC3H2SHCH4CH2CHC2HCH4
_chemical_formula_sum              "C720 S288 H1152 N72 Fe144"
_cell_length_a       57.4142
_cell_length_b       56.8288
_cell_length_c       62.6346
_cell_angle_alpha    90.6104
_cell_angle_beta     89.8138
_cell_angle_gamma    117.069

_space_group_name_H-M_alt    "P 1"
_space_group_IT_number       1

loop_
  _space_group_symop_operation_xyz
  'x, y, z'

loop_
  _atom_site_type_symbol
  _atom_site_label
  _atom_site_symmetry_multiplicity
  _atom_site_fract_x
  _atom_site_fract_y
  _atom_site_fract_z
  _atom_site_occupancy
  C   C1        1.0  0.47296  0.26403  0.21551  1.0000
  C   C2        1.0  0.48594  0.25519  0.03487  1.0000
  S   S1        1.0  0.47805  0.20736  0.01737  1.0000
  H   H1        1.0  0.49588  0.25048  0.04752  1.0000
  H   H2        1.0  0.48119  0.25956  0.23013  1.0000
  H   H3        1.0  0.46906  0.24783  0.20377  1.0000
  H   H4        1.0  0.45390  0.26333  0.22003  1.0000
  C   C3        1.0  0.47516  0.23734  0.01767  1.0000
  H   H5        1.0  0.50635  0.22208  0.25927  1.0000
  H   H6        1.0  0.50390  0.08084  0.01139  1.0000
  C   C4        1.0  0.48578  0.16643  0.47929  1.0000
  H   H7        1.0  0.47346  0.15697  0.46502  1.0000
  H   H8        1.0  0.44763  0.18085  0.47406  1.0000
  N   N1        1.0  0.48733  0.19267  0.48395  1.0000
  H   H9        1.0  0.46123  0.20917  0.49163  1.0000
  H   H10       1.0  0.45162  0.17691  0.50206  1.0000
  C   C5        1.0  0.46077  0.18975  0.48801  1.0000
  H   H11       1.0  0.50554  0.16784  0.47639  1.0000
  H   H12       1.0  0.47728  0.15279  0.49301  1.0000
  C   C6        1.0  0.49903  0.21030  0.46559  1.0000
  H   H13       1.0  0.48716  0.20222  0.45085  1.0000
  H   H14       1.0  0.50047  0.23027  0.46871  1.0000
  C   C7        1.0  0.50378  0.20420  0.50305  1.0000
  H   H15       1.0  0.50578  0.22418  0.50698  1.0000
  C   C8        1.0  0.42087  0.06185  0.58537  1.0000
  C   C9        1.0  0.43143  0.05604  0.56710  1.0000
  H   H16       1.0  0.49506  0.19162  0.51717  1.0000
  N   N2        1.0  0.48302  0.10567  0.64119  1.0000
  Fe  Fe1       1.0  0.47233  0.18727  0.55838  1.0000
  C   C10       1.0  0.49632  0.25924  0.53599  1.0000
  H   H17       1.0  0.39437  0.04504  0.61175  1.0000
  S   S2        1.0  0.46227  0.14693  0.54473  1.0000
  H   H18       1.0  0.51344  0.13971  0.62604  1.0000
  Fe  Fe2       1.0  0.46056  0.13290  0.57833  1.0000
  C   C11       1.0  0.47046  0.24217  0.53040  1.0000
  S   S3        1.0  0.42988  0.09498  0.59365  1.0000
  S   S4        1.0  0.45371  0.20975  0.54092  1.0000
  H   H19       1.0  0.44540  0.07196  0.55751  1.0000
  C   C12       1.0  0.50147  0.18174  0.67468  1.0000
  Fe  Fe3       1.0  0.50911  0.18274  0.59162  1.0000
  H   H20       1.0  0.48073  0.09796  0.60738  1.0000
  C   C13       1.0  0.40271  0.04080  0.59761  1.0000
  H   H21       1.0  0.49187  0.07853  0.62270  1.0000
  H   H22       1.0  0.43156  0.02529  0.54664  1.0000
  C   C14       1.0  0.47826  0.08753  0.62278  1.0000
  H   H23       1.0  0.49555  0.22675  0.68624  1.0000
  H   H24       1.0  0.44379  0.10133  0.63995  1.0000
  H   H25       1.0  0.46665  0.12993  0.65451  1.0000
  H   H26       1.0  0.45881  0.07454  0.66233  1.0000
  C   C15       1.0  0.46445  0.11704  0.64042  1.0000
  C   C16       1.0  0.50627  0.18559  0.65263  1.0000
  H   H27       1.0  0.49030  0.17716  0.64132  1.0000
  S   S5        1.0  0.46634  0.17215  0.59228  1.0000
  H   H28       1.0  0.48168  0.17016  0.68033  1.0000
  C   C17       1.0  0.47912  0.09086  0.66124  1.0000
  H   H29       1.0  0.46746  0.12915  0.62584  1.0000
  H   H30       1.0  0.48253  0.10397  0.67547  1.0000
  H   H31       1.0  0.49280  0.08197  0.66236  1.0000
  H   H32       1.0  0.51474  0.14054  0.65460  1.0000
  S   S6        1.0  0.50324  0.14302  0.57939  1.0000
  C   C18       1.0  0.42353  0.02952  0.56097  1.0000
  C   C19       1.0  0.51013  0.12719  0.64041  1.0000
  Fe  Fe4       1.0  0.50545  0.16004  0.54683  1.0000
  H   H33       1.0  0.47229  0.23569  0.69847  1.0000
  H   H34       1.0  0.49016  0.22329  0.71447  1.0000
  C   C20       1.0  0.49169  0.23610  0.70062  1.0000
  H   H35       1.0  0.45788  0.07119  0.62278  1.0000
  H   H36       1.0  0.50666  0.25277  0.54701  1.0000
  S   S7        1.0  0.51494  0.18742  0.71695  1.0000
  C   C21       1.0  0.45733  0.25107  0.51613  1.0000
  S   S8        1.0  0.51558  0.20083  0.55892  1.0000
  N   N3        1.0  0.51266  0.26331  0.70395  1.0000
  H   H37       1.0  0.50666  0.26400  0.73783  1.0000
  H   H38       1.0  0.43731  0.23799  0.51169  1.0000
  H   H39       1.0  0.50521  0.09208  0.96458  1.0000
  Fe  Fe5       1.0  0.48140  0.18105  0.99057  1.0000
  H   H40       1.0  0.39422  0.02667  0.01065  1.0000
  Fe  Fe6       1.0  0.46010  0.12963  0.96336  1.0000
  S   S9        1.0  0.49960  0.14091  0.94880  1.0000
  S   S10       1.0  0.42975  0.08923  0.95072  1.0000
  H   H41       1.0  0.48118  0.03258  0.95502  1.0000
  H   H42       1.0  0.48377  0.24743  0.95855  1.0000
  H   H43       1.0  0.47134  0.07057  0.95882  1.0000
  S   S11       1.0  0.47509  0.13929  0.99704  1.0000
  S   S12       1.0  0.46281  0.17039  0.95782  1.0000
  C   C22       1.0  0.41556  0.05755  0.96293  1.0000
  H   H44       1.0  0.48034  0.09017  0.98279  1.0000
  C   C23       1.0  0.48619  0.07824  0.97184  1.0000
  H   H45       1.0  0.48966  0.15690  0.85582  1.0000
  C   C24       1.0  0.41118  0.05440  0.98495  1.0000
  H   H46       1.0  0.41034  0.03696  0.93285  1.0000
  C   C25       1.0  0.40731  0.03479  0.94993  1.0000
  H   H47       1.0  0.41709  0.07167  0.99514  1.0000
  C   C26       1.0  0.39808  0.02881  0.99369  1.0000
  H   H48       1.0  0.49377  0.16476  0.89504  1.0000
  N   N4        1.0  0.48829  0.05666  0.98326  1.0000
  H   H49       1.0  0.45255  0.22954  0.98881  1.0000
  H   H50       1.0  0.44735  0.03002  0.98040  1.0000
  C   C27       1.0  0.50495  0.18074  0.88426  1.0000
  S   S13       1.0  0.51427  0.18978  0.82005  1.0000
  Fe  Fe7       1.0  0.50369  0.18182  0.94593  1.0000
  C   C28       1.0  0.46189  0.24351  0.00168  1.0000
  C   C29       1.0  0.49591  0.04135  0.96804  1.0000
  C   C30       1.0  0.50262  0.17636  0.86203  1.0000
  H   H51       1.0  0.46355  0.02268  0.00183  1.0000
  C   C31       1.0  0.46276  0.03910  0.99287  1.0000
  H   H52       1.0  0.45620  0.05017  0.00414  1.0000
  H   H53       1.0  0.49772  0.02491  0.97613  1.0000
  H   H54       1.0  0.50088  0.22987  0.94913  1.0000
  C   C32       1.0  0.46004  0.26746  0.00266  1.0000
  C   C33       1.0  0.50829  0.06794  0.00026  1.0000
  C   C34       1.0  0.50073  0.24356  0.96181  1.0000
  H   H55       1.0  0.51509  0.05413  0.96046  1.0000
  H   H56       1.0  0.49709  0.23276  0.97712  1.0000
  C   C35       1.0  0.51697  0.19688  0.84779  1.0000
  H   H57       1.0  0.50972  0.05227  0.00983  1.0000
  Fe  Fe8       1.0  0.51456  0.15214  0.98224  1.0000
  C   C36       1.0  0.49551  0.31088  0.22287  1.0000
  N   N5        1.0  0.49112  0.29007  0.20677  1.0000
  S   S14       1.0  0.45961  0.33957  0.07774  1.0000
  S   S15       1.0  0.51502  0.34822  0.12121  1.0000
  Fe  Fe9       1.0  0.49869  0.36234  0.09380  1.0000
  S   S16       1.0  0.48102  0.38516  0.04037  1.0000
  Fe  Fe10      1.0  0.46046  0.37928  0.07193  1.0000
  S   S17       1.0  0.42111  0.38022  0.07500  1.0000
  Fe  Fe11      1.0  0.48194  0.34649  0.04701  1.0000
  H   H58       1.0  0.21070  0.46116  0.02431  1.0000
  H   H59       1.0  0.34606  0.48875  0.12517  1.0000
  H   H60       1.0  0.34145  0.45477  0.16407  1.0000
  S   S18       1.0  0.31952  0.48901  0.07071  1.0000
  H   H61       1.0  0.47713  0.31196  0.22684  1.0000
  H   H62       1.0  0.36558  0.42584  0.13692  1.0000
  C   C37       1.0  0.36083  0.46616  0.15635  1.0000
  H   H63       1.0  0.35031  0.42698  0.11231  1.0000
  Fe  Fe12      1.0  0.35707  0.48632  0.06398  1.0000
  S   S19       1.0  0.35498  0.44531  0.06745  1.0000
  C   C38       1.0  0.40758  0.32697  0.03848  1.0000
  N   N6        1.0  0.40267  0.33648  0.01795  1.0000
  C   C39       1.0  0.51696  0.38606  0.17741  1.0000
  H   H64       1.0  0.39140  0.36399  0.03299  1.0000
  N   N7        1.0  0.35964  0.46034  0.13319  1.0000
  C   C40       1.0  0.38578  0.47592  0.12368  1.0000
  C   C41       1.0  0.40512  0.40070  0.07263  1.0000
  C   C42       1.0  0.37788  0.38823  0.07491  1.0000
  C   C43       1.0  0.36341  0.40241  0.07308  1.0000
  C   C44       1.0  0.37570  0.42958  0.06910  1.0000
  C   C45       1.0  0.40313  0.44251  0.06693  1.0000
  C   C46       1.0  0.41783  0.42803  0.06856  1.0000
  H   H65       1.0  0.36775  0.36726  0.07809  1.0000
  H   H66       1.0  0.34236  0.39211  0.07477  1.0000
  H   H67       1.0  0.41296  0.46350  0.06381  1.0000
  H   H68       1.0  0.43886  0.43801  0.06676  1.0000
  H   H69       1.0  0.50984  0.33073  0.21720  1.0000
  H   H70       1.0  0.39363  0.32651  0.05106  1.0000
  H   H71       1.0  0.36684  0.48751  0.15946  1.0000
  H   H72       1.0  0.36103  0.31794  0.02237  1.0000
  C   C47       1.0  0.40543  0.36350  0.02088  1.0000
  S   S20       1.0  0.36609  0.51230  0.03493  1.0000
  H   H73       1.0  0.27804  0.50847  0.06258  1.0000
  H   H74       1.0  0.51372  0.27455  0.18957  1.0000
  H   H75       1.0  0.40061  0.47078  0.13075  1.0000
  H   H76       1.0  0.49266  0.31503  0.18068  1.0000
  C   C48       1.0  0.51630  0.29018  0.20151  1.0000
  H   H77       1.0  0.49963  0.38286  0.14618  1.0000
  H   H78       1.0  0.32060  0.45610  0.12983  1.0000
  C   C49       1.0  0.25166  0.48934  0.02308  1.0000
  C   C50       1.0  0.27057  0.50956  0.07878  1.0000
  C   C51       1.0  0.51174  0.37728  0.15602  1.0000
  C   C52       1.0  0.22480  0.48038  0.01874  1.0000
  C   C53       1.0  0.35146  0.43188  0.12969  1.0000
  C   C54       1.0  0.48405  0.27911  0.03589  1.0000
  H   H79       1.0  0.40630  0.30687  0.03692  1.0000
  H   H80       1.0  0.38552  0.47222  0.10614  1.0000
  H   H81       1.0  0.42747  0.34028  0.04447  1.0000
  S   S21       1.0  0.49749  0.40112  0.09096  1.0000
  H   H82       1.0  0.33184  0.41944  0.13664  1.0000
  H   H83       1.0  0.42536  0.37744  0.02672  1.0000
  H   H84       1.0  0.33905  0.46319  0.10553  1.0000
  C   C55       1.0  0.34051  0.46740  0.12300  1.0000
  H   H85       1.0  0.25804  0.47695  0.03178  1.0000
  C   C56       1.0  0.47110  0.28542  0.01976  1.0000
  H   H86       1.0  0.37516  0.46122  0.16459  1.0000
  H   H87       1.0  0.25116  0.49205  0.08058  1.0000
  S   S22       1.0  0.46839  0.31547  0.02008  1.0000
  H   H88       1.0  0.49253  0.29259  0.04923  1.0000
  H   H89       1.0  0.39277  0.49751  0.12619  1.0000
  H   H90       1.0  0.28411  0.50767  0.09052  1.0000
  H   H91       1.0  0.50885  0.39847  0.18393  1.0000
  H   H92       1.0  0.50333  0.30716  0.23798  1.0000
  H   H93       1.0  0.47686  0.28035  0.17449  1.0000
  H   H94       1.0  0.46048  0.29471  0.19059  1.0000
  C   C57       1.0  0.27017  0.51400  0.01574  1.0000
  C   C58       1.0  0.47975  0.29519  0.18728  1.0000
  Fe  Fe13      1.0  0.33053  0.51791  0.04376  1.0000
  H   H95       1.0  0.11117  0.38137  0.50672  1.0000
  Fe  Fe14      1.0  0.49875  0.36739  0.43461  1.0000
  S   S23       1.0  0.46877  0.34372  0.45947  1.0000
  C   C59       1.0  0.43417  0.36694  0.42005  1.0000
  C   C60       1.0  0.50617  0.34952  0.35938  1.0000
  H   H96       1.0  0.46684  0.41766  0.41094  1.0000
  S   S24       1.0  0.50364  0.39001  0.49367  1.0000
  H   H97       1.0  0.14097  0.42584  0.47458  1.0000
  Fe  Fe15      1.0  0.47170  0.38304  0.47010  1.0000
  S   S25       1.0  0.43538  0.38634  0.48112  1.0000
  C   C61       1.0  0.25828  0.49731  0.48979  1.0000
  C   C62       1.0  0.25865  0.47496  0.49858  1.0000
  H   H98       1.0  0.11249  0.44439  0.48969  1.0000
  S   S26       1.0  0.33566  0.48360  0.44035  1.0000
  H   H99       1.0  0.43831  0.38043  0.43409  1.0000
  S   S27       1.0  0.35548  0.48546  0.48985  1.0000
  Fe  Fe16      1.0  0.37164  0.48576  0.45700  1.0000
  S   S28       1.0  0.39645  0.46676  0.44366  1.0000
  Fe  Fe17      1.0  0.32122  0.48721  0.47355  1.0000
  H   H100      1.0  0.44849  0.35880  0.42035  1.0000
  H   H101      1.0  0.41942  0.40479  0.41360  1.0000
  H   H102      1.0  0.41440  0.35015  0.42243  1.0000
  Fe  Fe18      1.0  0.50311  0.35251  0.48099  1.0000
  H   H103      1.0  0.44533  0.35435  0.38119  1.0000
  C   C63       1.0  0.41617  0.39086  0.39998  1.0000
  H   H104      1.0  0.41693  0.40162  0.38505  1.0000
  C   C64       1.0  0.42597  0.41027  0.47170  1.0000
  C   C65       1.0  0.43950  0.42763  0.45525  1.0000
  C   C66       1.0  0.43043  0.44507  0.44719  1.0000
  C   C67       1.0  0.40817  0.44598  0.45582  1.0000
  C   C68       1.0  0.39510  0.42919  0.47273  1.0000
  C   C69       1.0  0.40383  0.41129  0.48047  1.0000
  H   H105      1.0  0.45685  0.42753  0.44864  1.0000
  H   H106      1.0  0.44077  0.45806  0.43419  1.0000
  H   H107      1.0  0.37783  0.42947  0.47943  1.0000
  H   H108      1.0  0.45954  0.28325  0.49657  1.0000
  C   C70       1.0  0.46227  0.40312  0.39760  1.0000
  H   H109      1.0  0.32866  0.50339  0.35139  1.0000
  H   H110      1.0  0.43180  0.37189  0.36616  1.0000
  N   N8        1.0  0.43581  0.38078  0.39983  1.0000
  H   H111      1.0  0.41101  0.34489  0.38293  1.0000
  C   C71       1.0  0.43069  0.36216  0.38172  1.0000
  C   C72       1.0  0.46988  0.27674  0.50754  1.0000
  H   H112      1.0  0.39319  0.39800  0.49321  1.0000
  S   S29       1.0  0.28188  0.46388  0.49053  1.0000
  H   H113      1.0  0.46431  0.41386  0.38241  1.0000
  H   H114      1.0  0.39596  0.37452  0.40163  1.0000
  C   C73       1.0  0.23906  0.50493  0.49619  1.0000
  H   H115      1.0  0.47759  0.39619  0.39757  1.0000
  S   S30       1.0  0.49927  0.40595  0.44402  1.0000
  H   H116      1.0  0.16682  0.44628  0.49251  1.0000
  S   S31       1.0  0.49001  0.35150  0.40048  1.0000
  C   C74       1.0  0.14898  0.42684  0.49090  1.0000
  H   H117      1.0  0.15547  0.41118  0.49206  1.0000
  H   H118      1.0  0.44493  0.34728  0.50565  1.0000
  H   H119      1.0  0.27232  0.50830  0.47760  1.0000
  H   H120      1.0  0.48703  0.33293  0.35725  1.0000
  S   S32       1.0  0.51162  0.32754  0.50529  1.0000
  N   N9        1.0  0.12948  0.42385  0.50751  1.0000
  C   C75       1.0  0.51316  0.36238  0.37937  1.0000
  H   H121      1.0  0.13900  0.46503  0.50692  1.0000
  C   C76       1.0  0.12173  0.44521  0.50544  1.0000
  H   H122      1.0  0.46254  0.32811  0.50676  1.0000
  C   C77       1.0  0.10612  0.39799  0.50507  1.0000
  H   H123      1.0  0.33824  0.51075  0.39026  1.0000
  H   H124      1.0  0.09671  0.39601  0.48920  1.0000
  H   H125      1.0  0.42769  0.31223  0.50970  1.0000
  C   C78       1.0  0.16275  0.50778  0.65975  1.0000
  S   S33       1.0  0.13111  0.49564  0.54186  1.0000
  S   S34       1.0  0.15539  0.46596  0.57298  1.0000
  S   S35       1.0  0.12500  0.49755  0.59443  1.0000
  Fe  Fe19      1.0  0.17045  0.49675  0.54743  1.0000
  S   S36       1.0  0.19274  0.50827  0.62464  1.0000
  Fe  Fe20      1.0  0.11638  0.46654  0.56871  1.0000
  S   S37       1.0  0.08058  0.42665  0.56254  1.0000
  C   C79       1.0  0.03082  0.42532  0.56832  1.0000
  Fe  Fe21      1.0  0.16506  0.49960  0.59637  1.0000
  H   H126      1.0  0.20710  0.45780  0.53320  1.0000
  C   C80       1.0  0.32971  0.49557  0.53997  1.0000
  C   C81       1.0  0.23995  0.46079  0.51423  1.0000
  C   C82       1.0  0.49558  0.29403  0.51355  1.0000
  H   H127      1.0  0.49579  0.28067  0.68252  1.0000
  H   H128      1.0  0.43276  0.29310  0.54328  1.0000
  C   C83       1.0  0.03214  0.38506  0.55754  1.0000
  C   C84       1.0  0.04558  0.41192  0.56300  1.0000
  H   H129      1.0  0.47687  0.36282  0.55913  1.0000
  H   H130      1.0  0.04306  0.37435  0.55347  1.0000
  H   H131      1.0  0.46775  0.30998  0.54176  1.0000
  C   C85       1.0  0.51439  0.27949  0.68513  1.0000
  C   C86       1.0  0.14113  0.42553  0.52880  1.0000
  H   H132      1.0  0.42846  0.34173  0.56324  1.0000
  H   H133      1.0  0.33117  0.48400  0.55366  1.0000
  C   C87       1.0  0.50867  0.28506  0.52776  1.0000
  H   H134      1.0  0.47326  0.37674  0.53446  1.0000
  H   H135      1.0  0.40783  0.31990  0.54269  1.0000
  H   H136      1.0  0.48747  0.27494  0.72194  1.0000
  H   H137      1.0  0.09117  0.39544  0.51750  1.0000
  H   H138      1.0  0.15871  0.44490  0.53117  1.0000
  H   H139      1.0  0.29330  0.48732  0.57017  1.0000
  H   H140      1.0  0.04084  0.44608  0.57255  1.0000
  H   H141      1.0  0.10741  0.44385  0.51805  1.0000
  H   H142      1.0  0.14738  0.40983  0.53098  1.0000
  H   H143      1.0  0.31718  0.48121  0.52758  1.0000
  C   C88       1.0  0.50680  0.27500  0.72317  1.0000
  S   S38       1.0  0.19520  0.49999  0.51772  1.0000
  H   H144      1.0  0.49089  0.35746  0.53504  1.0000
  C   C89       1.0  0.45027  0.31200  0.54724  1.0000
  N   N10       1.0  0.44907  0.33483  0.53713  1.0000
  H   H145      1.0  0.14571  0.49665  0.64990  1.0000
  C   C90       1.0  0.47357  0.35904  0.54166  1.0000
  H   H146      1.0  0.45165  0.31416  0.56493  1.0000
  H   H147      1.0  0.42505  0.35483  0.53807  1.0000
  C   C91       1.0  0.42660  0.33794  0.54571  1.0000
  H   H148      1.0  0.12692  0.42334  0.54174  1.0000
  C   C92       1.0  0.22128  0.46895  0.52117  1.0000
  H   H149      1.0  0.14031  0.50770  0.68751  1.0000
  H   H150      1.0  0.27929  0.48363  0.54405  1.0000
  N   N11       1.0  0.31902  0.51376  0.54661  1.0000
  C   C93       1.0  0.22049  0.49091  0.51194  1.0000
  H   H151      1.0  0.23996  0.44339  0.52108  1.0000
  C   C94       1.0  0.15974  0.51404  0.68108  1.0000
  H   H152      1.0  0.34966  0.50655  0.53309  1.0000
  C   C95       1.0  0.29268  0.49836  0.55580  1.0000
  C   C96       1.0  0.44589  0.33040  0.51380  1.0000
  H   H153      1.0  0.28366  0.51132  0.56055  1.0000
  C   C97       1.0  0.18777  0.51544  0.65142  1.0000
  H   H154      1.0  0.30525  0.51468  0.51494  1.0000
  C   C98       1.0  0.20934  0.48571  0.94307  1.0000
  H   H155      1.0  0.09215  0.50123  0.87851  1.0000
  Fe  Fe22      1.0  0.10799  0.48729  0.95800  1.0000
  H   H156      1.0  0.20763  0.49082  0.96001  1.0000
  S   S39       1.0  0.06527  0.46404  0.94669  1.0000
  H   H157      1.0  0.12676  0.46643  0.90252  1.0000
  H   H158      1.0  0.37318  0.29805  0.00830  1.0000
  S   S40       1.0  0.13985  0.47569  0.95041  1.0000
  H   H159      1.0  0.40199  0.37148  0.00574  1.0000
  Fe  Fe23      1.0  0.15988  0.51383  0.93251  1.0000
  H   H160      1.0  0.51446  0.28523  0.93635  1.0000
  H   H161      1.0  0.05599  0.44606  0.89609  1.0000
  H   H162      1.0  0.10177  0.47605  0.85050  1.0000
  H   H163      1.0  0.25584  0.50891  0.90437  1.0000
  H   H164      1.0  0.05820  0.45605  0.86870  1.0000
  Fe  Fe24      1.0  0.16149  0.49981  0.97927  1.0000
  N   N12       1.0  0.09511  0.46530  0.88362  1.0000
  C   C99       1.0  0.03309  0.43075  0.97860  1.0000
  C   C100      1.0  0.03489  0.44136  0.95823  1.0000
  H   H165      1.0  0.42058  0.31678  0.99964  1.0000
  H   H166      1.0  0.06278  0.42777  0.87554  1.0000
  H   H167      1.0  0.05060  0.43653  0.98806  1.0000
  H   H168      1.0  0.25284  0.47903  0.94531  1.0000
  S   S41       1.0  0.17750  0.51155  0.90044  1.0000
  C   C101      1.0  0.10543  0.45395  0.89999  1.0000
  H   H169      1.0  0.20521  0.46460  0.94257  1.0000
  H   H170      1.0  0.10240  0.43380  0.89536  1.0000
  C   C102      1.0  0.09934  0.49186  0.89059  1.0000
  C   C103      1.0  0.06677  0.44803  0.88080  1.0000
  C   C104      1.0  0.10896  0.46744  0.86323  1.0000
  C   C105      1.0  0.23639  0.49622  0.91154  1.0000
  S   S42       1.0  0.12775  0.50840  0.98858  1.0000
  H   H171      1.0  0.10635  0.44780  0.85746  1.0000
  H   H172      1.0  0.13041  0.48049  0.86500  1.0000
  H   H173      1.0  0.09560  0.45231  0.91566  1.0000
  S   S43       1.0  0.18199  0.48332  0.00162  1.0000
  H   H174      1.0  0.19358  0.48739  0.93397  1.0000
  H   H175      1.0  0.08890  0.49096  0.90583  1.0000
  N   N13       1.0  0.23541  0.50315  0.93424  1.0000
  H   H176      1.0  0.22148  0.49887  0.90189  1.0000
  H   H177      1.0  0.41878  0.34379  0.98620  1.0000
  H   H178      1.0  0.23251  0.47526  0.90961  1.0000
  H   H179      1.0  0.37148  0.32519  0.99510  1.0000
  H   H180      1.0  0.50731  0.29119  0.97510  1.0000
  C   C106      1.0  0.25567  0.49973  0.94642  1.0000
  H   H181      1.0  0.44968  0.27191  0.99022  1.0000
  H   H182      1.0  0.44226  0.35001  0.00712  1.0000
  C   C107      1.0  0.42182  0.33680  0.00196  1.0000
  C   C108      1.0  0.21605  0.49583  0.00699  1.0000
  H   H183      1.0  0.20041  0.51557  0.85903  1.0000
  H   H184      1.0  0.27568  0.51295  0.94050  1.0000
  H   H185      1.0  0.25512  0.50432  0.96368  1.0000
  H   H186      1.0  0.12051  0.50526  0.89321  1.0000
  C   C109      1.0  0.37588  0.31861  0.01058  1.0000
  S   S44       1.0  0.39249  0.61851  0.24393  1.0000
  Fe  Fe25      1.0  0.34429  0.52384  0.09164  1.0000
  Fe  Fe26      1.0  0.37366  0.57428  0.24202  1.0000
  H   H187      1.0  0.08764  0.62221  0.10125  1.0000
  H   H188      1.0  0.08264  0.58911  0.10603  1.0000
  C   C110      1.0  0.43905  0.59264  0.02969  1.0000
  S   S45       1.0  0.17623  0.70420  0.23628  1.0000
  S   S46       1.0  0.32569  0.52972  0.12202  1.0000
  Fe  Fe27      1.0  0.17908  0.70978  0.10972  1.0000
  S   S47       1.0  0.15827  0.73080  0.09441  1.0000
  S   S48       1.0  0.20709  0.72207  0.13797  1.0000
  Fe  Fe28      1.0  0.16147  0.66737  0.07463  1.0000
  S   S49       1.0  0.13989  0.68511  0.05647  1.0000
  S   S50       1.0  0.16173  0.62835  0.06831  1.0000
  Fe  Fe29      1.0  0.17522  0.72447  0.06342  1.0000
  Fe  Fe30      1.0  0.12473  0.68976  0.08858  1.0000
  S   S51       1.0  0.08195  0.67247  0.09944  1.0000
  S   S52       1.0  0.19763  0.70570  0.07909  1.0000
  S   S53       1.0  0.14486  0.66993  0.10633  1.0000
  Fe  Fe31      1.0  0.38787  0.54534  0.05839  1.0000
  C   C111      1.0  0.50288  0.69114  0.02404  1.0000
  S   S54       1.0  0.35358  0.55295  0.06518  1.0000
  S   S55       1.0  0.24190  0.69845  0.25334  1.0000
  H   H189      1.0  0.25988  0.55482  0.10736  1.0000
  H   H190      1.0  0.33260  0.55327  0.19830  1.0000
  S   S56       1.0  0.19297  0.75234  0.03500  1.0000
  H   H191      1.0  0.47959  0.61347  0.03896  1.0000
  C   C112      1.0  0.15755  0.61570  0.04213  1.0000
  C   C113      1.0  0.08989  0.62021  0.05867  1.0000
  H   H192      1.0  0.04563  0.60377  0.08168  1.0000
  H   H193      1.0  0.08720  0.63715  0.06507  1.0000
  C   C114      1.0  0.36667  0.53886  0.14967  1.0000
  C   C115      1.0  0.04823  0.65512  0.06425  1.0000
  C   C116      1.0  0.05105  0.65537  0.08646  1.0000
  H   H194      1.0  0.24197  0.51933  0.10811  1.0000
  H   H195      1.0  0.06521  0.66595  0.05438  1.0000
  C   C117      1.0  0.02858  0.64150  0.09900  1.0000
  C   C118      1.0  0.18487  0.70915  0.20896  1.0000
  C   C119      1.0  0.16527  0.70290  0.19342  1.0000
  C   C120      1.0  0.17168  0.70654  0.17155  1.0000
  C   C121      1.0  0.19781  0.71688  0.16513  1.0000
  C   C122      1.0  0.21738  0.72315  0.18071  1.0000
  C   C123      1.0  0.21094  0.71912  0.20251  1.0000
  H   H196      1.0  0.14505  0.69525  0.19828  1.0000
  H   H197      1.0  0.15647  0.70174  0.15969  1.0000
  H   H198      1.0  0.23765  0.73135  0.17586  1.0000
  H   H199      1.0  0.22624  0.72439  0.21433  1.0000
  S   S57       1.0  0.38138  0.55424  0.21308  1.0000
  C   C124      1.0  0.36381  0.75716  0.25748  1.0000
  C   C125      1.0  0.36635  0.54939  0.18765  1.0000
  C   C126      1.0  0.34221  0.54943  0.18480  1.0000
  H   H200      1.0  0.29733  0.72296  0.25707  1.0000
  H   H201      1.0  0.18901  0.66274  0.21998  1.0000
  H   H202      1.0  0.02120  0.64199  0.03770  1.0000
  C   C127      1.0  0.26126  0.53618  0.10429  1.0000
  H   H203      1.0  0.04032  0.58232  0.05910  1.0000
  H   H204      1.0  0.08069  0.61514  0.04257  1.0000
  C   C128      1.0  0.38490  0.67347  0.21162  1.0000
  H   H205      1.0  0.45307  0.65996  0.01206  1.0000
  C   C129      1.0  0.39861  0.70144  0.24307  1.0000
  N   N14       1.0  0.40549  0.69824  0.22084  1.0000
  C   C130      1.0  0.40757  0.72081  0.20804  1.0000
  C   C131      1.0  0.31140  0.63734  0.25531  1.0000
  C   C132      1.0  0.43079  0.69726  0.22065  1.0000
  H   H206      1.0  0.19499  0.66743  0.18070  1.0000
  H   H207      1.0  0.42267  0.73988  0.21468  1.0000
  H   H208      1.0  0.45337  0.70373  0.04093  1.0000
  H   H209      1.0  0.41278  0.71916  0.19118  1.0000
  N   N15       1.0  0.07865  0.59743  0.07318  1.0000
  H   H210      1.0  0.24274  0.71107  0.04780  1.0000
  C   C133      1.0  0.05011  0.58807  0.07495  1.0000
  H   H211      1.0  0.42987  0.68054  0.23039  1.0000
  H   H212      1.0  0.44677  0.71574  0.22742  1.0000
  H   H213      1.0  0.43652  0.69454  0.20418  1.0000
  H   H214      1.0  0.21548  0.61415  0.18556  1.0000
  H   H215      1.0  0.27501  0.67055  0.25121  1.0000
  H   H216      1.0  0.46068  0.67749  0.04892  1.0000
  C   C134      1.0  0.37849  0.54409  0.17000  1.0000
  H   H217      1.0  0.36543  0.67332  0.21201  1.0000
  H   H218      1.0  0.39778  0.68524  0.25338  1.0000
  H   H219      1.0  0.33600  0.72695  0.23683  1.0000
  N   N16       1.0  0.20445  0.64202  0.20017  1.0000
  C   C135      1.0  0.18788  0.64277  0.21800  1.0000
  C   C136      1.0  0.20325  0.61550  0.19887  1.0000
  C   C137      1.0  0.23180  0.66201  0.20397  1.0000
  C   C138      1.0  0.19491  0.64782  0.17997  1.0000
  Fe  Fe32      1.0  0.20365  0.69906  0.25951  1.0000
  H   H220      1.0  0.19405  0.63770  0.23338  1.0000
  H   H221      1.0  0.16696  0.62854  0.21543  1.0000
  H   H222      1.0  0.18285  0.59985  0.19631  1.0000
  C   C139      1.0  0.29480  0.55706  0.07773  1.0000
  H   H223      1.0  0.21050  0.61071  0.21391  1.0000
  H   H224      1.0  0.24490  0.66203  0.19084  1.0000
  H   H225      1.0  0.23954  0.65815  0.21913  1.0000
  H   H226      1.0  0.23345  0.68228  0.20510  1.0000
  H   H227      1.0  0.20735  0.64820  0.16618  1.0000
  C   C140      1.0  0.27943  0.65419  0.25347  1.0000
  H   H228      1.0  0.17447  0.63291  0.17640  1.0000
  H   H229      1.0  0.38877  0.72210  0.20806  1.0000
  S   S58       1.0  0.42903  0.57805  0.05489  1.0000
  H   H230      1.0  0.38926  0.67042  0.19480  1.0000
  C   C141      1.0  0.49299  0.72618  0.01309  1.0000
  C   C142      1.0  0.30533  0.65824  0.25197  1.0000
  H   H231      1.0  0.11125  0.62718  0.05655  1.0000
  H   H232      1.0  0.07573  0.55840  0.07511  1.0000
  N   N17       1.0  0.48180  0.69897  0.02141  1.0000
  C   C143      1.0  0.02319  0.64154  0.05484  1.0000
  H   H233      1.0  0.07541  0.56962  0.04838  1.0000
  H   H234      1.0  0.39725  0.54421  0.17207  1.0000
  H   H235      1.0  0.37913  0.70121  0.24393  1.0000
  H   H236      1.0  0.10540  0.58255  0.06324  1.0000
  H   H237      1.0  0.48379  0.71134  0.05415  1.0000
  H   H238      1.0  0.19073  0.70170  0.02715  1.0000
  H   H239      1.0  0.04088  0.57070  0.08562  1.0000
  C   C144      1.0  0.33858  0.73924  0.25081  1.0000
  C   C145      1.0  0.34221  0.53820  0.14693  1.0000
  H   H240      1.0  0.30140  0.55621  0.06109  1.0000
  C   C146      1.0  0.33011  0.54361  0.16455  1.0000
  C   C147      1.0  0.16040  0.59285  0.03803  1.0000
  H   H241      1.0  0.16486  0.58309  0.05097  1.0000
  C   C148      1.0  0.46557  0.60990  0.02628  1.0000
  H   H242      1.0  0.37645  0.53524  0.13620  1.0000
  C   C149      1.0  0.08395  0.57600  0.06461  1.0000
  H   H243      1.0  0.49536  0.67096  0.03077  1.0000
  H   H244      1.0  0.14865  0.64529  0.02850  1.0000
  S   S59       1.0  0.34439  0.64416  0.25493  1.0000
  H   H245      1.0  0.03048  0.64161  0.11618  1.0000
  S   S60       1.0  0.39083  0.75837  0.24342  1.0000
  C   C150      1.0  0.09083  0.60565  0.09450  1.0000
  H   H246      1.0  0.50783  0.74054  0.02425  1.0000
  H   H247      1.0  0.29438  0.57632  0.07980  1.0000
  H   H248      1.0  0.11236  0.61261  0.09373  1.0000
  C   C151      1.0  0.15150  0.62805  0.02540  1.0000
  H   H249      1.0  0.23348  0.73590  0.04013  1.0000
  H   H250      1.0  0.32076  0.67777  0.24857  1.0000
  H   H251      1.0  0.19952  0.67654  0.03514  1.0000
  H   H252      1.0  0.31118  0.54312  0.16260  1.0000
  S   S61       1.0  0.33648  0.56850  0.25857  1.0000
  C   C152      1.0  0.24258  0.72346  0.03421  1.0000
  H   H253      1.0  0.38281  0.65601  0.22081  1.0000
  C   C153      1.0  0.46933  0.69786  0.04230  1.0000
  H   H254      1.0  0.24725  0.55380  0.06941  1.0000
  H   H255      1.0  0.31000  0.55707  0.08875  1.0000
  H   H256      1.0  0.41305  0.72053  0.25019  1.0000
  S   S62       1.0  0.30434  0.52666  0.02069  1.0000
  S   S63       1.0  0.38067  0.51916  0.08690  1.0000
  H   H257      1.0  0.40055  0.57462  0.01572  1.0000
  C   C154      1.0  0.15795  0.58276  0.01713  1.0000
  H   H258      1.0  0.24021  0.67705  0.02160  1.0000
  C   C155      1.0  0.20073  0.68987  0.02180  1.0000
  H   H259      1.0  0.27585  0.53568  0.11579  1.0000
  C   C156      1.0  0.24936  0.53542  0.06718  1.0000
  H   H260      1.0  0.25502  0.53484  0.05025  1.0000
  N   N18       1.0  0.26896  0.53456  0.08199  1.0000
  C   C157      1.0  0.25939  0.62900  0.25773  1.0000
  C   C158      1.0  0.42103  0.58789  0.01321  1.0000
  N   N19       1.0  0.22813  0.70705  0.01566  1.0000
  H   H261      1.0  0.22975  0.51827  0.06943  1.0000
  H   H262      1.0  0.26322  0.73713  0.03010  1.0000
  C   C159      1.0  0.29142  0.61209  0.25952  1.0000
  H   H263      1.0  0.16053  0.56533  0.01399  1.0000
  C   C160      1.0  0.26533  0.60786  0.26045  1.0000
  S   S64       1.0  0.22695  0.62393  0.25974  1.0000
  H   H264      1.0  0.10199  0.70226  0.28409  1.0000
  Fe  Fe33      1.0  0.35716  0.56916  0.28957  1.0000
  H   H265      1.0  0.41210  0.52578  0.34841  1.0000
  H   H266      1.0  0.35859  0.67676  0.31143  1.0000
  H   H267      1.0  0.10774  0.62122  0.50217  1.0000
  C   C161      1.0  0.46404  0.67343  0.27866  1.0000
  C   C162      1.0  0.34601  0.54482  0.34375  1.0000
  S   S65       1.0  0.37418  0.61304  0.29464  1.0000
  H   H268      1.0  0.24982  0.58832  0.26372  1.0000
  S   S66       1.0  0.23787  0.67805  0.30375  1.0000
  S   S67       1.0  0.18538  0.65928  0.27478  1.0000
  H   H269      1.0  0.32706  0.65416  0.30090  1.0000
  Fe  Fe34      1.0  0.20019  0.68095  0.30584  1.0000
  S   S68       1.0  0.16993  0.66620  0.33227  1.0000
  C   C163      1.0  0.50322  0.71367  0.27026  1.0000
  H   H270      1.0  0.46485  0.58988  0.33015  1.0000
  Fe  Fe35      1.0  0.15830  0.70757  0.45073  1.0000
  S   S69       1.0  0.14566  0.72753  0.47662  1.0000
  S   S70       1.0  0.17606  0.72732  0.41925  1.0000
  Fe  Fe36      1.0  0.15242  0.66267  0.47982  1.0000
  H   H271      1.0  0.12869  0.67898  0.27539  1.0000
  H   H272      1.0  0.15077  0.57315  0.48989  1.0000
  Fe  Fe37      1.0  0.11421  0.68595  0.48365  1.0000
  H   H273      1.0  0.39570  0.57331  0.31954  1.0000
  H   H274      1.0  0.42820  0.67685  0.27925  1.0000
  S   S71       1.0  0.34037  0.53854  0.31592  1.0000
  S   S72       1.0  0.12519  0.66704  0.45631  1.0000
  S   S73       1.0  0.18651  0.70133  0.47185  1.0000
  H   H275      1.0  0.23847  0.52174  0.48873  1.0000
  S   S74       1.0  0.29269  0.74847  0.29612  1.0000
  H   H276      1.0  0.34798  0.68295  0.28617  1.0000
  C   C164      1.0  0.13834  0.68590  0.29121  1.0000
  H   H277      1.0  0.47935  0.59827  0.48665  1.0000
  C   C165      1.0  0.03890  0.65476  0.46075  1.0000
  H   H278      1.0  0.43653  0.59152  0.45814  1.0000
  C   C166      1.0  0.45044  0.57401  0.34044  1.0000
  C   C167      1.0  0.46664  0.59831  0.49943  1.0000
  H   H279      1.0  0.45006  0.58313  0.35617  1.0000
  Fe  Fe38      1.0  0.40811  0.61517  0.27564  1.0000
  C   C168      1.0  0.15403  0.73145  0.28112  1.0000
  H   H280      1.0  0.12767  0.67033  0.30321  1.0000
  C   C169      1.0  0.04170  0.65167  0.48256  1.0000
  H   H281      1.0  0.05579  0.66756  0.45147  1.0000
  S   S75       1.0  0.21625  0.72094  0.29088  1.0000
  C   C170      1.0  0.15155  0.60808  0.50439  1.0000
  C   C171      1.0  0.17194  0.68381  0.35613  1.0000
  C   C172      1.0  0.19300  0.70851  0.36042  1.0000
  C   C173      1.0  0.19379  0.72183  0.37970  1.0000
  C   C174      1.0  0.17375  0.71043  0.39489  1.0000
  C   C175      1.0  0.15245  0.68599  0.39035  1.0000
  C   C176      1.0  0.15162  0.67270  0.37108  1.0000
  H   H282      1.0  0.20869  0.71733  0.34896  1.0000
  H   H283      1.0  0.21017  0.74091  0.38301  1.0000
  H   H284      1.0  0.13658  0.67739  0.40169  1.0000
  H   H285      1.0  0.13510  0.65374  0.36772  1.0000
  C   C177      1.0  0.35869  0.57052  0.35215  1.0000
  C   C178      1.0  0.36404  0.57463  0.37420  1.0000
  H   H286      1.0  0.36428  0.58721  0.34166  1.0000
  H   H287      1.0  0.37375  0.59457  0.38053  1.0000
  C   C179      1.0  0.41047  0.63038  0.43961  1.0000
  Fe  Fe39      1.0  0.25302  0.71651  0.28622  1.0000
  Fe  Fe40      1.0  0.17268  0.71925  0.49797  1.0000
  C   C180      1.0  0.41542  0.58198  0.32700  1.0000
  Fe  Fe41      1.0  0.37447  0.52958  0.48750  1.0000
  S   S76       1.0  0.36427  0.55951  0.41569  1.0000
  H   H288      1.0  0.41423  0.59156  0.34226  1.0000
  H   H289      1.0  0.45788  0.55929  0.34314  1.0000
  C   C181      1.0  0.44079  0.57816  0.50042  1.0000
  C   C182      1.0  0.31977  0.75257  0.28046  1.0000
  H   H290      1.0  0.43371  0.56246  0.48860  1.0000
  N   N20       1.0  0.06899  0.58895  0.50311  1.0000
  N   N21       1.0  0.13960  0.71157  0.29755  1.0000
  S   S77       1.0  0.39257  0.57137  0.27257  1.0000
  H   H291      1.0  0.29108  0.66666  0.30020  1.0000
  S   S78       1.0  0.39327  0.53025  0.45604  1.0000
  S   S79       1.0  0.33984  0.53137  0.47274  1.0000
  C   C183      1.0  0.43055  0.60195  0.44608  1.0000
  H   H292      1.0  0.03796  0.59280  0.48682  1.0000
  C   C184      1.0  0.48850  0.72752  0.26844  1.0000
  N   N22       1.0  0.41798  0.61685  0.45625  1.0000
  C   C185      1.0  0.04172  0.58500  0.50198  1.0000
  C   C186      1.0  0.46140  0.71429  0.27180  1.0000
  H   H293      1.0  0.20912  0.68508  0.40091  1.0000
  N   N23       1.0  0.42422  0.56159  0.33047  1.0000
  H   H294      1.0  0.45503  0.65021  0.46353  1.0000
  H   H295      1.0  0.45003  0.72500  0.27076  1.0000
  H   H296      1.0  0.15537  0.75112  0.28526  1.0000
  C   C187      1.0  0.35678  0.55315  0.38811  1.0000
  N   N24       1.0  0.19340  0.65100  0.42112  1.0000
  C   C188      1.0  0.18837  0.62308  0.42042  1.0000
  C   C189      1.0  0.21133  0.66484  0.43901  1.0000
  C   C190      1.0  0.16845  0.65213  0.42431  1.0000
  H   H297      1.0  0.17463  0.61200  0.40726  1.0000
  H   H298      1.0  0.17947  0.61292  0.43567  1.0000
  H   H299      1.0  0.21595  0.68612  0.43970  1.0000
  H   H300      1.0  0.20251  0.65606  0.45467  1.0000
  H   H301      1.0  0.15488  0.64309  0.41062  1.0000
  H   H302      1.0  0.17169  0.67287  0.42634  1.0000
  H   H303      1.0  0.15815  0.64131  0.43880  1.0000
  N   N25       1.0  0.32947  0.69074  0.31329  1.0000
  C   C191      1.0  0.30621  0.68770  0.30119  1.0000
  C   C192      1.0  0.32158  0.68085  0.33518  1.0000
  C   C193      1.0  0.34877  0.71897  0.31411  1.0000
  C   C194      1.0  0.34129  0.67547  0.30256  1.0000
  H   H304      1.0  0.29707  0.69941  0.30855  1.0000
  H   H305      1.0  0.41699  0.58667  0.43471  1.0000
  C   C195      1.0  0.43643  0.63657  0.47145  1.0000
  H   H306      1.0  0.33866  0.68287  0.34481  1.0000
  H   H307      1.0  0.31249  0.69197  0.34360  1.0000
  H   H308      1.0  0.30703  0.65956  0.33499  1.0000
  H   H309      1.0  0.34019  0.73136  0.32120  1.0000
  H   H310      1.0  0.35566  0.72665  0.29781  1.0000
  H   H311      1.0  0.36632  0.72226  0.32365  1.0000
  H   H312      1.0  0.19217  0.65423  0.38694  1.0000
  H   H313      1.0  0.17339  0.72210  0.31755  1.0000
  H   H314      1.0  0.11300  0.72773  0.30432  1.0000
  Fe  Fe42      1.0  0.22448  0.66031  0.27122  1.0000
  C   C196      1.0  0.20530  0.66400  0.40080  1.0000
  H   H315      1.0  0.20675  0.62138  0.41794  1.0000
  C   C197      1.0  0.44908  0.68710  0.27659  1.0000
  H   H316      1.0  0.37966  0.58375  0.45675  1.0000
  S   S80       1.0  0.44985  0.63984  0.28571  1.0000
  H   H317      1.0  0.38474  0.60893  0.47632  1.0000
  H   H318      1.0  0.23014  0.66379  0.43750  1.0000
  C   C198      1.0  0.40553  0.54091  0.34463  1.0000
  H   H319      1.0  0.40281  0.54940  0.36000  1.0000
  S   S81       1.0  0.07210  0.66939  0.49615  1.0000
  H   H320      1.0  0.42892  0.59780  0.31623  1.0000
  H   H321      1.0  0.22421  0.66362  0.39777  1.0000
  H   H322      1.0  0.14282  0.70547  0.33106  1.0000
  S   S82       1.0  0.15476  0.62396  0.47974  1.0000
  C   C199      1.0  0.34403  0.52747  0.37974  1.0000
  C   C200      1.0  0.49111  0.68688  0.27565  1.0000
  C   C201      1.0  0.39433  0.59839  0.46782  1.0000
  H   H323      1.0  0.31148  0.69477  0.28459  1.0000
  H   H324      1.0  0.39908  0.58706  0.47992  1.0000
  H   H325      1.0  0.42784  0.64458  0.43060  1.0000
  C   C202      1.0  0.15320  0.72010  0.31834  1.0000
  H   H326      1.0  0.15474  0.73950  0.32366  1.0000
  H   H327      1.0  0.40055  0.64149  0.44665  1.0000
  H   H328      1.0  0.02741  0.56370  0.50292  1.0000
  H   H329      1.0  0.15823  0.68742  0.28986  1.0000
  C   C203      1.0  0.07413  0.57490  0.48514  1.0000
  H   H330      1.0  0.39665  0.61590  0.42785  1.0000
  H   H331      1.0  0.42787  0.64869  0.47898  1.0000
  H   H332      1.0  0.10138  0.69377  0.31174  1.0000
  H   H333      1.0  0.44164  0.62687  0.48465  1.0000
  H   H334      1.0  0.44840  0.61519  0.43710  1.0000
  C   C204      1.0  0.11278  0.70871  0.29950  1.0000
  H   H335      1.0  0.09472  0.57784  0.48548  1.0000
  H   H336      1.0  0.38589  0.53034  0.33700  1.0000
  Fe  Fe43      1.0  0.35692  0.52816  0.44100  1.0000
  H   H337      1.0  0.07113  0.58225  0.46949  1.0000
  C   C205      1.0  0.42546  0.54954  0.30973  1.0000
  H   H338      1.0  0.17432  0.73406  0.27914  1.0000
  C   C206      1.0  0.14952  0.58255  0.50466  1.0000
  C   C207      1.0  0.33855  0.52336  0.35770  1.0000
  H   H339      1.0  0.43858  0.56473  0.29830  1.0000
  C   C208      1.0  0.31663  0.73701  0.26223  1.0000
  H   H340      1.0  0.43277  0.53459  0.31161  1.0000
  S   S83       1.0  0.14022  0.67965  0.50739  1.0000
  H   H341      1.0  0.50277  0.67646  0.27729  1.0000
  C   C209      1.0  0.08701  0.61744  0.50172  1.0000
  H   H342      1.0  0.08411  0.62593  0.48663  1.0000
  H   H343      1.0  0.06099  0.55326  0.48569  1.0000
  H   H344      1.0  0.14451  0.72540  0.26514  1.0000
  H   H345      1.0  0.40575  0.53930  0.30214  1.0000
  C   C210      1.0  0.01936  0.63518  0.49437  1.0000
  Fe  Fe44      1.0  0.35679  0.61284  0.26247  1.0000
  H   H346      1.0  0.29603  0.59586  0.26207  1.0000
  S   S84       1.0  0.50472  0.76118  0.26151  1.0000
  S   S85       1.0  0.20211  0.74295  0.52426  1.0000
  Fe  Fe45      1.0  0.20789  0.56260  0.74430  1.0000
  H   H347      1.0  0.15221  0.63996  0.52369  1.0000
  C   C211      1.0  0.43049  0.75622  0.75275  1.0000
  H   H348      1.0  0.03739  0.59559  0.51527  1.0000
  H   H349      1.0  0.30805  0.54141  0.53199  1.0000
  S   S86       1.0  0.24966  0.59156  0.73748  1.0000
  H   H350      1.0  0.51574  0.75937  0.56170  1.0000
  S   S87       1.0  0.46161  0.71297  0.73324  1.0000
  S   S88       1.0  0.46935  0.66134  0.74821  1.0000
  Fe  Fe46      1.0  0.49467  0.70264  0.73666  1.0000
  H   H351      1.0  0.27412  0.75346  0.74577  1.0000
  C   C212      1.0  0.48956  0.68916  0.67795  1.0000
  Fe  Fe47      1.0  0.14239  0.52653  0.56759  1.0000
  H   H352      1.0  0.35659  0.54451  0.55619  1.0000
  C   C213      1.0  0.36228  0.68729  0.74857  1.0000
  C   C214      1.0  0.43378  0.59838  0.53237  1.0000
  C   C215      1.0  0.45975  0.61838  0.53154  1.0000
  H   H353      1.0  0.14424  0.54932  0.52407  1.0000
  H   H354      1.0  0.14462  0.61576  0.55767  1.0000
  H   H355      1.0  0.42104  0.59862  0.54505  1.0000
  H   H356      1.0  0.46694  0.63396  0.54351  1.0000
  C   C216      1.0  0.14378  0.58084  0.54316  1.0000
  H   H357      1.0  0.34418  0.62356  0.71773  1.0000
  C   C217      1.0  0.47608  0.61859  0.51487  1.0000
  C   C218      1.0  0.26595  0.71264  0.74247  1.0000
  S   S89       1.0  0.17663  0.53523  0.72101  1.0000
  S   S90       1.0  0.51728  0.70136  0.55490  1.0000
  Fe  Fe48      1.0  0.24023  0.62141  0.75392  1.0000
  H   H358      1.0  0.26643  0.71310  0.72520  1.0000
  S   S91       1.0  0.39095  0.55513  0.51694  1.0000
  H   H359      1.0  0.46252  0.66911  0.65231  1.0000
  C   C219      1.0  0.31665  0.66334  0.75800  1.0000
  H   H360      1.0  0.47481  0.68127  0.69029  1.0000
  H   H361      1.0  0.09361  0.58106  0.52469  1.0000
  C   C220      1.0  0.31719  0.52840  0.52785  1.0000
  H   H362      1.0  0.43673  0.74360  0.74411  1.0000
  C   C221      1.0  0.36961  0.63069  0.74485  1.0000
  H   H363      1.0  0.35945  0.67537  0.73371  1.0000
  C   C222      1.0  0.33651  0.53270  0.56272  1.0000
  C   C223      1.0  0.50164  0.69180  0.64026  1.0000
  H   H364      1.0  0.22366  0.54674  0.69586  1.0000
  S   S92       1.0  0.49231  0.68156  0.61350  1.0000
  H   H365      1.0  0.47854  0.74612  0.59981  1.0000
  H   H366      1.0  0.30349  0.59704  0.73790  1.0000
  S   S93       1.0  0.18271  0.53036  0.57095  1.0000
  C   C224      1.0  0.42417  0.57847  0.51665  1.0000
  S   S94       1.0  0.39781  0.65059  0.73013  1.0000
  C   C225      1.0  0.48265  0.68226  0.65640  1.0000
  C   C226      1.0  0.51557  0.70574  0.68353  1.0000
  H   H367      1.0  0.22644  0.60002  0.62512  1.0000
  C   C227      1.0  0.15011  0.62011  0.52360  1.0000
  H   H368      1.0  0.21100  0.56473  0.62722  1.0000
  H   H369      1.0  0.08403  0.62881  0.51514  1.0000
  H   H370      1.0  0.05976  0.55727  0.52531  1.0000
  S   S95       1.0  0.13777  0.56394  0.56752  1.0000
  C   C228      1.0  0.26041  0.68911  0.75306  1.0000
  C   C229      1.0  0.27039  0.73551  0.75409  1.0000
  C   C230      1.0  0.34523  0.62017  0.73458  1.0000
  Fe  Fe49      1.0  0.43669  0.67284  0.74689  1.0000
  N   N26       1.0  0.18455  0.58198  0.62830  1.0000
  C   C231      1.0  0.18530  0.58406  0.65187  1.0000
  C   C232      1.0  0.18238  0.60474  0.61908  1.0000
  C   C233      1.0  0.16169  0.55734  0.62160  1.0000
  C   C234      1.0  0.20874  0.58165  0.62051  1.0000
  H   H371      1.0  0.18700  0.56714  0.65922  1.0000
  H   H372      1.0  0.16720  0.58397  0.65837  1.0000
  H   H373      1.0  0.20231  0.60245  0.65757  1.0000
  H   H374      1.0  0.18134  0.60336  0.60128  1.0000
  H   H375      1.0  0.16430  0.60553  0.62463  1.0000
  H   H376      1.0  0.19941  0.62378  0.62356  1.0000
  H   H377      1.0  0.16272  0.53968  0.62790  1.0000
  H   H378      1.0  0.16064  0.55522  0.60395  1.0000
  H   H379      1.0  0.14299  0.55671  0.62715  1.0000
  H   H380      1.0  0.20859  0.57957  0.60280  1.0000
  N   N27       1.0  0.33849  0.68986  0.75414  1.0000
  C   C235      1.0  0.07329  0.57868  0.52353  1.0000
  H   H381      1.0  0.32772  0.69051  0.72140  1.0000
  C   C236      1.0  0.49661  0.74362  0.60093  1.0000
  S   S96       1.0  0.25384  0.66072  0.73777  1.0000
  C   C237      1.0  0.14599  0.60643  0.54290  1.0000
  S   S97       1.0  0.50761  0.64491  0.51197  1.0000
  C   C238      1.0  0.14579  0.56900  0.52401  1.0000
  C   C239      1.0  0.20666  0.53604  0.68585  1.0000
  C   C240      1.0  0.32215  0.60530  0.74600  1.0000
  H   H382      1.0  0.31180  0.65065  0.74339  1.0000
  H   H383      1.0  0.33682  0.54102  0.52101  1.0000
  H   H384      1.0  0.32912  0.54685  0.56799  1.0000
  H   H385      1.0  0.34764  0.72260  0.73314  1.0000
  H   H386      1.0  0.31367  0.70456  0.74003  1.0000
  H   H387      1.0  0.51782  0.62621  0.63183  1.0000
  S   S98       1.0  0.19797  0.59337  0.75857  1.0000
  C   C241      1.0  0.20967  0.52950  0.66459  1.0000
  C   C242      1.0  0.18164  0.52816  0.69425  1.0000
  H   H388      1.0  0.49783  0.73729  0.61750  1.0000
  H   H389      1.0  0.07025  0.58933  0.53745  1.0000
  H   H390      1.0  0.37934  0.70682  0.74591  1.0000
  C   C243      1.0  0.33163  0.70246  0.73636  1.0000
  H   H391      1.0  0.33839  0.52237  0.57712  1.0000
  H   H392      1.0  0.22910  0.53533  0.65835  1.0000
  H   H393      1.0  0.49406  0.72691  0.59012  1.0000
  C   C244      1.0  0.41100  0.76161  0.74411  1.0000
  H   H394      1.0  0.24917  0.76615  0.54913  1.0000
  H   H395      1.0  0.40237  0.75303  0.72885  1.0000
  H   H396      1.0  0.02122  0.63283  0.51130  1.0000
  S   S99       1.0  0.25150  0.61493  0.78662  1.0000
  C   C245      1.0  0.17209  0.56568  0.86102  1.0000
  Fe  Fe50      1.0  0.20990  0.58372  0.79021  1.0000
  H   H397      1.0  0.34877  0.60689  0.79471  1.0000
  H   H398      1.0  0.16414  0.57966  0.86162  1.0000
  Fe  Fe51      1.0  0.47717  0.67965  0.78136  1.0000
  H   H399      1.0  0.25963  0.54471  0.92928  1.0000
  S   S100      1.0  0.44198  0.68717  0.78078  1.0000
  H   H400      1.0  0.49086  0.76309  0.82456  1.0000
  H   H401      1.0  0.32144  0.65279  0.77082  1.0000
  S   S101      1.0  0.18355  0.53711  0.96075  1.0000
  Fe  Fe52      1.0  0.14886  0.54429  0.96815  1.0000
  S   S102      1.0  0.15124  0.58460  0.97380  1.0000
  H   H402      1.0  0.19148  0.68774  0.80921  1.0000
  C   C246      1.0  0.24019  0.53097  0.93590  1.0000
  S   S103      1.0  0.46723  0.76152  0.78275  1.0000
  H   H403      1.0  0.19944  0.64039  0.82495  1.0000
  C   C247      1.0  0.37086  0.62606  0.76659  1.0000
  H   H404      1.0  0.16071  0.55249  0.89342  1.0000
  H   H405      1.0  0.21305  0.63611  0.80042  1.0000
  H   H406      1.0  0.15878  0.66826  0.79941  1.0000
  C   C248      1.0  0.26138  0.52952  0.00410  1.0000
  H   H407      1.0  0.41545  0.59715  0.98090  1.0000
  C   C249      1.0  0.26400  0.71149  0.78703  1.0000
  C   C250      1.0  0.42951  0.60063  0.99352  1.0000
  H   H408      1.0  0.44446  0.75094  0.82716  1.0000
  H   H409      1.0  0.38961  0.63397  0.77459  1.0000
  S   S104      1.0  0.18651  0.58306  0.81994  1.0000
  H   H410      1.0  0.25652  0.67074  0.78360  1.0000
  C   C251      1.0  0.49577  0.66443  0.85364  1.0000
  H   H411      1.0  0.43842  0.69083  0.85444  1.0000
  H   H412      1.0  0.50412  0.74364  0.83713  1.0000
  C   C252      1.0  0.26008  0.68868  0.77538  1.0000
  C   C253      1.0  0.18022  0.53205  0.87845  1.0000
  C   C254      1.0  0.17006  0.55024  0.87907  1.0000
  S   S105      1.0  0.46565  0.63504  0.96585  1.0000
  C   C255      1.0  0.18452  0.56332  0.84230  1.0000
  H   H413      1.0  0.42219  0.72068  0.83992  1.0000
  H   H414      1.0  0.29855  0.66453  0.76283  1.0000
  H   H415      1.0  0.15500  0.61424  0.81174  1.0000
  H   H416      1.0  0.23958  0.53691  0.95279  1.0000
  S   S106      1.0  0.29463  0.58177  0.78229  1.0000
  C   C256      1.0  0.15280  0.59565  0.00029  1.0000
  H   H417      1.0  0.14517  0.62803  0.99145  1.0000
  C   C257      1.0  0.20563  0.64878  0.80872  1.0000
  C   C258      1.0  0.45701  0.70172  0.84552  1.0000
  H   H418      1.0  0.24902  0.73825  0.99336  1.0000
  H   H419      1.0  0.48143  0.64386  0.85449  1.0000
  C   C259      1.0  0.17524  0.66723  0.80797  1.0000
  C   C260      1.0  0.26897  0.73488  0.77636  1.0000
  H   H420      1.0  0.21833  0.71266  0.98361  1.0000
  C   C261      1.0  0.45603  0.61793  0.99014  1.0000
  H   H421      1.0  0.35981  0.72655  0.77118  1.0000
  S   S107      1.0  0.50512  0.72006  0.77001  1.0000
  C   C262      1.0  0.48668  0.74253  0.82869  1.0000
  C   C263      1.0  0.19250  0.52959  0.85972  1.0000
  H   H422      1.0  0.20822  0.68018  0.77528  1.0000
  H   H423      1.0  0.47159  0.76462  0.86028  1.0000
  H   H424      1.0  0.27548  0.54870  0.99846  1.0000
  H   H425      1.0  0.22228  0.66884  0.81066  1.0000
  H   H426      1.0  0.32584  0.70885  0.77812  1.0000
  H   H427      1.0  0.48472  0.73170  0.81334  1.0000
  H   H428      1.0  0.22986  0.67765  0.99473  1.0000
  Fe  Fe53      1.0  0.50792  0.66437  0.96070  1.0000
  S   S108      1.0  0.27274  0.76306  0.79077  1.0000
  S   S109      1.0  0.21686  0.55082  0.77650  1.0000
  C   C264      1.0  0.19477  0.54522  0.84176  1.0000
  H   H429      1.0  0.51221  0.69115  0.00848  1.0000
  C   C265      1.0  0.34776  0.61075  0.77795  1.0000
  C   C266      1.0  0.50079  0.67743  0.83393  1.0000
  H   H430      1.0  0.47098  0.68065  0.99037  1.0000
  S   S110      1.0  0.48293  0.66002  0.81107  1.0000
  H   H431      1.0  0.49455  0.63538  0.00397  1.0000
  C   C267      1.0  0.47408  0.62233  0.00650  1.0000
  C   C268      1.0  0.50863  0.67801  0.87239  1.0000
  C   C269      1.0  0.14943  0.61821  0.00447  1.0000
  H   H432      1.0  0.47770  0.73276  0.01054  1.0000
  H   H433      1.0  0.20437  0.54318  0.82747  1.0000
  C   C270      1.0  0.22865  0.72435  0.99801  1.0000
  H   H434      1.0  0.34859  0.69743  0.78736  1.0000
  S   S111      1.0  0.12731  0.52418  0.93832  1.0000
  C   C271      1.0  0.16175  0.62253  0.79555  1.0000
  H   H435      1.0  0.14477  0.62214  0.78679  1.0000
  Fe  Fe54      1.0  0.25795  0.58281  0.77075  1.0000
  H   H436      1.0  0.26344  0.71118  0.80430  1.0000
  N   N28       1.0  0.18379  0.64947  0.79678  1.0000
  H   H437      1.0  0.44944  0.73423  0.87290  1.0000
  H   H438      1.0  0.16756  0.60862  0.78723  1.0000
  H   H439      1.0  0.16857  0.66034  0.82450  1.0000
  H   H440      1.0  0.45520  0.69083  0.83020  1.0000
  Fe  Fe55      1.0  0.46941  0.72648  0.76739  1.0000
  N   N29       1.0  0.46280  0.72951  0.84181  1.0000
  H   H441      1.0  0.43701  0.71989  0.81482  1.0000
  C   C272      1.0  0.44228  0.76770  0.77216  1.0000
  H   H442      1.0  0.47277  0.70050  0.85497  1.0000
  C   C273      1.0  0.32334  0.60049  0.76771  1.0000
  H   H443      1.0  0.21877  0.73655  0.00265  1.0000
  C   C274      1.0  0.44058  0.73027  0.83054  1.0000
  H   H444      1.0  0.48373  0.74329  0.87141  1.0000
  H   H445      1.0  0.26116  0.70270  0.00382  1.0000
  C   C275      1.0  0.46703  0.74356  0.86254  1.0000
  C   C276      1.0  0.24045  0.69042  0.00863  1.0000
  H   H446      1.0  0.22808  0.53294  0.99118  1.0000
  H   H447      1.0  0.18928  0.67730  0.00813  1.0000
  H   H448      1.0  0.50411  0.66786  0.88752  1.0000
  C   C277      1.0  0.34341  0.70639  0.77360  1.0000
  H   H449      1.0  0.50312  0.72779  0.99756  1.0000
  C   C278      1.0  0.19255  0.65937  0.77498  1.0000
  H   H450      1.0  0.22515  0.53416  0.92693  1.0000
  H   H451      1.0  0.20061  0.64738  0.76644  1.0000
  H   H452      1.0  0.17623  0.65883  0.76513  1.0000
  S   S112      1.0  0.51710  0.70667  0.95504  1.0000
  C   C279      1.0  0.46209  0.68066  0.00620  1.0000
  H   H453      1.0  0.44602  0.68609  0.00352  1.0000
  C   C280      1.0  0.23452  0.52059  0.99985  1.0000
  H   H454      1.0  0.36779  0.67738  0.76144  1.0000
  H   H455      1.0  0.49985  0.89962  0.13424  1.0000
  C   C281      1.0  0.43708  0.86858  0.11633  1.0000
  Fe  Fe56      1.0  0.48196  0.83269  0.24442  1.0000
  H   H456      1.0  0.47482  0.91014  0.13703  1.0000
  S   S113      1.0  0.51670  0.85667  0.06989  1.0000
  H   H457      1.0  0.45630  0.83322  0.11212  1.0000
  S   S114      1.0  0.46377  0.79005  0.23491  1.0000
  H   H458      1.0  0.27468  0.94043  0.04521  1.0000
  S   S115      1.0  0.47858  0.89885  0.06562  1.0000
  C   C282      1.0  0.46289  0.89503  0.04075  1.0000
  H   H459      1.0  0.27449  0.88740  0.03419  1.0000
  H   H460      1.0  0.44006  0.83804  0.14767  1.0000
  C   C283      1.0  0.22413  0.78052  0.03201  1.0000
  H   H461      1.0  0.44093  0.87683  0.09988  1.0000
  C   C284      1.0  0.26562  0.81431  0.04605  1.0000
  C   C285      1.0  0.50250  0.83561  0.18710  1.0000
  H   H462      1.0  0.49245  0.91474  0.26087  1.0000
  H   H463      1.0  0.48608  0.90676  0.11100  1.0000
  C   C286      1.0  0.27867  0.90257  0.02164  1.0000
  H   H464      1.0  0.49182  0.81880  0.19716  1.0000
  H   H465      1.0  0.32181  0.96745  0.01518  1.0000
  C   C287      1.0  0.27333  0.82559  0.02570  1.0000
  H   H466      1.0  0.47309  0.85956  0.15550  1.0000
  C   C288      1.0  0.24134  0.79180  0.04917  1.0000
  H   H467      1.0  0.28854  0.92376  0.06110  1.0000
  C   C289      1.0  0.48134  0.89784  0.12718  1.0000
  H   H468      1.0  0.48928  0.85580  0.11934  1.0000
  N   N30       1.0  0.46110  0.86997  0.12609  1.0000
  H   H469      1.0  0.44834  0.87039  0.15837  1.0000
  C   C290      1.0  0.47071  0.85448  0.11291  1.0000
  C   C291      1.0  0.43931  0.89674  0.03996  1.0000
  C   C292      1.0  0.45535  0.85900  0.14786  1.0000
  H   H470      1.0  0.27848  0.82312  0.05956  1.0000
  H   H471      1.0  0.32977  0.91815  0.01787  1.0000
  H   H472      1.0  0.42925  0.88008  0.12579  1.0000
  H   H473      1.0  0.49145  0.88883  0.02240  1.0000
  N   N31       1.0  0.30012  0.92846  0.02816  1.0000
  H   H474      1.0  0.43114  0.90038  0.05446  1.0000
  C   C293      1.0  0.50958  0.86114  0.19486  1.0000
  H   H475      1.0  0.34084  0.94467  0.03684  1.0000
  H   H476      1.0  0.23576  0.78351  0.06494  1.0000
  C   C294      1.0  0.50971  0.83181  0.16634  1.0000
  H   H477      1.0  0.47467  0.86178  0.09625  1.0000
  H   H478      1.0  0.50456  0.81201  0.16061  1.0000
  C   C295      1.0  0.29260  0.93794  0.04779  1.0000
  H   H479      1.0  0.42145  0.84783  0.11502  1.0000
  C   C296      1.0  0.32394  0.92550  0.03234  1.0000
  S   S116      1.0  0.30363  0.85489  0.02309  1.0000
  H   H480      1.0  0.30847  0.95737  0.05315  1.0000
  Fe  Fe57      1.0  0.43072  0.78520  0.25650  1.0000
  C   C297      1.0  0.47329  0.89024  0.02192  1.0000
  S   S117      1.0  0.50281  0.86676  0.22156  1.0000
  H   H481      1.0  0.32082  0.91095  0.04518  1.0000
  H   H482      1.0  0.51525  0.79778  0.22170  1.0000
  H   H483      1.0  0.26028  0.90388  0.01834  1.0000
  H   H484      1.0  0.40804  0.89507  0.02015  1.0000
  C   C298      1.0  0.42622  0.89385  0.02047  1.0000
  Fe  Fe58      1.0  0.51641  0.89586  0.06748  1.0000
  C   C299      1.0  0.23185  0.79177  0.01165  1.0000
  H   H485      1.0  0.50699  0.87412  0.29946  1.0000
  Fe  Fe59      1.0  0.46695  0.81976  0.29172  1.0000
  H   H486      1.0  0.48837  0.95378  0.50643  1.0000
  N   N32       1.0  0.34932  0.84731  0.49807  1.0000
  C   C300      1.0  0.48715  0.84694  0.34521  1.0000
  H   H487      1.0  0.33920  0.87902  0.50335  1.0000
  C   C301      1.0  0.34502  0.77083  0.28695  1.0000
  H   H488      1.0  0.47155  0.89560  0.31729  1.0000
  S   S118      1.0  0.46405  0.83703  0.32403  1.0000
  H   H489      1.0  0.37112  0.84740  0.47002  1.0000
  C   C302      1.0  0.49937  0.86498  0.38146  1.0000
  H   H490      1.0  0.32292  0.83251  0.47137  1.0000
  H   H491      1.0  0.46254  0.90518  0.29251  1.0000
  H   H492      1.0  0.38648  0.78706  0.28070  1.0000
  N   N33       1.0  0.50135  0.90822  0.29300  1.0000
  H   H493      1.0  0.51233  0.77246  0.50094  1.0000
  Fe  Fe60      1.0  0.48208  0.78445  0.26457  1.0000
  H   H494      1.0  0.30760  0.83243  0.49639  1.0000
  C   C303      1.0  0.50303  0.90554  0.26961  1.0000
  C   C304      1.0  0.32358  0.82929  0.48880  1.0000
  H   H495      1.0  0.35400  0.87962  0.47793  1.0000
  H   H496      1.0  0.46260  0.85622  0.36625  1.0000
  H   H497      1.0  0.34756  0.78302  0.30100  1.0000
  S   S119      1.0  0.47235  0.90719  0.47288  1.0000
  S   S120      1.0  0.44750  0.77580  0.28558  1.0000
  Fe  Fe61      1.0  0.50665  0.89871  0.46690  1.0000
  H   H498      1.0  0.49457  0.87190  0.39618  1.0000
  C   C305      1.0  0.35427  0.87498  0.49510  1.0000
  C   C306      1.0  0.36705  0.77312  0.27549  1.0000
  C   C307      1.0  0.43807  0.90665  0.50348  1.0000
  C   C308      1.0  0.48129  0.85607  0.36445  1.0000
  H   H499      1.0  0.31886  0.80821  0.49117  1.0000
  H   H500      1.0  0.46360  0.87428  0.29446  1.0000
  S   S121      1.0  0.50315  0.82779  0.27285  1.0000
  C   C309      1.0  0.37014  0.84309  0.48738  1.0000
  C   C310      1.0  0.45501  0.89634  0.49700  1.0000
  H   H501      1.0  0.21338  0.79120  0.50027  1.0000
  H   H502      1.0  0.38975  0.85618  0.49433  1.0000
  H   H503      1.0  0.51589  0.96972  0.47443  1.0000
  H   H504      1.0  0.24887  0.83719  0.50430  1.0000
  H   H505      1.0  0.50328  0.94684  0.29120  1.0000
  C   C311      1.0  0.47358  0.89538  0.29959  1.0000
  S   S122      1.0  0.44727  0.82848  0.26386  1.0000
  H   H506      1.0  0.37369  0.88917  0.50165  1.0000
  H   H507      1.0  0.51619  0.83996  0.32836  1.0000
  H   H508      1.0  0.36695  0.82237  0.48917  1.0000
  H   H509      1.0  0.49422  0.88440  0.26455  1.0000
  S   S123      1.0  0.50653  0.86200  0.45340  1.0000
  H   H510      1.0  0.43586  0.92108  0.49367  1.0000
  C   C312      1.0  0.45807  0.87802  0.50993  1.0000
  H   H511      1.0  0.47112  0.86996  0.50508  1.0000
  H   H512      1.0  0.51166  0.00194  0.49958  1.0000
  C   C313      1.0  0.51140  0.84692  0.34306  1.0000
  C   C314      1.0  0.51543  0.89544  0.30379  1.0000
  H   H513      1.0  0.51412  0.89658  0.32151  1.0000
  H   H514      1.0  0.51229  0.93909  0.31667  1.0000
  C   C315      1.0  0.51336  0.93651  0.29908  1.0000
  Fe  Fe62      1.0  0.32612  0.87942  0.55721  1.0000
  S   S124      1.0  0.33902  0.85566  0.57776  1.0000
  S   S125      1.0  0.29318  0.86147  0.53245  1.0000
  Fe  Fe63      1.0  0.37074  0.93268  0.57456  1.0000
  S   S126      1.0  0.38573  0.91139  0.59676  1.0000
  S   S127      1.0  0.39570  0.97547  0.56397  1.0000
  Fe  Fe64      1.0  0.38003  0.88424  0.56875  1.0000
  S   S128      1.0  0.40861  0.86863  0.55930  1.0000
  Fe  Fe65      1.0  0.34313  0.88485  0.60392  1.0000
  S   S129      1.0  0.32118  0.86247  0.63350  1.0000
  S   S130      1.0  0.36689  0.90613  0.54639  1.0000
  S   S131      1.0  0.32819  0.90777  0.58348  1.0000
  H   H515      1.0  0.36986  0.85291  0.67430  1.0000
  H   H516      1.0  0.28215  0.84431  0.57775  1.0000
  N   N34       1.0  0.24656  0.83929  0.59268  1.0000
  S   S132      1.0  0.34928  0.88085  0.73266  1.0000
  H   H517      1.0  0.44600  0.85528  0.53888  1.0000
  C   C316      1.0  0.33028  0.86798  0.66080  1.0000
  C   C317      1.0  0.35034  0.89184  0.66836  1.0000
  C   C318      1.0  0.35597  0.89556  0.69042  1.0000
  C   C319      1.0  0.34201  0.87532  0.70501  1.0000
  C   C320      1.0  0.32232  0.85132  0.69738  1.0000
  C   C321      1.0  0.31636  0.84778  0.67542  1.0000
  H   H518      1.0  0.36109  0.90761  0.65731  1.0000
  H   H519      1.0  0.37115  0.91426  0.69619  1.0000
  H   H520      1.0  0.31119  0.83572  0.70846  1.0000
  H   H521      1.0  0.30070  0.82932  0.66975  1.0000
  C   C322      1.0  0.25748  0.86759  0.59855  1.0000
  H   H522      1.0  0.27024  0.88033  0.58563  1.0000
  C   C323      1.0  0.26943  0.82789  0.52895  1.0000
  H   H523      1.0  0.22025  0.80161  0.60569  1.0000
  C   C324      1.0  0.42690  0.88008  0.53558  1.0000
  S   S133      1.0  0.32596  0.80422  0.74784  1.0000
  C   C325      1.0  0.40271  0.77796  0.75511  1.0000
  C   C326      1.0  0.40518  0.00842  0.57306  1.0000
  H   H524      1.0  0.21221  0.82797  0.61206  1.0000
  H   H525      1.0  0.40007  0.80373  0.70151  1.0000
  H   H526      1.0  0.21519  0.83889  0.57366  1.0000
  H   H527      1.0  0.23924  0.82633  0.62521  1.0000
  H   H528      1.0  0.39520  0.80312  0.67315  1.0000
  C   C327      1.0  0.23206  0.83437  0.57229  1.0000
  H   H529      1.0  0.50553  0.79362  0.60901  1.0000
  C   C328      1.0  0.42437  0.89885  0.52284  1.0000
  H   H530      1.0  0.38078  0.99828  0.60098  1.0000
  H   H531      1.0  0.50298  0.95900  0.53249  1.0000
  H   H532      1.0  0.26072  0.81097  0.58561  1.0000
  C   C329      1.0  0.38315  0.84368  0.67217  1.0000
  C   C330      1.0  0.24925  0.82166  0.51393  1.0000
  H   H533      1.0  0.26968  0.87224  0.61331  1.0000
  N   N35       1.0  0.38220  0.82758  0.69086  1.0000
  H   H534      1.0  0.24486  0.84686  0.55928  1.0000
  H   H535      1.0  0.22440  0.81339  0.56690  1.0000
  H   H536      1.0  0.37703  0.83155  0.65726  1.0000
  H   H537      1.0  0.28548  0.81176  0.55227  1.0000
  C   C331      1.0  0.26972  0.80753  0.54111  1.0000
  H   H538      1.0  0.42092  0.83166  0.68580  1.0000
  C   C332      1.0  0.22874  0.82308  0.60967  1.0000
  H   H539      1.0  0.35390  0.79348  0.70734  1.0000
  C   C333      1.0  0.24921  0.78160  0.53916  1.0000
  S   S134      1.0  0.37797  0.78368  0.74374  1.0000
  C   C334      1.0  0.22868  0.77543  0.52446  1.0000
  C   C335      1.0  0.50593  0.95578  0.51535  1.0000
  H   H540      1.0  0.38993  0.83311  0.72456  1.0000
  H   H541      1.0  0.34616  0.82144  0.52401  1.0000
  H   H542      1.0  0.33357  0.84453  0.52962  1.0000
  H   H543      1.0  0.40317  0.85999  0.66961  1.0000
  C   C336      1.0  0.26813  0.83213  0.59021  1.0000
  C   C337      1.0  0.38991  0.84450  0.71023  1.0000
  H   H544      1.0  0.40985  0.86127  0.70871  1.0000
  H   H545      1.0  0.34873  0.79308  0.67905  1.0000
  H   H546      1.0  0.34110  0.81410  0.69622  1.0000
  C   C338      1.0  0.35531  0.80611  0.69344  1.0000
  C   C339      1.0  0.40041  0.81603  0.68763  1.0000
  H   H547      1.0  0.37621  0.85299  0.71352  1.0000
  H   H548      1.0  0.24178  0.87359  0.60136  1.0000
  H   H549      1.0  0.27937  0.83534  0.60530  1.0000
  C   C340      1.0  0.44385  0.86975  0.52908  1.0000
  Fe  Fe66      1.0  0.34259  0.84743  0.75540  1.0000
  H   H550      1.0  0.41205  0.90755  0.52793  1.0000
  H   H551      1.0  0.50062  0.77913  0.57100  1.0000
  C   C341      1.0  0.51787  0.77539  0.57311  1.0000
  C   C342      1.0  0.39494  0.01423  0.59155  1.0000
  C   C343      1.0  0.34929  0.84195  0.52110  1.0000
  H   H552      1.0  0.36819  0.85556  0.52872  1.0000
  H   H553      1.0  0.50635  0.93641  0.51392  1.0000
  C   C344      1.0  0.22908  0.79557  0.51156  1.0000
  H   H554      1.0  0.34123  0.88527  0.82157  1.0000
  Fe  Fe67      1.0  0.35959  0.84102  0.80050  1.0000
  C   C345      1.0  0.36988  0.91104  0.78797  1.0000
  S   S135      1.0  0.38109  0.86584  0.82952  1.0000
  H   H555      1.0  0.35414  0.83878  0.92326  1.0000
  H   H556      1.0  0.34791  0.95210  0.81007  1.0000
  S   S136      1.0  0.34561  0.79731  0.79625  1.0000
  Fe  Fe68      1.0  0.34155  0.88749  0.94662  1.0000
  S   S137      1.0  0.32243  0.90233  0.97136  1.0000
  S   S138      1.0  0.32228  0.87070  0.91461  1.0000
  Fe  Fe69      1.0  0.38478  0.89273  0.97643  1.0000
  H   H557      1.0  0.37233  0.95940  0.78970  1.0000
  S   S139      1.0  0.42061  0.88582  0.97685  1.0000
  Fe  Fe70      1.0  0.32931  0.87585  0.99426  1.0000
  C   C346      1.0  0.39482  0.00921  0.95872  1.0000
  Fe  Fe71      1.0  0.36354  0.93337  0.97892  1.0000
  S   S140      1.0  0.37258  0.97430  0.99249  1.0000
  S   S141      1.0  0.34547  0.85884  0.96909  1.0000
  S   S142      1.0  0.38199  0.92053  0.95235  1.0000
  C   C347      1.0  0.25635  0.81399  0.00845  1.0000
  H   H558      1.0  0.33051  0.90918  0.82931  1.0000
  H   H559      1.0  0.39948  0.81158  0.90586  1.0000
  H   H560      1.0  0.31140  0.94137  0.99589  1.0000
  Fe  Fe72      1.0  0.31039  0.79767  0.78128  1.0000
  H   H561      1.0  0.38717  0.91897  0.82843  1.0000
  H   H562      1.0  0.36569  0.83805  0.89676  1.0000
  C   C348      1.0  0.43410  0.78427  0.78317  1.0000
  H   H563      1.0  0.38324  0.80919  0.94304  1.0000
  H   H564      1.0  0.32100  0.89250  0.80384  1.0000
  H   H565      1.0  0.42873  0.84096  0.91292  1.0000
  H   H566      1.0  0.35547  0.80962  0.91336  1.0000
  C   C349      1.0  0.36444  0.86704  0.85304  1.0000
  C   C350      1.0  0.33766  0.85072  0.85563  1.0000
  C   C351      1.0  0.32499  0.85237  0.87446  1.0000
  C   C352      1.0  0.33895  0.87016  0.89094  1.0000
  C   C353      1.0  0.36567  0.88675  0.88824  1.0000
  C   C354      1.0  0.37836  0.88513  0.86937  1.0000
  H   H567      1.0  0.32668  0.83673  0.84317  1.0000
  H   H568      1.0  0.30427  0.83956  0.87638  1.0000
  H   H569      1.0  0.37648  0.90088  0.90065  1.0000
  H   H570      1.0  0.39904  0.89803  0.86740  1.0000
  H   H571      1.0  0.38101  0.83718  0.95457  1.0000
  H   H572      1.0  0.40905  0.84126  0.89076  1.0000
  H   H573      1.0  0.37593  0.94268  0.83557  1.0000
  H   H574      1.0  0.41237  0.83875  0.95006  1.0000
  C   C355      1.0  0.35487  0.94319  0.79719  1.0000
  C   C356      1.0  0.41410  0.78922  0.77474  1.0000
  S   S143      1.0  0.36943  0.90770  0.00328  1.0000
  H   H575      1.0  0.40018  0.95004  0.81499  1.0000
  N   N36       1.0  0.39290  0.84178  0.92167  1.0000
  C   C357      1.0  0.40524  0.87095  0.92286  1.0000
  C   C358      1.0  0.39231  0.83114  0.94322  1.0000
  C   C359      1.0  0.40823  0.83349  0.90717  1.0000
  C   C360      1.0  0.36589  0.83159  0.91343  1.0000
  H   H576      1.0  0.39372  0.87792  0.93313  1.0000
  H   H577      1.0  0.40698  0.87977  0.90683  1.0000
  H   H578      1.0  0.42524  0.87927  0.92991  1.0000
  S   S144      1.0  0.32307  0.84089  0.78769  1.0000
  H   H579      1.0  0.37507  0.89559  0.79381  1.0000
  C   C361      1.0  0.38979  0.00604  0.98066  1.0000
  C   C362      1.0  0.38201  0.93413  0.82185  1.0000
  C   C363      1.0  0.43664  0.88932  0.00158  1.0000
  H   H580      1.0  0.38842  0.99197  0.94844  1.0000
  H   H581      1.0  0.46835  0.88383  0.98784  1.0000
  H   H582      1.0  0.26181  0.82248  0.99274  1.0000
  N   N37       1.0  0.36104  0.92248  0.80564  1.0000
  H   H583      1.0  0.40776  0.80196  0.78326  1.0000
  C   C364      1.0  0.46017  0.88739  0.00237  1.0000
  H   H584      1.0  0.33928  0.93500  0.78476  1.0000
  C   C365      1.0  0.33738  0.90150  0.81552  1.0000
  H   H585      1.0  0.21869  0.78339  0.99825  1.0000
  H   H586      1.0  0.35437  0.90165  0.77561  1.0000
  H   H587      1.0  0.38745  0.92629  0.77986  1.0000
  H   H588      1.0  0.28795  0.95065  0.00721  1.0000
  H   H589      1.0  0.28381  0.89474  0.00695  1.0000
  S   S145      1.0  0.38010  0.85037  0.76865  1.0000
  H   H590      1.0  0.44324  0.79329  0.79818  1.0000
  C   C366      1.0  0.30543  0.94780  0.01090  1.0000
  Fe  Fe73      1.0  0.36212  0.80659  0.76322  1.0000
  H   H591      1.0  0.59034  0.20666  0.04430  1.0000
  C   C367      1.0  0.56844  0.17553  0.02163  1.0000
  H   H592      1.0  0.61027  0.14639  0.11880  1.0000
  H   H593      1.0  0.76040  0.16414  0.14033  1.0000
  Fe  Fe74      1.0  0.67812  0.24419  0.24330  1.0000
  S   S146      1.0  0.69570  0.25144  0.20979  1.0000
  H   H594      1.0  0.73346  0.16256  0.12492  1.0000
  Fe  Fe75      1.0  0.65764  0.17700  0.06693  1.0000
  S   S147      1.0  0.67877  0.16395  0.04295  1.0000
  S   S148      1.0  0.63031  0.19495  0.06136  1.0000
  Fe  Fe76      1.0  0.68243  0.16443  0.10502  1.0000
  S   S149      1.0  0.70487  0.14946  0.08400  1.0000
  S   S150      1.0  0.68318  0.16246  0.14132  1.0000
  Fe  Fe77      1.0  0.71429  0.18580  0.06401  1.0000
  S   S151      1.0  0.75772  0.21475  0.05829  1.0000
  Fe  Fe78      1.0  0.66764  0.12869  0.06483  1.0000
  S   S152      1.0  0.64688  0.08658  0.05054  1.0000
  S   S153      1.0  0.69355  0.20131  0.08637  1.0000
  S   S154      1.0  0.64470  0.14117  0.08736  1.0000
  H   H595      1.0  0.55520  0.18352  0.01745  1.0000
  C   C368      1.0  0.63514  0.05415  0.06137  1.0000
  C   C369      1.0  0.64672  0.04888  0.07913  1.0000
  H   H596      1.0  0.80207  0.20577  0.14171  1.0000
  H   H597      1.0  0.74005  0.22336  0.01619  1.0000
  H   H598      1.0  0.66261  0.06503  0.08733  1.0000
  C   C370      1.0  0.60558  0.17833  0.04229  1.0000
  C   C371      1.0  0.61469  0.03269  0.05080  1.0000
  H   H599      1.0  0.65333  0.18658  0.12147  1.0000
  H   H600      1.0  0.58085  0.14931  0.12334  1.0000
  H   H601      1.0  0.64241  0.20504  0.10480  1.0000
  C   C372      1.0  0.77361  0.23705  0.03687  1.0000
  H   H602      1.0  0.78893  0.17945  0.10794  1.0000
  C   C373      1.0  0.76056  0.23709  0.01805  1.0000
  H   H603      1.0  0.74255  0.18163  0.14902  1.0000
  H   H604      1.0  0.60092  0.16471  0.10050  1.0000
  C   C374      1.0  0.68590  0.18742  0.15984  1.0000
  C   C375      1.0  0.69621  0.21399  0.15408  1.0000
  C   C376      1.0  0.69886  0.23330  0.16952  1.0000
  C   C377      1.0  0.69096  0.22626  0.19078  1.0000
  C   C378      1.0  0.68024  0.19963  0.19642  1.0000
  C   C379      1.0  0.67798  0.18038  0.18107  1.0000
  H   H605      1.0  0.70248  0.21974  0.13784  1.0000
  H   H606      1.0  0.70724  0.25386  0.16502  1.0000
  H   H607      1.0  0.67418  0.19393  0.21273  1.0000
  H   H608      1.0  0.67008  0.15990  0.18572  1.0000
  C   C380      1.0  0.64297  0.19900  0.12156  1.0000
  H   H609      1.0  0.61398  0.22001  0.13907  1.0000
  C   C381      1.0  0.58830  0.18856  0.03684  1.0000
  H   H610      1.0  0.58295  0.19111  0.13642  1.0000
  N   N38       1.0  0.76865  0.19934  0.12260  1.0000
  C   C382      1.0  0.75468  0.21431  0.11578  1.0000
  C   C383      1.0  0.77824  0.19081  0.10354  1.0000
  C   C384      1.0  0.79105  0.21643  0.13627  1.0000
  H   H611      1.0  0.74689  0.22091  0.12965  1.0000
  H   H612      1.0  0.65499  0.21726  0.13094  1.0000
  H   H613      1.0  0.61603  0.14687  0.03676  1.0000
  H   H614      1.0  0.62994  0.19526  0.16289  1.0000
  C   C385      1.0  0.75059  0.17592  0.13477  1.0000
  H   H615      1.0  0.78442  0.22323  0.15076  1.0000
  N   N39       1.0  0.61641  0.18447  0.13050  1.0000
  H   H616      1.0  0.62826  0.16453  0.15384  1.0000
  C   C386      1.0  0.60307  0.20139  0.12975  1.0000
  C   C387      1.0  0.60142  0.16017  0.11774  1.0000
  C   C388      1.0  0.61833  0.17740  0.15286  1.0000
  C   C389      1.0  0.80038  0.25504  0.03877  1.0000
  H   H617      1.0  0.76183  0.17803  0.09277  1.0000
  H   H618      1.0  0.76753  0.23200  0.10630  1.0000
  C   C390      1.0  0.60283  0.15492  0.03263  1.0000
  H   H619      1.0  0.59869  0.16655  0.16028  1.0000
  S   S155      1.0  0.65255  0.26396  0.24957  1.0000
  H   H620      1.0  0.60137  0.20691  0.11298  1.0000
  H   H621      1.0  0.80496  0.23432  0.12754  1.0000
  H   H622      1.0  0.73787  0.20194  0.10536  1.0000
  H   H623      1.0  0.79155  0.20801  0.09378  1.0000
  H   H624      1.0  0.81081  0.25520  0.05316  1.0000
  S   S156      1.0  0.65136  0.20650  0.25986  1.0000
  H   H625      1.0  0.60561  0.03645  0.03702  1.0000
  C   C391      1.0  0.58296  0.14187  0.01750  1.0000
  C   C392      1.0  0.63841  0.02255  0.08578  1.0000
  H   H626      1.0  0.64803  0.01879  0.09919  1.0000
  C   C393      1.0  0.52744  0.23160  0.26063  1.0000
  H   H627      1.0  0.52987  0.19487  0.26043  1.0000
  C   C394      1.0  0.56580  0.15217  0.01190  1.0000
  Fe  Fe79      1.0  0.67349  0.22588  0.29013  1.0000
  S   S157      1.0  0.68942  0.20709  0.31437  1.0000
  S   S158      1.0  0.64720  0.24382  0.29926  1.0000
  Fe  Fe80      1.0  0.67392  0.18059  0.44152  1.0000
  S   S159      1.0  0.69944  0.16006  0.44184  1.0000
  S   S160      1.0  0.66303  0.19949  0.41378  1.0000
  Fe  Fe81      1.0  0.65823  0.16679  0.48833  1.0000
  S   S161      1.0  0.68168  0.14438  0.49132  1.0000
  Fe  Fe82      1.0  0.62742  0.22770  0.26789  1.0000
  Fe  Fe83      1.0  0.71296  0.17952  0.47440  1.0000
  S   S162      1.0  0.75388  0.19764  0.48955  1.0000
  Fe  Fe84      1.0  0.66562  0.12701  0.45897  1.0000
  S   S163      1.0  0.64606  0.08481  0.44479  1.0000
  S   S164      1.0  0.68985  0.20229  0.47263  1.0000
  S   S165      1.0  0.63986  0.14718  0.45739  1.0000
  C   C395      1.0  0.63085  0.05281  0.45659  1.0000
  C   C396      1.0  0.61596  0.03065  0.44354  1.0000
  C   C397      1.0  0.63381  0.04871  0.47820  1.0000
  H   H628      1.0  0.61359  0.03347  0.42679  1.0000
  H   H629      1.0  0.64531  0.06544  0.48845  1.0000
  C   C398      1.0  0.56738  0.15556  0.49878  1.0000
  H   H630      1.0  0.74905  0.24694  0.48727  1.0000
  H   H631      1.0  0.60398  0.07737  0.37861  1.0000
  C   C399      1.0  0.77260  0.23011  0.50042  1.0000
  C   C400      1.0  0.62459  0.08858  0.38411  1.0000
  C   C401      1.0  0.56802  0.22814  0.26331  1.0000
  H   H632      1.0  0.59267  0.10576  0.40264  1.0000
  S   S166      1.0  0.58371  0.20773  0.26419  1.0000
  C   C402      1.0  0.65847  0.13005  0.39715  1.0000
  C   C403      1.0  0.68102  0.20372  0.34182  1.0000
  C   C404      1.0  0.69526  0.19630  0.35616  1.0000
  C   C405      1.0  0.69017  0.19496  0.37827  1.0000
  C   C406      1.0  0.67061  0.20089  0.38623  1.0000
  C   C407      1.0  0.65628  0.20812  0.37186  1.0000
  C   C408      1.0  0.66129  0.20933  0.34979  1.0000
  H   H633      1.0  0.71062  0.19199  0.35015  1.0000
  H   H634      1.0  0.70162  0.18973  0.38916  1.0000
  H   H635      1.0  0.64102  0.21261  0.37784  1.0000
  H   H636      1.0  0.64988  0.21467  0.33896  1.0000
  N   N40       1.0  0.63097  0.11612  0.38996  1.0000
  H   H637      1.0  0.64071  0.13099  0.35795  1.0000
  S   S167      1.0  0.70264  0.26198  0.27281  1.0000
  C   C409      1.0  0.76593  0.25058  0.49697  1.0000
  C   C410      1.0  0.62263  0.02279  0.48643  1.0000
  C   C411      1.0  0.59347  0.15981  0.49905  1.0000
  H   H638      1.0  0.62569  0.01990  0.50303  1.0000
  H   H639      1.0  0.62715  0.07788  0.39805  1.0000
  H   H640      1.0  0.60235  0.15713  0.48462  1.0000
  C   C412      1.0  0.62731  0.12978  0.37126  1.0000
  H   H641      1.0  0.60691  0.11953  0.36510  1.0000
  H   H642      1.0  0.63140  0.15039  0.37545  1.0000
  C   C413      1.0  0.61361  0.11614  0.40743  1.0000
  H   H643      1.0  0.61597  0.10611  0.42185  1.0000
  H   H644      1.0  0.61802  0.13669  0.41229  1.0000
  H   H645      1.0  0.67235  0.13230  0.38398  1.0000
  H   H646      1.0  0.66329  0.15008  0.40344  1.0000
  H   H647      1.0  0.66242  0.11929  0.41024  1.0000
  H   H648      1.0  0.63756  0.08788  0.37114  1.0000
  H   H649      1.0  0.55626  0.14952  0.48409  1.0000
  H   H650      1.0  0.73260  0.25673  0.32845  1.0000
  H   H651      1.0  0.71133  0.25217  0.36335  1.0000
  H   H652      1.0  0.52375  0.20585  0.50099  1.0000
  H   H653      1.0  0.69018  0.25717  0.32999  1.0000
  C   C414      1.0  0.58199  0.25579  0.26449  1.0000
  H   H654      1.0  0.54663  0.01947  0.50243  1.0000
  H   H655      1.0  0.60303  0.26519  0.26612  1.0000
  C   C415      1.0  0.54124  0.25917  0.26186  1.0000
  H   H656      1.0  0.51916  0.21297  0.46227  1.0000
  C   C416      1.0  0.54076  0.21618  0.26131  1.0000
  H   H657      1.0  0.75068  0.19889  0.53900  1.0000
  H   H658      1.0  0.57218  0.22325  0.65442  1.0000
  S   S168      1.0  0.58008  0.24889  0.74198  1.0000
  Fe  Fe85      1.0  0.54186  0.21190  0.74385  1.0000
  H   H659      1.0  0.68783  0.15682  0.56633  1.0000
  S   S169      1.0  0.64057  0.17268  0.51890  1.0000
  H   H660      1.0  0.67161  0.17577  0.55776  1.0000
  C   C417      1.0  0.72158  0.20885  0.56808  1.0000
  H   H661      1.0  0.56121  0.16965  0.55079  1.0000
  H   H662      1.0  0.74095  0.22615  0.56520  1.0000
  H   H663      1.0  0.72474  0.16957  0.52799  1.0000
  S   S170      1.0  0.53895  0.20404  0.61768  1.0000
  C   C418      1.0  0.70931  0.20751  0.53116  1.0000
  H   H664      1.0  0.72388  0.19774  0.58176  1.0000
  H   H665      1.0  0.80028  0.21983  0.51573  1.0000
  H   H666      1.0  0.69412  0.21406  0.53472  1.0000
  C   C419      1.0  0.55236  0.21181  0.66006  1.0000
  H   H667      1.0  0.60731  0.17704  0.55135  1.0000
  H   H668      1.0  0.54360  0.25515  0.69236  1.0000
  C   C420      1.0  0.68652  0.16918  0.55321  1.0000
  C   C421      1.0  0.59620  0.17104  0.53665  1.0000
  C   C422      1.0  0.55566  0.15904  0.51742  1.0000
  H   H669      1.0  0.56352  0.21708  0.69341  1.0000
  H   H670      1.0  0.72801  0.22534  0.52786  1.0000
  C   C423      1.0  0.53182  0.20022  0.64523  1.0000
  C   C424      1.0  0.57012  0.16686  0.53637  1.0000
  N   N41       1.0  0.71214  0.19193  0.54879  1.0000
  C   C425      1.0  0.54751  0.20835  0.68214  1.0000
  C   C426      1.0  0.73118  0.18224  0.54264  1.0000
  H   H671      1.0  0.67872  0.15625  0.53883  1.0000
  H   H672      1.0  0.70771  0.21663  0.57300  1.0000
  C   C427      1.0  0.60792  0.16749  0.51801  1.0000
  H   H673      1.0  0.73387  0.17037  0.55550  1.0000
  H   H674      1.0  0.52468  0.11934  0.63994  1.0000
  H   H675      1.0  0.70330  0.19566  0.51615  1.0000
  C   C428      1.0  0.81007  0.26077  0.52207  1.0000
  C   C429      1.0  0.79478  0.23542  0.51303  1.0000
  S   S171      1.0  0.52294  0.15350  0.51647  1.0000
  C   C430      1.0  0.52205  0.19307  0.68950  1.0000
  H   H676      1.0  0.82715  0.26451  0.53155  1.0000
  H   H677      1.0  0.53663  0.24932  0.72019  1.0000
  C   C431      1.0  0.53785  0.26263  0.70691  1.0000
  H   H678      1.0  0.63717  0.26678  0.74305  1.0000
  Fe  Fe86      1.0  0.53858  0.21608  0.79305  1.0000
  H   H679      1.0  0.76390  0.25385  0.98670  1.0000
  S   S172      1.0  0.52229  0.19410  0.97840  1.0000
  H   H680      1.0  0.54444  0.23805  0.84523  1.0000
  H   H681      1.0  0.57878  0.15789  0.81878  1.0000
  S   S173      1.0  0.62977  0.23549  0.78106  1.0000
  H   H682      1.0  0.58094  0.19236  0.87038  1.0000
  C   C432      1.0  0.68269  0.26679  0.77763  1.0000
  H   H683      1.0  0.60395  0.23115  0.82107  1.0000
  H   H684      1.0  0.54881  0.24581  0.88446  1.0000
  H   H685      1.0  0.55877  0.17419  0.81449  1.0000
  H   H686      1.0  0.62614  0.21018  0.85475  1.0000
  H   H687      1.0  0.61771  0.17859  0.84240  1.0000
  H   H688      1.0  0.57083  0.21746  0.83015  1.0000
  N   N42       1.0  0.59019  0.19385  0.83691  1.0000
  C   C433      1.0  0.57373  0.18036  0.85548  1.0000
  C   C434      1.0  0.57922  0.17758  0.81747  1.0000
  C   C435      1.0  0.61718  0.19776  0.84032  1.0000
  C   C436      1.0  0.59059  0.21981  0.83421  1.0000
  H   H689      1.0  0.52803  0.08050  0.99348  1.0000
  H   H690      1.0  0.57321  0.16082  0.85821  1.0000
  H   H691      1.0  0.59099  0.18739  0.80309  1.0000
  S   S174      1.0  0.55501  0.19569  0.77129  1.0000
  H   H692      1.0  0.68427  0.25730  0.79205  1.0000
  H   H693      1.0  0.62993  0.20786  0.82642  1.0000
  Fe  Fe87      1.0  0.59142  0.23454  0.77164  1.0000
  S   S175      1.0  0.57566  0.25424  0.79476  1.0000
  H   H694      1.0  0.59718  0.23213  0.84899  1.0000
  H   H695      1.0  0.55316  0.17681  0.85308  1.0000
  H   H696      1.0  0.54894  0.24819  0.95646  1.0000
  C   C437      1.0  0.52164  0.20577  0.89246  1.0000
  H   H697      1.0  0.54401  0.25283  0.98421  1.0000
  S   S176      1.0  0.54121  0.13513  0.99283  1.0000
  S   S177      1.0  0.52534  0.21230  0.92026  1.0000
  C   C438      1.0  0.53358  0.22198  0.85600  1.0000
  C   C439      1.0  0.53594  0.22635  0.87824  1.0000
  C   C440      1.0  0.65797  0.25983  0.76875  1.0000
  S   S178      1.0  0.52251  0.22934  0.76557  1.0000
  Fe  Fe88      1.0  0.56135  0.26557  0.76510  1.0000
  C   C441      1.0  0.54719  0.26218  0.96821  1.0000
  H   H698      1.0  0.58102  0.12383  0.01002  1.0000
  C   C442      1.0  0.77420  0.25446  0.00129  1.0000
  H   H699      1.0  0.53215  0.26731  0.92877  1.0000
  Fe  Fe89      1.0  0.55482  0.37224  0.24215  1.0000
  H   H700      1.0  0.62237  0.45034  0.10201  1.0000
  H   H701      1.0  0.71016  0.31806  0.24849  1.0000
  C   C443      1.0  0.69456  0.40372  0.26010  1.0000
  S   S179      1.0  0.56992  0.34316  0.23395  1.0000
  H   H702      1.0  0.56128  0.44234  0.12942  1.0000
  C   C444      1.0  0.77641  0.34727  0.02594  1.0000
  S   S180      1.0  0.78872  0.45305  0.24750  1.0000
  H   H703      1.0  0.76523  0.35646  0.01809  1.0000
  S   S181      1.0  0.64310  0.37106  0.25246  1.0000
  S   S182      1.0  0.55482  0.44305  0.05587  1.0000
  H   H704      1.0  0.67939  0.33725  0.25065  1.0000
  H   H705      1.0  0.72702  0.36734  0.25009  1.0000
  Fe  Fe90      1.0  0.82773  0.48828  0.24216  1.0000
  C   C445      1.0  0.57070  0.45374  0.03111  1.0000
  H   H706      1.0  0.57189  0.41088  0.08027  1.0000
  H   H707      1.0  0.68725  0.46812  0.25819  1.0000
  C   C446      1.0  0.88402  0.46755  0.04150  1.0000
  H   H708      1.0  0.59809  0.45774  0.09008  1.0000
  S   S183      1.0  0.85205  0.49443  0.21204  1.0000
  C   C447      1.0  0.54270  0.36264  0.18194  1.0000
  H   H709      1.0  0.87961  0.41103  0.01825  1.0000
  C   C448      1.0  0.53728  0.35363  0.16065  1.0000
  C   C449      1.0  0.59103  0.41766  0.13221  1.0000
  C   C450      1.0  0.70445  0.34249  0.20064  1.0000
  H   H710      1.0  0.55502  0.35733  0.19171  1.0000
  C   C451      1.0  0.81159  0.33532  0.02293  1.0000
  H   H711      1.0  0.54228  0.40875  0.12069  1.0000
  H   H712      1.0  0.55264  0.43509  0.10177  1.0000
  H   H713      1.0  0.66356  0.31795  0.22747  1.0000
  C   C452      1.0  0.87910  0.42977  0.01968  1.0000
  H   H714      1.0  0.59589  0.40305  0.09209  1.0000
  S   S184      1.0  0.52355  0.27765  0.26097  1.0000
  C   C453      1.0  0.60377  0.45138  0.10517  1.0000
  H   H715      1.0  0.57563  0.39823  0.13780  1.0000
  C   C454      1.0  0.85385  0.51328  0.18915  1.0000
  H   H716      1.0  0.59452  0.43224  0.14535  1.0000
  C   C455      1.0  0.68928  0.45012  0.25879  1.0000
  H   H717      1.0  0.78487  0.35852  0.04098  1.0000
  C   C456      1.0  0.55874  0.42809  0.11624  1.0000
  S   S185      1.0  0.89169  0.48420  0.06627  1.0000
  H   H718      1.0  0.68903  0.32355  0.19399  1.0000
  H   H719      1.0  0.69668  0.30088  0.22392  1.0000
  H   H720      1.0  0.83457  0.28603  0.02377  1.0000
  C   C457      1.0  0.71101  0.32017  0.23084  1.0000
  H   H721      1.0  0.60362  0.48672  0.04547  1.0000
  N   N43       1.0  0.70519  0.34183  0.22420  1.0000
  H   H722      1.0  0.60928  0.41569  0.12990  1.0000
  C   C458      1.0  0.87754  0.47823  0.02384  1.0000
  H   H723      1.0  0.73076  0.32348  0.22551  1.0000
  N   N44       1.0  0.58294  0.42566  0.11230  1.0000
  C   C459      1.0  0.88469  0.44325  0.03940  1.0000
  H   H724      1.0  0.56232  0.38581  0.10026  1.0000
  H   H725      1.0  0.87671  0.49680  0.02539  1.0000
  H   H726      1.0  0.74540  0.37153  0.22608  1.0000
  H   H727      1.0  0.60779  0.46717  0.11735  1.0000
  H   H728      1.0  0.82142  0.34670  0.03759  1.0000
  S   S186      1.0  0.53716  0.38884  0.21763  1.0000
  C   C460      1.0  0.57808  0.40547  0.09551  1.0000
  C   C461      1.0  0.55968  0.44051  0.01196  1.0000
  C   C462      1.0  0.67951  0.33729  0.23286  1.0000
  C   C463      1.0  0.72576  0.36731  0.23239  1.0000
  H   H729      1.0  0.79840  0.31463  0.02770  1.0000
  H   H730      1.0  0.70017  0.35868  0.19510  1.0000
  H   H731      1.0  0.88957  0.43489  0.05309  1.0000
  H   H732      1.0  0.82453  0.38723  0.02033  1.0000
  C   C464      1.0  0.66994  0.40230  0.25625  1.0000
  C   C465      1.0  0.59495  0.47642  0.03072  1.0000
  H   H733      1.0  0.72346  0.34567  0.19356  1.0000
  H   H734      1.0  0.54525  0.34107  0.15422  1.0000
  H   H735      1.0  0.72180  0.38408  0.22794  1.0000
  H   H736      1.0  0.87834  0.49969  0.17229  1.0000
  C   C466      1.0  0.52167  0.36077  0.14764  1.0000
  C   C467      1.0  0.66726  0.42552  0.25566  1.0000
  H   H737      1.0  0.67420  0.35295  0.22781  1.0000
  H   H738      1.0  0.53050  0.30946  0.19483  1.0000
  C   C468      1.0  0.81397  0.27261  0.02209  1.0000
  H   H739      1.0  0.64833  0.42461  0.25260  1.0000
  S   S187      1.0  0.52105  0.36651  0.06329  1.0000
  Fe  Fe91      1.0  0.60224  0.36630  0.25717  1.0000
  S   S188      1.0  0.81781  0.51699  0.26010  1.0000
  H   H740      1.0  0.95346  0.47550  0.02286  1.0000
  C   C469      1.0  0.53218  0.37852  0.19054  1.0000
  H   H741      1.0  0.52553  0.28664  0.21594  1.0000
  C   C470      1.0  0.86907  0.51254  0.17179  1.0000
  H   H742      1.0  0.54097  0.42302  0.01212  1.0000
  H   H743      1.0  0.76222  0.32674  0.03037  1.0000
  H   H744      1.0  0.69654  0.38577  0.26110  1.0000
  H   H745      1.0  0.82696  0.33452  0.01252  1.0000
  H   H746      1.0  0.94465  0.43024  0.01271  1.0000
  Fe  Fe92      1.0  0.51812  0.40429  0.05963  1.0000
  C   C471      1.0  0.60821  0.48582  0.01137  1.0000
  H   H747      1.0  0.62699  0.50311  0.01137  1.0000
  N   N45       1.0  0.79705  0.34732  0.01175  1.0000
  H   H748      1.0  0.66502  0.43893  0.48696  1.0000
  S   S189      1.0  0.58116  0.34206  0.28545  1.0000
  C   C472      1.0  0.54862  0.37933  0.34461  1.0000
  Fe  Fe93      1.0  0.56583  0.37168  0.29032  1.0000
  S   S190      1.0  0.53294  0.37332  0.45533  1.0000
  N   N46       1.0  0.72554  0.28687  0.34391  1.0000
  S   S191      1.0  0.79423  0.47247  0.29851  1.0000
  C   C473      1.0  0.72409  0.37036  0.29507  1.0000
  Fe  Fe94      1.0  0.67481  0.27857  0.28018  1.0000
  H   H749      1.0  0.57468  0.40890  0.36668  1.0000
  H   H750      1.0  0.80383  0.34332  0.50139  1.0000
  S   S192      1.0  0.68557  0.31960  0.29288  1.0000
  S   S193      1.0  0.53017  0.34912  0.26991  1.0000
  S   S194      1.0  0.56716  0.44943  0.47067  1.0000
  C   C474      1.0  0.56860  0.27132  0.26367  1.0000
  H   H751      1.0  0.68688  0.28417  0.34228  1.0000
  H   H752      1.0  0.75790  0.32272  0.35502  1.0000
  H   H753      1.0  0.73939  0.27993  0.37395  1.0000
  H   H754      1.0  0.91550  0.45087  0.49857  1.0000
  H   H755      1.0  0.57945  0.29261  0.26453  1.0000
  H   H756      1.0  0.84959  0.42696  0.50676  1.0000
  H   H757      1.0  0.81500  0.41310  0.50321  1.0000
  S   S195      1.0  0.80276  0.40830  0.28891  1.0000
  C   C475      1.0  0.72084  0.27406  0.36500  1.0000
  C   C476      1.0  0.77024  0.38364  0.28992  1.0000
  C   C477      1.0  0.71830  0.34383  0.29185  1.0000
  H   H758      1.0  0.85172  0.36239  0.50485  1.0000
  C   C478      1.0  0.74212  0.27860  0.33086  1.0000
  H   H759      1.0  0.80726  0.36364  0.47868  1.0000
  C   C479      1.0  0.70032  0.27884  0.33289  1.0000
  H   H760      1.0  0.78026  0.35192  0.28413  1.0000
  C   C480      1.0  0.76456  0.35706  0.28718  1.0000
  H   H761      1.0  0.85557  0.38263  0.48197  1.0000
  H   H762      1.0  0.74252  0.32610  0.33111  1.0000
  S   S196      1.0  0.89927  0.48705  0.48105  1.0000
  Fe  Fe95      1.0  0.83291  0.50587  0.28946  1.0000
  C   C481      1.0  0.71399  0.45152  0.26239  1.0000
  S   S197      1.0  0.57147  0.39094  0.32330  1.0000
  C   C482      1.0  0.80617  0.36306  0.49641  1.0000
  C   C483      1.0  0.74996  0.39029  0.29374  1.0000
  C   C484      1.0  0.66697  0.45928  0.48587  1.0000
  C   C485      1.0  0.55559  0.39221  0.36459  1.0000
  C   C486      1.0  0.57883  0.46005  0.49673  1.0000
  Fe  Fe96      1.0  0.80596  0.44724  0.27787  1.0000
  Fe  Fe97      1.0  0.77994  0.48107  0.26760  1.0000
  H   H763      1.0  0.54364  0.39389  0.39717  1.0000
  H   H764      1.0  0.70311  0.28842  0.31708  1.0000
  S   S198      1.0  0.74142  0.48242  0.26598  1.0000
  C   C487      1.0  0.85307  0.38164  0.49960  1.0000
  C   C488      1.0  0.71653  0.42822  0.26319  1.0000
  C   C489      1.0  0.73857  0.33719  0.28782  1.0000
  S   S199      1.0  0.84571  0.47982  0.27103  1.0000
  N   N47       1.0  0.66686  0.47048  0.50726  1.0000
  H   H765      1.0  0.70848  0.37558  0.29818  1.0000
  H   H766      1.0  0.76140  0.28433  0.33857  1.0000
  H   H767      1.0  0.73431  0.31681  0.28530  1.0000
  H   H768      1.0  0.82921  0.41181  0.33275  1.0000
  H   H769      1.0  0.65041  0.45813  0.47590  1.0000
  C   C490      1.0  0.53801  0.38376  0.38191  1.0000
  H   H770      1.0  0.73540  0.42909  0.26632  1.0000
  N   N48       1.0  0.64524  0.39115  0.32289  1.0000
  C   C491      1.0  0.66775  0.40858  0.33632  1.0000
  C   C492      1.0  0.65222  0.37320  0.31017  1.0000
  C   C493      1.0  0.63853  0.40753  0.30841  1.0000
  C   C494      1.0  0.62254  0.37545  0.33663  1.0000
  H   H771      1.0  0.66315  0.42253  0.34595  1.0000
  H   H772      1.0  0.68518  0.42067  0.32635  1.0000
  H   H773      1.0  0.67334  0.39696  0.34753  1.0000
  H   H774      1.0  0.63581  0.35989  0.29965  1.0000
  H   H775      1.0  0.66916  0.38442  0.29955  1.0000
  H   H776      1.0  0.65737  0.36042  0.32046  1.0000
  H   H777      1.0  0.62259  0.39506  0.29726  1.0000
  H   H778      1.0  0.65558  0.42068  0.29857  1.0000
  H   H779      1.0  0.63159  0.42018  0.31737  1.0000
  H   H780      1.0  0.60511  0.36234  0.32697  1.0000
  H   H781      1.0  0.61659  0.38837  0.34633  1.0000
  H   H782      1.0  0.62673  0.36270  0.34772  1.0000
  N   N49       1.0  0.83896  0.45025  0.34591  1.0000
  C   C495      1.0  0.85215  0.46636  0.36497  1.0000
  C   C496      1.0  0.83919  0.42439  0.34694  1.0000
  C   C497      1.0  0.85285  0.46415  0.32648  1.0000
  C   C498      1.0  0.81161  0.44607  0.34512  1.0000
  H   H783      1.0  0.68856  0.51098  0.49748  1.0000
  H   H784      1.0  0.84178  0.45701  0.37997  1.0000
  H   H785      1.0  0.85290  0.48624  0.36430  1.0000
  H   H786      1.0  0.72655  0.32270  0.35633  1.0000
  H   H787      1.0  0.85955  0.42680  0.34725  1.0000
  H   H788      1.0  0.82901  0.41339  0.36147  1.0000
  H   H789      1.0  0.85215  0.48325  0.32471  1.0000
  H   H790      1.0  0.84394  0.45216  0.31185  1.0000
  H   H791      1.0  0.87382  0.46859  0.32680  1.0000
  H   H792      1.0  0.80048  0.43563  0.35953  1.0000
  H   H793      1.0  0.80116  0.43415  0.33081  1.0000
  H   H794      1.0  0.81072  0.46519  0.34433  1.0000
  H   H795      1.0  0.87270  0.46956  0.36633  1.0000
  Fe  Fe98      1.0  0.53116  0.41007  0.46685  1.0000
  C   C499      1.0  0.89591  0.47424  0.50691  1.0000
  H   H796      1.0  0.75422  0.41077  0.29590  1.0000
  H   H797      1.0  0.60670  0.49882  0.48654  1.0000
  H   H798      1.0  0.65362  0.49756  0.49500  1.0000
  C   C500      1.0  0.52383  0.35785  0.34210  1.0000
  H   H799      1.0  0.70768  0.27912  0.37504  1.0000
  H   H800      1.0  0.74571  0.28758  0.31471  1.0000
  N   N50       1.0  0.82975  0.38456  0.50616  1.0000
  H   H801      1.0  0.83554  0.41284  0.48148  1.0000
  H   H802      1.0  0.80631  0.50818  0.37474  1.0000
  C   C501      1.0  0.83250  0.41042  0.49903  1.0000
  C   C502      1.0  0.59901  0.48570  0.49999  1.0000
  C   C503      1.0  0.73876  0.31589  0.34676  1.0000
  H   H803      1.0  0.81522  0.51194  0.33581  1.0000
  C   C504      1.0  0.66956  0.49746  0.50498  1.0000
  H   H804      1.0  0.68543  0.47164  0.47716  1.0000
  H   H805      1.0  0.51821  0.34774  0.32683  1.0000
  S   S200      1.0  0.58925  0.39750  0.26314  1.0000
  Fe  Fe99      1.0  0.54783  0.32170  0.26288  1.0000
  H   H806      1.0  0.77609  0.29162  0.50276  1.0000
  C   C505      1.0  0.78138  0.27598  0.50579  1.0000
  H   H807      1.0  0.62484  0.45205  0.50876  1.0000
  H   H808      1.0  0.78814  0.36435  0.50131  1.0000
  H   H809      1.0  0.87123  0.39749  0.50669  1.0000
  C   C506      1.0  0.90507  0.45567  0.51091  1.0000
  Fe  Fe100     1.0  0.67253  0.48343  0.74320  1.0000
  H   H810      1.0  0.80558  0.43843  0.75682  1.0000
  S   S201      1.0  0.68985  0.45522  0.74630  1.0000
  H   H811      1.0  0.91460  0.34887  0.62648  1.0000
  C   C507      1.0  0.78631  0.33011  0.69926  1.0000
  H   H812      1.0  0.58184  0.35940  0.74638  1.0000
  S   S202      1.0  0.85709  0.38603  0.71914  1.0000
  C   C508      1.0  0.59404  0.35765  0.75876  1.0000
  C   C509      1.0  0.80359  0.28133  0.51837  1.0000
  Fe  Fe101     1.0  0.85626  0.33586  0.55248  1.0000
  S   S203      1.0  0.84505  0.35555  0.57920  1.0000
  H   H813      1.0  0.74478  0.50191  0.61982  1.0000
  Fe  Fe102     1.0  0.91488  0.36420  0.56703  1.0000
  S   S204      1.0  0.90683  0.38533  0.59442  1.0000
  S   S205      1.0  0.95493  0.36522  0.56170  1.0000
  Fe  Fe103     1.0  0.87141  0.34671  0.60036  1.0000
  S   S206      1.0  0.85870  0.32684  0.63260  1.0000
  Fe  Fe104     1.0  0.88124  0.39242  0.57089  1.0000
  S   S207      1.0  0.87786  0.43052  0.57038  1.0000
  S   S208      1.0  0.88057  0.32449  0.57431  1.0000
  S   S209      1.0  0.89133  0.37376  0.54290  1.0000
  H   H814      1.0  0.57150  0.43869  0.54808  1.0000
  H   H815      1.0  0.62895  0.51792  0.74186  1.0000
  H   H816      1.0  0.90778  0.42883  0.53363  1.0000
  H   H817      1.0  0.95120  0.33990  0.65721  1.0000
  H   H818      1.0  0.68819  0.37154  0.74034  1.0000
  S   S210      1.0  0.82272  0.31421  0.52830  1.0000
  C   C510      1.0  0.98975  0.38471  0.56232  1.0000
  H   H819      1.0  0.72493  0.51720  0.61162  1.0000
  C   C511      1.0  0.00471  0.37169  0.55721  1.0000
  C   C512      1.0  0.65609  0.27212  0.75008  1.0000
  H   H820      1.0  0.99499  0.35094  0.55284  1.0000
  H   H821      1.0  0.75295  0.30268  0.66813  1.0000
  C   C513      1.0  0.88649  0.44856  0.54650  1.0000
  C   C514      1.0  0.90051  0.44299  0.53068  1.0000
  H   H822      1.0  0.73311  0.37600  0.74355  1.0000
  H   H823      1.0  0.73667  0.31416  0.68701  1.0000
  C   C515      1.0  0.67880  0.29094  0.74016  1.0000
  H   H824      1.0  0.76031  0.35885  0.70313  1.0000
  C   C516      1.0  0.85841  0.36928  0.69548  1.0000
  C   C517      1.0  0.84833  0.34178  0.69457  1.0000
  C   C518      1.0  0.84875  0.32912  0.67522  1.0000
  C   C519      1.0  0.85924  0.34379  0.65661  1.0000
  C   C520      1.0  0.86971  0.37132  0.65757  1.0000
  C   C521      1.0  0.86950  0.38400  0.67699  1.0000
  H   H825      1.0  0.84034  0.33027  0.70882  1.0000
  H   H826      1.0  0.84090  0.30783  0.67468  1.0000
  H   H827      1.0  0.87792  0.38286  0.64338  1.0000
  H   H828      1.0  0.87755  0.40532  0.67759  1.0000
  H   H829      1.0  0.64094  0.46184  0.53419  1.0000
  H   H830      1.0  0.52185  0.29584  0.72579  1.0000
  H   H831      1.0  0.66895  0.50617  0.52081  1.0000
  H   H832      1.0  0.65547  0.51758  0.75624  1.0000
  C   C522      1.0  0.68896  0.47164  0.52004  1.0000
  C   C523      1.0  0.79637  0.34914  0.66410  1.0000
  H   H833      1.0  0.99173  0.42216  0.57195  1.0000
  C   C524      1.0  0.78702  0.46398  0.75521  1.0000
  H   H834      1.0  0.79154  0.46850  0.73851  1.0000
  C   C525      1.0  0.92945  0.34311  0.62017  1.0000
  C   C526      1.0  0.57914  0.45193  0.53470  1.0000
  H   H835      1.0  0.97041  0.33251  0.62376  1.0000
  S   S211      1.0  0.61260  0.48717  0.56375  1.0000
  H   H836      1.0  0.84516  0.39842  0.53753  1.0000
  H   H837      1.0  0.96237  0.38977  0.60359  1.0000
  H   H838      1.0  0.81568  0.36498  0.66942  1.0000
  C   C527      1.0  0.87796  0.46771  0.54276  1.0000
  C   C528      1.0  0.82732  0.38312  0.52966  1.0000
  H   H839      1.0  0.94922  0.39545  0.62802  1.0000
  H   H840      1.0  0.99532  0.36640  0.62421  1.0000
  C   C529      1.0  0.59952  0.47744  0.53792  1.0000
  C   C530      1.0  0.88268  0.48059  0.52297  1.0000
  Fe  Fe105     1.0  0.76946  0.33924  0.75493  1.0000
  H   H841      1.0  0.80423  0.34566  0.70688  1.0000
  S   S212      1.0  0.56224  0.30423  0.75605  1.0000
  H   H842      1.0  0.79971  0.33238  0.65813  1.0000
  C   C531      1.0  0.60940  0.49434  0.52051  1.0000
  C   C532      1.0  0.64196  0.45367  0.51815  1.0000
  N   N51       1.0  0.77715  0.34101  0.68172  1.0000
  H   H843      1.0  0.86721  0.47219  0.55501  1.0000
  S   S213      1.0  0.79573  0.38100  0.74567  1.0000
  S   S214      1.0  0.73137  0.32251  0.73665  1.0000
  H   H844      1.0  0.79351  0.38001  0.69564  1.0000
  H   H845      1.0  0.68757  0.45166  0.52229  1.0000
  S   S215      1.0  0.70659  0.51782  0.75816  1.0000
  H   H846      1.0  0.63938  0.43324  0.52046  1.0000
  H   H847      1.0  0.87554  0.49489  0.51997  1.0000
  H   H848      1.0  0.74397  0.32799  0.66069  1.0000
  H   H849      1.0  0.79082  0.31402  0.69355  1.0000
  H   H850      1.0  0.98310  0.40257  0.62652  1.0000
  H   H851      1.0  0.67719  0.30017  0.72560  1.0000
  H   H852      1.0  0.77138  0.32172  0.71202  1.0000
  H   H853      1.0  0.78991  0.35695  0.65035  1.0000
  H   H854      1.0  0.55395  0.28257  0.71088  1.0000
  H   H855      1.0  0.68956  0.48044  0.53615  1.0000
  H   H856      1.0  0.76744  0.37294  0.67691  1.0000
  C   C533      1.0  0.00293  0.41172  0.56801  1.0000
  C   C534      1.0  0.70349  0.29801  0.74910  1.0000
  H   H857      1.0  0.74372  0.40990  0.75153  1.0000
  H   H858      1.0  0.63404  0.49527  0.67267  1.0000
  C   C535      1.0  0.96298  0.38845  0.62129  1.0000
  N   N52       1.0  0.95597  0.36118  0.62801  1.0000
  H   H859      1.0  0.97485  0.35324  0.60118  1.0000
  H   H860      1.0  0.62495  0.51405  0.52277  1.0000
  S   S216      1.0  0.65214  0.48855  0.71376  1.0000
  C   C536      1.0  0.97499  0.35296  0.61897  1.0000
  H   H861      1.0  0.92329  0.32236  0.62510  1.0000
  C   C537      1.0  0.95638  0.36020  0.65158  1.0000
  H   H862      1.0  0.53034  0.30003  0.68710  1.0000
  H   H863      1.0  0.92849  0.34315  0.60243  1.0000
  C   C538      1.0  0.77444  0.36423  0.68966  1.0000
  H   H864      1.0  0.94199  0.36609  0.65880  1.0000
  C   C539      1.0  0.75154  0.32056  0.67398  1.0000
  Fe  Fe106     1.0  0.82796  0.36894  0.74644  1.0000
  H   H865      1.0  0.52850  0.29828  0.53260  1.0000
  H   H866      1.0  0.97604  0.37375  0.65810  1.0000
  S   S217      1.0  0.80111  0.32628  0.75370  1.0000
  C   C540      1.0  0.65509  0.50687  0.67285  1.0000
  H   H867      1.0  0.82457  0.36369  0.53564  1.0000
  H   H868      1.0  0.81049  0.38613  0.53534  1.0000
  H   H869      1.0  0.57459  0.51585  0.52697  1.0000
  C   C541      1.0  0.66929  0.50671  0.69106  1.0000
  H   H870      1.0  0.69850  0.40481  0.74993  1.0000
  S   S218      1.0  0.76263  0.49563  0.75323  1.0000
  C   C542      1.0  0.56895  0.44319  0.51415  1.0000
  H   H871      1.0  0.76114  0.50539  0.58259  1.0000
  C   C543      1.0  0.69180  0.38399  0.75497  1.0000
  C   C544      1.0  0.73582  0.38931  0.75750  1.0000
  H   H872      1.0  0.51861  0.27103  0.67034  1.0000
  H   H873      1.0  0.55378  0.42324  0.51178  1.0000
  H   H874      1.0  0.61904  0.39979  0.76115  1.0000
  H   H875      1.0  0.70807  0.48423  0.51228  1.0000
  H   H876      1.0  0.80529  0.38440  0.99698  1.0000
  S   S219      1.0  0.70509  0.47770  0.79614  1.0000
  C   C545      1.0  0.83066  0.40053  0.83920  1.0000
  H   H877      1.0  0.77260  0.33942  0.98388  1.0000
  C   C546      1.0  0.52366  0.28642  0.97869  1.0000
  C   C547      1.0  0.71589  0.39907  0.78803  1.0000
  H   H878      1.0  0.65100  0.44193  0.92189  1.0000
  C   C548      1.0  0.78941  0.44145  0.78720  1.0000
  S   S220      1.0  0.77398  0.34835  0.78986  1.0000
  S   S221      1.0  0.79860  0.41999  0.80059  1.0000
  Fe  Fe107     1.0  0.80825  0.33942  0.78844  1.0000
  S   S222      1.0  0.80998  0.31544  0.81665  1.0000
  H   H879      1.0  0.96056  0.50024  0.00276  1.0000
  H   H880      1.0  0.66413  0.48554  0.87431  1.0000
  Fe  Fe108     1.0  0.87485  0.39026  0.97021  1.0000
  S   S223      1.0  0.88162  0.36428  0.99345  1.0000
  S   S224      1.0  0.86699  0.42514  0.97674  1.0000
  Fe  Fe109     1.0  0.88091  0.36093  0.93088  1.0000
  S   S225      1.0  0.88854  0.33250  0.95118  1.0000
  S   S226      1.0  0.88647  0.36979  0.89532  1.0000
  Fe  Fe110     1.0  0.85514  0.33037  0.97208  1.0000
  S   S227      1.0  0.81693  0.29368  0.98122  1.0000
  Fe  Fe111     1.0  0.91446  0.36856  0.97102  1.0000
  S   S228      1.0  0.95518  0.37990  0.98499  1.0000
  S   S229      1.0  0.84636  0.35679  0.95017  1.0000
  S   S230      1.0  0.90888  0.39667  0.94949  1.0000
  C   C549      1.0  0.98730  0.41489  0.95420  1.0000
  H   H881      1.0  0.81390  0.40764  0.89006  1.0000
  C   C550      1.0  0.00859  0.41205  0.98654  1.0000
  H   H882      1.0  0.63726  0.35153  0.80357  1.0000
  H   H883      1.0  0.69799  0.39286  0.79794  1.0000
  C   C551      1.0  0.98556  0.40384  0.97437  1.0000
  C   C552      1.0  0.01179  0.43340  0.94619  1.0000
  C   C553      1.0  0.94910  0.47882  0.00617  1.0000
  H   H884      1.0  0.92803  0.47403  0.00561  1.0000
  N   N53       1.0  0.95508  0.46244  0.99075  1.0000
  C   C554      1.0  0.59718  0.47281  0.99218  1.0000
  C   C555      1.0  0.98334  0.46990  0.99143  1.0000
  S   S231      1.0  0.83767  0.38108  0.78113  1.0000
  H   H885      1.0  0.82133  0.38654  0.82566  1.0000
  H   H886      1.0  0.55239  0.51351  0.97860  1.0000
  N   N54       1.0  0.81292  0.39396  0.85777  1.0000
  C   C556      1.0  0.76755  0.46938  0.78805  1.0000
  C   C557      1.0  0.83201  0.32990  0.83820  1.0000
  C   C558      1.0  0.85451  0.35395  0.83597  1.0000
  C   C559      1.0  0.87122  0.36546  0.85356  1.0000
  C   C560      1.0  0.86544  0.35330  0.87364  1.0000
  C   C561      1.0  0.84308  0.32907  0.87586  1.0000
  C   C562      1.0  0.82657  0.31730  0.85813  1.0000
  H   H887      1.0  0.85919  0.36358  0.82064  1.0000
  H   H888      1.0  0.88866  0.38402  0.85163  1.0000
  H   H889      1.0  0.83856  0.31937  0.89118  1.0000
  H   H890      1.0  0.80933  0.29854  0.85993  1.0000
  C   C563      1.0  0.57286  0.45013  0.99252  1.0000
  C   C564      1.0  0.82668  0.41198  0.87575  1.0000
  H   H891      1.0  0.60084  0.31132  0.78833  1.0000
  H   H892      1.0  0.75106  0.38841  0.76794  1.0000
  C   C565      1.0  0.61504  0.38051  0.76711  1.0000
  H   H893      1.0  0.83318  0.43299  0.87139  1.0000
  H   H894      1.0  0.82204  0.36391  0.86965  1.0000
  H   H895      1.0  0.79590  0.35228  0.85056  1.0000
  H   H896      1.0  0.92636  0.46043  0.96783  1.0000
  H   H897      1.0  0.84909  0.39965  0.84324  1.0000
  H   H898      1.0  0.84442  0.41002  0.88054  1.0000
  C   C566      1.0  0.77606  0.45297  0.79850  1.0000
  H   H899      1.0  0.75725  0.47821  0.79686  1.0000
  Fe  Fe112     1.0  0.80289  0.38914  0.78059  1.0000
  H   H900      1.0  0.67268  0.37761  0.76310  1.0000
  C   C567      1.0  0.63048  0.37832  0.78342  1.0000
  H   H901      1.0  0.77200  0.44900  0.81531  1.0000
  S   S232      1.0  0.61278  0.48517  0.96753  1.0000
  N   N55       1.0  0.64579  0.47188  0.90484  1.0000
  C   C568      1.0  0.65093  0.46125  0.92474  1.0000
  C   C569      1.0  0.64496  0.49699  0.90966  1.0000
  C   C570      1.0  0.62041  0.45274  0.89571  1.0000
  C   C571      1.0  0.66689  0.47669  0.88930  1.0000
  H   H902      1.0  0.98840  0.45786  0.97991  1.0000
  C   C572      1.0  0.70076  0.35390  0.77625  1.0000
  H   H903      1.0  0.72196  0.41986  0.78322  1.0000
  C   C573      1.0  0.87296  0.44066  0.00196  1.0000
  H   H904      1.0  0.51991  0.27746  0.99488  1.0000
  H   H905      1.0  0.64092  0.50556  0.89508  1.0000
  S   S233      1.0  0.65016  0.47023  0.77413  1.0000
  H   H906      1.0  0.86703  0.47317  0.99050  1.0000
  H   H907      1.0  0.00754  0.40363  0.00215  1.0000
  H   H908      1.0  0.96986  0.40870  0.94454  1.0000
  H   H909      1.0  0.54916  0.29941  0.94108  1.0000
  H   H910      1.0  0.67031  0.47499  0.93164  1.0000
  C   C574      1.0  0.80494  0.36639  0.86414  1.0000
  C   C575      1.0  0.78948  0.39691  0.85195  1.0000
  H   H911      1.0  0.79064  0.36025  0.87748  1.0000
  H   H912      1.0  0.77901  0.38381  0.83817  1.0000
  H   H913      1.0  0.79479  0.41754  0.84708  1.0000
  H   H914      1.0  0.77548  0.39189  0.86547  1.0000
  H   H915      1.0  0.83610  0.42076  0.83326  1.0000
  H   H916      1.0  0.60411  0.44881  0.90708  1.0000
  S   S234      1.0  0.65682  0.40621  0.79451  1.0000
  H   H917      1.0  0.73155  0.39901  0.79842  1.0000
  H   H918      1.0  0.01285  0.44135  0.93040  1.0000
  H   H919      1.0  0.54199  0.30534  0.97965  1.0000
  N   N56       1.0  0.52556  0.26825  0.96249  1.0000
  H   H920      1.0  0.77255  0.31057  0.99567  1.0000
  Fe  Fe113     1.0  0.68550  0.50318  0.78941  1.0000
  Fe  Fe114     1.0  0.67118  0.44575  0.77865  1.0000
  H   H921      1.0  0.56415  0.43998  0.97773  1.0000
  C   C576      1.0  0.53059  0.28069  0.94125  1.0000
  C   C577      1.0  0.62531  0.35330  0.79098  1.0000
  H   H922      1.0  0.99547  0.49102  0.98731  1.0000
  Fe  Fe115     1.0  0.72250  0.48880  0.76343  1.0000
  H   H923      1.0  0.80004  0.33285  0.98053  1.0000
  H   H924      1.0  0.68639  0.49067  0.89592  1.0000
  H   H925      1.0  0.61604  0.46027  0.88067  1.0000
  H   H926      1.0  0.63593  0.45839  0.93716  1.0000
  H   H927      1.0  0.62030  0.43353  0.89185  1.0000
  H   H928      1.0  0.95846  0.48752  0.96419  1.0000
  C   C578      1.0  0.60469  0.33049  0.78236  1.0000
  H   H929      1.0  0.95215  0.45445  0.95696  1.0000
  C   C579      1.0  0.80100  0.27226  0.00309  1.0000
  C   C580      1.0  0.94773  0.46647  0.96898  1.0000
  H   H930      1.0  0.62961  0.49428  0.92166  1.0000
  H   H931      1.0  0.66780  0.45812  0.88486  1.0000
  C   C581      1.0  0.78494  0.33189  0.99215  1.0000
  H   H932      1.0  0.72440  0.29142  0.77496  1.0000
  C   C582      1.0  0.81528  0.37478  0.00597  1.0000
  H   H933      1.0  0.83135  0.37542  0.99561  1.0000
  H   H934      1.0  0.66395  0.51195  0.91626  1.0000
  C   C583      1.0  0.70542  0.28608  0.76796  1.0000
  N   N57       1.0  0.71107  0.38157  0.76920  1.0000
  C   C584      1.0  0.77305  0.47496  0.76640  1.0000
  H   H935      1.0  0.56630  0.28029  0.96866  1.0000
  C   C585      1.0  0.79489  0.44692  0.76553  1.0000
  H   H936      1.0  0.68238  0.34762  0.78559  1.0000
  H   H937      1.0  0.57439  0.50784  0.99558  1.0000
  H   H938      1.0  0.94442  0.42166  0.98515  1.0000
  C   C586      1.0  0.94001  0.43432  0.99634  1.0000
  H   H939      1.0  0.91862  0.42770  0.99537  1.0000
  H   H940      1.0  0.98941  0.46658  0.00753  1.0000
  C   C587      1.0  0.87198  0.46477  0.00413  1.0000
  H   H941      1.0  0.71518  0.35104  0.78634  1.0000
  C   C588      1.0  0.58883  0.33261  0.76640  1.0000
  H   H942      1.0  0.69609  0.34019  0.76236  1.0000
  C   C589      1.0  0.77163  0.53727  0.03016  1.0000
  Fe  Fe116     1.0  0.88342  0.56022  0.10001  1.0000
  S   S235      1.0  0.89713  0.59342  0.07633  1.0000
  C   C590      1.0  0.91353  0.56340  0.22014  1.0000
  H   H943      1.0  0.86271  0.54565  0.23045  1.0000
  S   S236      1.0  0.90525  0.55380  0.04271  1.0000
  Fe  Fe117     1.0  0.92956  0.58297  0.06809  1.0000
  S   S237      1.0  0.96951  0.61207  0.05467  1.0000
  Fe  Fe118     1.0  0.87208  0.56236  0.05256  1.0000
  H   H944      1.0  0.93793  0.64184  0.03071  1.0000
  S   S238      1.0  0.91806  0.55239  0.09392  1.0000
  H   H945      1.0  0.91547  0.57960  0.20931  1.0000
  C   C591      1.0  0.00070  0.62781  0.06741  1.0000
  C   C592      1.0  0.84122  0.60667  0.09381  1.0000
  H   H946      1.0  0.81053  0.57638  0.12509  1.0000
  S   S239      1.0  0.85173  0.57642  0.02806  1.0000
  H   H947      1.0  0.98654  0.61730  0.09948  1.0000
  C   C593      1.0  0.84196  0.52998  0.18828  1.0000
  C   C594      1.0  0.79822  0.54384  0.03342  1.0000
  H   H948      1.0  0.83678  0.55921  0.16989  1.0000
  C   C595      1.0  0.81779  0.56544  0.02294  1.0000
  H   H949      1.0  0.88427  0.52750  0.14048  1.0000
  H   H950      1.0  0.85255  0.60277  0.10652  1.0000
  C   C596      1.0  0.81685  0.56006  0.08625  1.0000
  H   H951      1.0  0.91526  0.60778  0.03331  1.0000
  H   H952      1.0  0.75667  0.52081  0.03863  1.0000
  H   H953      1.0  0.92278  0.60785  0.24220  1.0000
  H   H954      1.0  0.79818  0.60799  0.07761  1.0000
  H   H955      1.0  0.87802  0.58075  0.22724  1.0000
  C   C597      1.0  0.80064  0.59002  0.07408  1.0000
  Fe  Fe119     1.0  0.89191  0.52398  0.06884  1.0000
  H   H956      1.0  0.88673  0.52373  0.24663  1.0000
  H   H957      1.0  0.90400  0.63009  0.02324  1.0000
  H   H958      1.0  0.82888  0.56272  0.07169  1.0000
  H   H959      1.0  0.81137  0.59334  0.05867  1.0000
  H   H960      1.0  0.80347  0.53212  0.04401  1.0000
  S   S240      1.0  0.86607  0.56651  0.13101  1.0000
  H   H961      1.0  0.78024  0.56383  0.11053  1.0000
  S   S241      1.0  0.85648  0.52968  0.07662  1.0000
  H   H962      1.0  0.78081  0.57327  0.07138  1.0000
  N   N58       1.0  0.81470  0.58439  0.09147  1.0000
  C   C598      1.0  0.86105  0.54536  0.15300  1.0000
  H   H963      1.0  0.84046  0.62536  0.09807  1.0000
  C   C599      1.0  0.84579  0.54614  0.17036  1.0000
  C   C600      1.0  0.00360  0.62763  0.08956  1.0000
  S   S242      1.0  0.73042  0.54352  0.01363  1.0000
  C   C601      1.0  0.92075  0.62525  0.02301  1.0000
  C   C602      1.0  0.87249  0.52831  0.15372  1.0000
  C   C603      1.0  0.80025  0.58067  0.11174  1.0000
  C   C604      1.0  0.87675  0.56468  0.23791  1.0000
  N   N59       1.0  0.90256  0.56541  0.24109  1.0000
  H   H964      1.0  0.85256  0.61005  0.07871  1.0000
  H   H965      1.0  0.79822  0.59864  0.11626  1.0000
  H   H966      1.0  0.94002  0.59180  0.25439  1.0000
  H   H967      1.0  0.57623  0.56899  0.01848  1.0000
  H   H968      1.0  0.79733  0.54299  0.08332  1.0000
  C   C605      1.0  0.89951  0.54297  0.25454  1.0000
  H   H969      1.0  0.82630  0.55453  0.09943  1.0000
  H   H970      1.0  0.93312  0.56413  0.22186  1.0000
  H   H971      1.0  0.90071  0.54443  0.21186  1.0000
  C   C606      1.0  0.76416  0.55158  0.01584  1.0000
  H   H972      1.0  0.82995  0.53055  0.20142  1.0000
  H   H973      1.0  0.57100  0.53600  0.02419  1.0000
  C   C607      1.0  0.56895  0.54868  0.01163  1.0000
  H   H974      1.0  0.86812  0.56670  0.25335  1.0000
  C   C608      1.0  0.92030  0.59050  0.25181  1.0000
  H   H975      1.0  0.91863  0.54315  0.25774  1.0000
  H   H976      1.0  0.51869  0.70511  0.03475  1.0000
  H   H977      1.0  0.94365  0.59501  0.01164  1.0000
  Fe  Fe120     1.0  0.89153  0.52188  0.47454  1.0000
  C   C609      1.0  0.87259  0.54256  0.37650  1.0000
  Fe  Fe121     1.0  0.86774  0.54070  0.43941  1.0000
  S   S243      1.0  0.88338  0.58140  0.45397  1.0000
  H   H978      1.0  0.88768  0.62369  0.48224  1.0000
  H   H979      1.0  0.91254  0.59234  0.26776  1.0000
  S   S244      1.0  0.90879  0.56080  0.49219  1.0000
  Fe  Fe122     1.0  0.86999  0.56085  0.48550  1.0000
  C   C610      1.0  0.93362  0.65744  0.46477  1.0000
  Fe  Fe123     1.0  0.92099  0.57875  0.45972  1.0000
  S   S245      1.0  0.96021  0.61340  0.45046  1.0000
  H   H980      1.0  0.89312  0.63906  0.50790  1.0000
  S   S246      1.0  0.90615  0.53971  0.44235  1.0000
  C   C611      1.0  0.99152  0.62610  0.46295  1.0000
  C   C612      1.0  0.99451  0.62207  0.48457  1.0000
  H   H981      1.0  0.52415  0.72375  0.26775  1.0000
  C   C613      1.0  0.93577  0.63435  0.49616  1.0000
  S   S247      1.0  0.86383  0.53505  0.31184  1.0000
  H   H982      1.0  0.92780  0.67191  0.45780  1.0000
  H   H983      1.0  0.95731  0.64190  0.49466  1.0000
  H   H984      1.0  0.80480  0.53471  0.49368  1.0000
  H   H985      1.0  0.93507  0.69366  0.49349  1.0000
  C   C614      1.0  0.83129  0.52024  0.34703  1.0000
  H   H986      1.0  0.92344  0.63863  0.45551  1.0000
  H   H987      1.0  0.97756  0.60959  0.49392  1.0000
  H   H988      1.0  0.88859  0.55115  0.38780  1.0000
  H   H989      1.0  0.92657  0.61544  0.48708  1.0000
  C   C615      1.0  0.87761  0.54465  0.35435  1.0000
  C   C616      1.0  0.01391  0.64239  0.45111  1.0000
  H   H990      1.0  0.89755  0.55490  0.34871  1.0000
  C   C617      1.0  0.85698  0.53333  0.33954  1.0000
  C   C618      1.0  0.89871  0.64288  0.49077  1.0000
  N   N60       1.0  0.92726  0.65338  0.48776  1.0000
  H   H991      1.0  0.89149  0.65669  0.48468  1.0000
  H   H992      1.0  0.95495  0.66466  0.46191  1.0000
  C   C619      1.0  0.94105  0.67880  0.49938  1.0000
  H   H993      1.0  0.59724  0.57137  0.50840  1.0000
  H   H994      1.0  0.89046  0.54333  0.27023  1.0000
  S   S248      1.0  0.85189  0.52016  0.47068  1.0000
  S   S249      1.0  0.83921  0.52492  0.41148  1.0000
  H   H995      1.0  0.01186  0.64576  0.43441  1.0000
  C   C620      1.0  0.84685  0.52930  0.38396  1.0000
  H   H996      1.0  0.96265  0.68721  0.49740  1.0000
  H   H997      1.0  0.75797  0.52018  0.50201  1.0000
  C   C621      1.0  0.79939  0.54540  0.50547  1.0000
  C   C622      1.0  0.82628  0.51825  0.36910  1.0000
  C   C623      1.0  0.77278  0.53720  0.51025  1.0000
  S   S250      1.0  0.85282  0.57851  0.51043  1.0000
  H   H998      1.0  0.61078  0.53689  0.55308  1.0000
  H   H999      1.0  0.52719  0.66064  0.62878  1.0000
  Fe  Fe124     1.0  0.69340  0.55553  0.60063  1.0000
  S   S251      1.0  0.71681  0.58646  0.57616  1.0000
  C   C624      1.0  0.60230  0.55025  0.55794  1.0000
  H   H1000     1.0  0.55459  0.72884  0.67152  1.0000
  S   S252      1.0  0.67098  0.55208  0.54212  1.0000
  Fe  Fe125     1.0  0.70797  0.55198  0.55390  1.0000
  S   S253      1.0  0.73126  0.53910  0.53087  1.0000
  Fe  Fe126     1.0  0.67757  0.58370  0.56665  1.0000
  S   S254      1.0  0.66853  0.61608  0.55373  1.0000
  C   C625      1.0  0.74471  0.52125  0.61747  1.0000
  S   S255      1.0  0.65507  0.55539  0.59264  1.0000
  C   C626      1.0  0.64425  0.56999  0.74625  1.0000
  S   S256      1.0  0.56434  0.71199  0.58985  1.0000
  H   H1001     1.0  0.74212  0.52157  0.57433  1.0000
  C   C627      1.0  0.76456  0.56365  0.60018  1.0000
  S   S257      1.0  0.56990  0.69452  0.54105  1.0000
  Fe  Fe127     1.0  0.56877  0.67833  0.57400  1.0000
  S   S258      1.0  0.59146  0.65960  0.59102  1.0000
  Fe  Fe128     1.0  0.56082  0.72550  0.55663  1.0000
  H   H1002     1.0  0.56701  0.57718  0.53407  1.0000
  H   H1003     1.0  0.62967  0.56062  0.73320  1.0000
  H   H1004     1.0  0.58879  0.68462  0.65983  1.0000
  C   C628      1.0  0.64655  0.62741  0.56425  1.0000
  C   C629      1.0  0.63613  0.62101  0.58482  1.0000
  C   C630      1.0  0.61913  0.63083  0.59263  1.0000
  C   C631      1.0  0.61195  0.64676  0.57989  1.0000
  C   C632      1.0  0.62182  0.65258  0.55912  1.0000
  C   C633      1.0  0.63921  0.64315  0.55144  1.0000
  H   H1005     1.0  0.64169  0.60905  0.59491  1.0000
  H   H1006     1.0  0.61175  0.62631  0.60875  1.0000
  H   H1007     1.0  0.61663  0.66493  0.54917  1.0000
  H   H1008     1.0  0.64719  0.64829  0.53552  1.0000
  C   C634      1.0  0.81139  0.58109  0.53110  1.0000
  H   H1009     1.0  0.68713  0.54726  0.73047  1.0000
  C   C635      1.0  0.76523  0.55090  0.52540  1.0000
  H   H1010     1.0  0.53159  0.74952  0.52285  1.0000
  H   H1011     1.0  0.54582  0.75781  0.61362  1.0000
  H   H1012     1.0  0.55610  0.53263  0.51899  1.0000
  C   C636      1.0  0.53447  0.71585  0.66731  1.0000
  H   H1013     1.0  0.54220  0.74781  0.58607  1.0000
  N   N61       1.0  0.58844  0.55512  0.54000  1.0000
  N   N62       1.0  0.76542  0.53821  0.60252  1.0000
  Fe  Fe129     1.0  0.52124  0.68629  0.58710  1.0000
  H   H1014     1.0  0.93680  0.67631  0.51680  1.0000
  Fe  Fe130     1.0  0.65067  0.52408  0.56846  1.0000
  H   H1015     1.0  0.54222  0.71680  0.63343  1.0000
  H   H1016     1.0  0.66083  0.54747  0.71555  1.0000
  C   C637      1.0  0.64373  0.52844  0.75454  1.0000
  H   H1017     1.0  0.77929  0.58391  0.54731  1.0000
  C   C638      1.0  0.60702  0.56761  0.52233  1.0000
  C   C639      1.0  0.56367  0.63315  0.64935  1.0000
  C   C640      1.0  0.52752  0.70898  0.64574  1.0000
  N   N63       1.0  0.55293  0.65234  0.64871  1.0000
  C   C641      1.0  0.57749  0.57291  0.54722  1.0000
  H   H1018     1.0  0.54497  0.64615  0.61510  1.0000
  S   S259      1.0  0.68672  0.52151  0.57881  1.0000
  Fe  Fe131     1.0  0.52617  0.66954  0.54143  1.0000
  H   H1019     1.0  0.68760  0.57819  0.72415  1.0000
  H   H1020     1.0  0.56739  0.69433  0.64591  1.0000
  H   H1021     1.0  0.70771  0.52185  0.70497  1.0000
  H   H1022     1.0  0.61869  0.56897  0.56387  1.0000
  C   C642      1.0  0.79126  0.54313  0.61099  1.0000
  H   H1023     1.0  0.73031  0.54898  0.67350  1.0000
  S   S260      1.0  0.52542  0.71308  0.71054  1.0000
  S   S261      1.0  0.71206  0.55729  0.63301  1.0000
  C   C643      1.0  0.76115  0.52491  0.58144  1.0000
  H   H1024     1.0  0.55161  0.65651  0.68287  1.0000
  H   H1025     1.0  0.79505  0.55320  0.62688  1.0000
  C   C644      1.0  0.78472  0.57297  0.53580  1.0000
  C   C645      1.0  0.70929  0.53714  0.67319  1.0000
  H   H1026     1.0  0.74710  0.53091  0.63346  1.0000
  H   H1027     1.0  0.52242  0.63064  0.67126  1.0000
  C   C646      1.0  0.81892  0.56742  0.51586  1.0000
  C   C647      1.0  0.66792  0.52190  0.65483  1.0000
  C   C648      1.0  0.69509  0.53727  0.65498  1.0000
  S   S262      1.0  0.52540  0.65175  0.57329  1.0000
  H   H1028     1.0  0.58901  0.54087  0.57164  1.0000
  C   C649      1.0  0.67467  0.55749  0.72894  1.0000
  H   H1029     1.0  0.62328  0.58698  0.52738  1.0000
  H   H1030     1.0  0.77981  0.57700  0.58897  1.0000
  H   H1031     1.0  0.76736  0.57416  0.61581  1.0000
  H   H1032     1.0  0.54783  0.61254  0.65076  1.0000
  H   H1033     1.0  0.61605  0.55498  0.51676  1.0000
  H   H1034     1.0  0.65637  0.59113  0.74212  1.0000
  H   H1035     1.0  0.79262  0.52435  0.61297  1.0000
  H   H1036     1.0  0.80733  0.55593  0.60010  1.0000
  H   H1037     1.0  0.56349  0.56423  0.56062  1.0000
  H   H1038     1.0  0.74527  0.56054  0.59393  1.0000
  N   N64       1.0  0.52018  0.76813  0.59532  1.0000
  H   H1039     1.0  0.77669  0.53699  0.56988  1.0000
  H   H1040     1.0  0.82629  0.59822  0.53917  1.0000
  C   C650      1.0  0.69651  0.52181  0.69109  1.0000
  H   H1041     1.0  0.93036  0.62976  0.51324  1.0000
  H   H1042     1.0  0.59315  0.59223  0.55297  1.0000
  H   H1043     1.0  0.58570  0.68115  0.63128  1.0000
  H   H1044     1.0  0.57484  0.63406  0.63450  1.0000
  N   N65       1.0  0.66061  0.55634  0.74905  1.0000
  C   C651      1.0  0.54353  0.76372  0.59718  1.0000
  H   H1045     1.0  0.57724  0.63718  0.66309  1.0000
  C   C652      1.0  0.56701  0.52974  0.53254  1.0000
  C   C653      1.0  0.57465  0.67928  0.64635  1.0000
  H   H1046     1.0  0.65673  0.52183  0.64094  1.0000
  H   H1047     1.0  0.55275  0.51970  0.54553  1.0000
  C   C654      1.0  0.53851  0.65088  0.66867  1.0000
  C   C655      1.0  0.53493  0.64603  0.63033  1.0000
  H   H1048     1.0  0.52935  0.66443  0.66832  1.0000
  H   H1049     1.0  0.63327  0.56929  0.76112  1.0000
  C   C656      1.0  0.53246  0.71749  0.85173  1.0000
  S   S263      1.0  0.68926  0.52045  0.96141  1.0000
  H   H1050     1.0  0.89712  0.57928  0.00150  1.0000
  H   H1051     1.0  0.58328  0.68182  0.84698  1.0000
  Fe  Fe132     1.0  0.69761  0.55392  0.93894  1.0000
  S   S264      1.0  0.71828  0.58544  0.96419  1.0000
  S   S265      1.0  0.52889  0.66145  0.93144  1.0000
  H   H1052     1.0  0.63336  0.52658  0.76996  1.0000
  S   S266      1.0  0.66903  0.55059  0.99545  1.0000
  H   H1053     1.0  0.67510  0.55661  0.88675  1.0000
  Fe  Fe133     1.0  0.67790  0.58199  0.97069  1.0000
  S   S267      1.0  0.66773  0.61489  0.98132  1.0000
  Fe  Fe134     1.0  0.70770  0.55157  0.98691  1.0000
  S   S268      1.0  0.67590  0.52915  0.81205  1.0000
  S   S269      1.0  0.65837  0.55316  0.94379  1.0000
  H   H1054     1.0  0.90720  0.59263  0.97527  1.0000
  Fe  Fe135     1.0  0.54117  0.70443  0.92736  1.0000
  S   S270      1.0  0.57787  0.71744  0.94714  1.0000
  C   C657      1.0  0.70726  0.52880  0.84545  1.0000
  H   H1055     1.0  0.59107  0.56620  0.96099  1.0000
  S   S271      1.0  0.54211  0.67337  0.98226  1.0000
  Fe  Fe136     1.0  0.55251  0.71622  0.97532  1.0000
  H   H1056     1.0  0.55150  0.67292  0.88823  1.0000
  Fe  Fe137     1.0  0.56448  0.67385  0.95242  1.0000
  S   S272      1.0  0.58663  0.65088  0.94127  1.0000
  H   H1057     1.0  0.58901  0.71403  0.89980  1.0000
  C   C658      1.0  0.70477  0.54392  0.88174  1.0000
  C   C659      1.0  0.60858  0.64059  0.95319  1.0000
  C   C660      1.0  0.61914  0.64888  0.97361  1.0000
  C   C661      1.0  0.63719  0.64083  0.98193  1.0000
  C   C662      1.0  0.64472  0.62419  0.97010  1.0000
  C   C663      1.0  0.63385  0.61557  0.94982  1.0000
  C   C664      1.0  0.61599  0.62381  0.94142  1.0000
  H   H1058     1.0  0.61377  0.66187  0.98284  1.0000
  H   H1059     1.0  0.93882  0.64013  0.97126  1.0000
  H   H1060     1.0  0.63956  0.60295  0.94046  1.0000
  H   H1061     1.0  0.60802  0.61731  0.92559  1.0000
  H   H1062     1.0  0.61099  0.71168  0.85580  1.0000
  C   C665      1.0  0.56466  0.66363  0.88581  1.0000
  S   S273      1.0  0.71686  0.54953  0.90828  1.0000
  H   H1063     1.0  0.55607  0.64858  0.87285  1.0000
  H   H1064     1.0  0.54683  0.73803  0.85086  1.0000
  H   H1065     1.0  0.57836  0.70652  0.86156  1.0000
  H   H1066     1.0  0.62171  0.71921  0.89455  1.0000
  H   H1067     1.0  0.60179  0.69483  0.91347  1.0000
  C   C666      1.0  0.60146  0.70382  0.89784  1.0000
  C   C667      1.0  0.68681  0.53401  0.83894  1.0000
  H   H1068     1.0  0.62906  0.68515  0.87475  1.0000
  H   H1069     1.0  0.58861  0.58679  0.98183  1.0000
  H   H1070     1.0  0.60925  0.66100  0.89393  1.0000
  C   C668      1.0  0.60862  0.67067  0.87866  1.0000
  C   C669      1.0  0.68399  0.54870  0.87536  1.0000
  H   H1071     1.0  0.60154  0.65512  0.86597  1.0000
  H   H1072     1.0  0.56426  0.65298  0.90074  1.0000
  N   N66       1.0  0.59148  0.68365  0.88063  1.0000
  C   C670      1.0  0.51938  0.70399  0.83302  1.0000
  H   H1073     1.0  0.52368  0.71411  0.81789  1.0000
  Fe  Fe138     1.0  0.65176  0.52207  0.96825  1.0000
  C   C671      1.0  0.59108  0.69647  0.86031  1.0000
  C   C672      1.0  0.57323  0.52150  0.98351  1.0000
  C   C673      1.0  0.52703  0.70464  0.87152  1.0000
  C   C674      1.0  0.67521  0.54397  0.85399  1.0000
  H   H1074     1.0  0.66972  0.56845  0.78195  1.0000
  H   H1075     1.0  0.65951  0.54824  0.84906  1.0000
  C   C675      1.0  0.58051  0.56596  0.97599  1.0000
  H   H1076     1.0  0.95172  0.66074  0.99458  1.0000
  S   S274      1.0  0.54385  0.72266  0.89458  1.0000
  C   C676      1.0  0.71637  0.53404  0.86666  1.0000
  H   H1077     1.0  0.69222  0.55936  0.76915  1.0000
  C   C677      1.0  0.78371  0.57261  0.00480  1.0000
  H   H1078     1.0  0.95403  0.60888  0.98560  1.0000
  H   H1079     1.0  0.61994  0.57915  0.00433  1.0000
  H   H1080     1.0  0.91803  0.64925  0.98716  1.0000
  H   H1081     1.0  0.73255  0.53042  0.87141  1.0000
  H   H1082     1.0  0.88644  0.60190  0.99113  1.0000
  H   H1083     1.0  0.64557  0.64774  0.99760  1.0000
  H   H1084     1.0  0.69286  0.59039  0.76294  1.0000
  H   H1085     1.0  0.77831  0.58386  0.99380  1.0000
  H   H1086     1.0  0.82522  0.59624  0.00013  1.0000
  C   C678      1.0  0.93418  0.64354  0.98793  1.0000
  C   C679      1.0  0.61151  0.55880  0.99739  1.0000
  C   C680      1.0  0.90345  0.59747  0.99177  1.0000
  N   N67       1.0  0.92677  0.61979  0.00111  1.0000
  S   S275      1.0  0.56059  0.74343  0.00477  1.0000
  C   C681      1.0  0.67968  0.56930  0.76647  1.0000
  H   H1087     1.0  0.62320  0.55984  0.98290  1.0000
  N   N68       1.0  0.58352  0.54873  0.99212  1.0000
  C   C682      1.0  0.94869  0.61291  0.00183  1.0000
  H   H1088     1.0  0.55961  0.55931  0.97181  1.0000
  H   H1089     1.0  0.71651  0.52135  0.83401  1.0000
  C   C683      1.0  0.81034  0.57959  0.00846  1.0000
  H   H1090     1.0  0.61470  0.54593  0.00909  1.0000
  H   H1091     1.0  0.54769  0.54107  0.00827  1.0000
  H   H1092     1.0  0.58462  0.52061  0.96934  1.0000
  H   H1093     1.0  0.96645  0.62910  0.00925  1.0000
  C   C684      1.0  0.64446  0.94525  0.04871  1.0000
  H   H1094     1.0  0.57668  0.79507  0.20722  1.0000
  Fe  Fe139     1.0  0.55353  0.87498  0.05046  1.0000
  C   C685      1.0  0.57711  0.81470  0.20508  1.0000
  H   H1095     1.0  0.52876  0.90259  0.18719  1.0000
  Fe  Fe140     1.0  0.57487  0.92775  0.07611  1.0000
  S   S276      1.0  0.53964  0.91246  0.09759  1.0000
  S   S277      1.0  0.60987  0.96816  0.08333  1.0000
  Fe  Fe141     1.0  0.54254  0.87452  0.09861  1.0000
  S   S278      1.0  0.56073  0.85546  0.02053  1.0000
  C   C686      1.0  0.53084  0.79638  0.21202  1.0000
  S   S279      1.0  0.57980  0.89050  0.07930  1.0000
  S   S280      1.0  0.55127  0.91350  0.04582  1.0000
  H   H1096     1.0  0.58126  0.82948  0.24641  1.0000
  C   C687      1.0  0.52997  0.87890  0.16040  1.0000
  H   H1097     1.0  0.52658  0.79787  0.19490  1.0000
  C   C688      1.0  0.60588  0.00643  0.05783  1.0000
  H   H1098     1.0  0.60429  0.95485  0.03850  1.0000
  C   C689      1.0  0.61800  0.00111  0.07519  1.0000
  H   H1099     1.0  0.57407  0.81679  0.18777  1.0000
  H   H1100     1.0  0.59005  0.99034  0.04954  1.0000
  H   H1101     1.0  0.52907  0.77627  0.21468  1.0000
  H   H1102     1.0  0.54284  0.84587  0.22429  1.0000
  S   S281      1.0  0.53326  0.84743  0.12740  1.0000
  N   N69       1.0  0.63441  0.94550  0.02705  1.0000
  C   C690      1.0  0.55818  0.84349  0.21492  1.0000
  H   H1103     1.0  0.59917  0.90946  0.03192  1.0000
  H   H1104     1.0  0.67081  0.97678  0.01633  1.0000
  H   H1105     1.0  0.54091  0.89571  0.15030  1.0000
  H   H1106     1.0  0.56158  0.81558  0.04983  1.0000
  N   N70       1.0  0.55696  0.81723  0.21827  1.0000
  H   H1107     1.0  0.65558  0.93356  0.04918  1.0000
  H   H1108     1.0  0.63427  0.98299  0.03216  1.0000
  H   H1109     1.0  0.65744  0.96563  0.05465  1.0000
  C   C691      1.0  0.56036  0.80830  0.03363  1.0000
  H   H1110     1.0  0.56238  0.77276  0.04294  1.0000
  C   C692      1.0  0.56164  0.81429  0.24107  1.0000
  H   H1111     1.0  0.56030  0.79445  0.24427  1.0000
  H   H1112     1.0  0.62821  0.93633  0.06043  1.0000
  H   H1113     1.0  0.54676  0.81616  0.25145  1.0000
  C   C693      1.0  0.56084  0.78398  0.02965  1.0000
  H   H1114     1.0  0.59711  0.83014  0.20934  1.0000
  H   H1115     1.0  0.57746  0.85974  0.21981  1.0000
  H   H1116     1.0  0.55515  0.84657  0.19781  1.0000
  C   C694      1.0  0.55919  0.82353  0.01663  1.0000
  C   C695      1.0  0.52356  0.85339  0.15292  1.0000
  C   C696      1.0  0.62092  0.96231  0.02711  1.0000
  C   C697      1.0  0.52312  0.88274  0.18134  1.0000
  H   H1117     1.0  0.62524  0.90490  0.02023  1.0000
  C   C698      1.0  0.61583  0.91824  0.02060  1.0000
  H   H1118     1.0  0.66704  0.94400  0.01131  1.0000
  C   C699      1.0  0.65644  0.95624  0.01183  1.0000
  N   N71       1.0  0.56440  0.82097  0.43364  1.0000
  Fe  Fe142     1.0  0.53691  0.86760  0.47843  1.0000
  H   H1119     1.0  0.55102  0.98807  0.47702  1.0000
  S   S282      1.0  0.53393  0.90238  0.49357  1.0000
  Fe  Fe143     1.0  0.56527  0.92847  0.47048  1.0000
  S   S283      1.0  0.53763  0.92566  0.44423  1.0000
  S   S284      1.0  0.59502  0.96834  0.48447  1.0000
  N   N72       1.0  0.53012  0.97749  0.50682  1.0000
  Fe  Fe144     1.0  0.54024  0.88903  0.43327  1.0000
  H   H1120     1.0  0.60164  0.84416  0.41864  1.0000
  H   H1121     1.0  0.55299  0.79249  0.40801  1.0000
  S   S285      1.0  0.57088  0.89390  0.45783  1.0000
  C   C700      1.0  0.56149  0.79576  0.42437  1.0000
  C   C701      1.0  0.53848  0.82048  0.43483  1.0000
  C   C702      1.0  0.60800  0.00064  0.47331  1.0000
  H   H1122     1.0  0.57372  0.84126  0.40360  1.0000
  H   H1123     1.0  0.58069  0.79541  0.42329  1.0000
  H   H1124     1.0  0.59547  0.82552  0.45512  1.0000
  H   H1125     1.0  0.59332  0.98802  0.44150  1.0000
  H   H1126     1.0  0.56310  0.80797  0.46595  1.0000
  C   C703      1.0  0.58187  0.84311  0.42000  1.0000
  S   S286      1.0  0.54730  0.87658  0.40009  1.0000
  H   H1127     1.0  0.54835  0.85609  0.35820  1.0000
  C   C704      1.0  0.52367  0.86509  0.37930  1.0000
  H   H1128     1.0  0.54008  0.83921  0.44173  1.0000
  C   C705      1.0  0.52959  0.85604  0.36002  1.0000
  H   H1129     1.0  0.54834  0.77869  0.43431  1.0000
  C   C706      1.0  0.57567  0.82452  0.45534  1.0000
  H   H1130     1.0  0.53475  0.95346  0.48228  1.0000
  C   C707      1.0  0.53306  0.97206  0.48412  1.0000
  H   H1131     1.0  0.52477  0.80429  0.44523  1.0000
  H   H1132     1.0  0.57744  0.84301  0.46307  1.0000
  S   S287      1.0  0.52844  0.82661  0.49095  1.0000
  H   H1133     1.0  0.58439  0.86243  0.42651  1.0000
  H   H1134     1.0  0.52940  0.81815  0.41876  1.0000
  C   C708      1.0  0.54325  0.81161  0.50725  1.0000
  C   C709      1.0  0.60441  0.00479  0.45184  1.0000
  H   H1135     1.0  0.53650  0.90474  0.29942  1.0000
  H   H1136     1.0  0.53436  0.94681  0.29444  1.0000
  C   C710      1.0  0.52860  0.00270  0.50872  1.0000
  C   C711      1.0  0.53066  0.78392  0.50918  1.0000
  H   H1137     1.0  0.52366  0.91492  0.26397  1.0000
  C   C712      1.0  0.57780  0.81300  0.53054  1.0000
  C   C713      1.0  0.54153  0.77082  0.52164  1.0000
  C   C714      1.0  0.56511  0.78529  0.53254  1.0000
  H   H1138     1.0  0.59609  0.82442  0.53886  1.0000
  H   H1139     1.0  0.52626  0.00738  0.52565  1.0000
  S   S288      1.0  0.57889  0.76975  0.54937  1.0000
  H   H1140     1.0  0.54050  0.80843  0.60623  1.0000
  C   C715      1.0  0.56702  0.82611  0.51792  1.0000
  H   H1141     1.0  0.56177  0.78172  0.59297  1.0000
  H   H1142     1.0  0.55146  0.98344  0.53625  1.0000
  H   H1143     1.0  0.57702  0.84740  0.51657  1.0000
  H   H1144     1.0  0.55470  0.96066  0.51779  1.0000
  C   C716      1.0  0.55291  0.97935  0.51903  1.0000
  H   H1145     1.0  0.53559  0.79351  0.56817  1.0000
  H   H1146     1.0  0.57154  0.99535  0.51282  1.0000
  C   C717      1.0  0.52281  0.78971  0.61002  1.0000
  H   H1147     1.0  0.52460  0.78474  0.62691  1.0000
  C   C718      1.0  0.55780  0.78911  0.99171  1.0000
  C   C719      1.0  0.55966  0.77422  0.00869  1.0000
  H   H1148     1.0  0.55706  0.82527  0.98236  1.0000
  C   C720      1.0  0.55787  0.81370  0.99567  1.0000
  H   H1149     1.0  0.55692  0.78200  0.97550  1.0000
  H   H1150     1.0  0.64949  0.95676  0.99534  1.0000
  H   H1151     1.0  0.60733  0.91750  0.00451  1.0000
  H   H1152     1.0  0.61294  0.96296  0.01109  1.0000
