data_image0
_chemical_formula_structural       SHC2HCH4NC2H4C2HFeSHSFeSFeHSCH2C2HC3H3FeH2CSHFeHFeSNH2FeSFe2SHSFeHFeS2C6H6C2H4CH2SHC2H2C2SH2CSH3SH2SHFeSFeSFeS2CHC2HC3H4CH2CHCHNH5CHC3H2CHNH2CNCH2C2SH4SH4FeSHS2HFeS2FeH2FeSFeHS2HC2HS2C3H3CH2FeNCH3C6H6SHCH3C2HCHC4H4NCHCH5CHCH4C2H2CH2S2Fe2SH2CH3C3H2C2SHC2H2C2HC2HCH2C3NHSH3C2NH2CHCHC2H3C2H4SHSCSCH2CSC4H2Fe2CHCH2SHC2HNC4HCH6C3H8NH2SH2SCHS2H2CFeH3C3HNH3C4HSH5CSC3H2NCHFeHC3H2FeCH3SHCH2CH2CH3S2H4CH2SH2CHFeSHSFeC2H2FeHNSCHCHC2HCHNH2CHCH2CSHCHSHNC2HNH2FeCNC2HC2SHSH2FeSHCSFeHFeS2FeS2HCHCH2CH2C2HC6H8CHC2H2CH4CH4CH2CS2FeHFeSC2HSH3CSHC2HC2H2C2H2CHSHCH2NHCSH2CH2FeH2C2HFe2HS2FeS2CSH5C2NC2H3CH3CHFeCH2S2H4NHC2H2C2SH2C4SCH4NC2HCHCHSCHCSHCH4C2HFeCSHCH2CHC2H5FeS3HCFeCH3SH3C3SC2H4NC4H4CH4SH4FeCH2CH2CS2FeSFeSHNHC2H2C6HC2SC2HC2H2SH3CFeH5SCHCHC3H4SHCFeH3SNH2C2HSH3C3HC2NH6CH4NH3SCS2FeSCH2C2HSCHCHCHFeNHC2SNH2S2H3CHCHFeH2CH4C2H3CH3C2SH2FeS2FeSCFeHFeS3HSH2CHNHCH2C2HCHNH4CHC6H4FeC2HC2HC2HCHSFeSH3CHC2H5CHCH4NHCHCH2CH3CHS2C2SFeHFeSHCH2CHCH3C2H3FeSFeSFeSFeS2HC5H3CH3CHSHCHSCH2CN2H2C2HC2S2H2CSFeHSFe2H3CH12SH2CHC4HSC2H2FeS2FeHCFeHS2C2NH5C3HFeCSH3C3H4NH6SH2CHCHC2SCH2C2H3
_chemical_formula_sum              "S144 H576 C360 N36 Fe72"
_cell_length_a       56.4199
_cell_length_b       56.7447
_cell_length_c       27.5596
_cell_angle_alpha    90.0263
_cell_angle_beta     89.7913
_cell_angle_gamma    120.073

_space_group_name_H-M_alt    "P 1"
_space_group_IT_number       1

loop_
  _space_group_symop_operation_xyz
  'x, y, z'

loop_
  _atom_site_type_symbol
  _atom_site_label
  _atom_site_symmetry_multiplicity
  _atom_site_fract_x
  _atom_site_fract_y
  _atom_site_fract_z
  _atom_site_occupancy
  S   S1        1.0  0.51429  0.18731  0.54042  1.0000
  H   H1        1.0  0.46886  0.26089  0.38167  1.0000
  C   C1        1.0  0.50503  0.22868  0.40238  1.0000
  C   C2        1.0  0.51624  0.25875  0.51595  1.0000
  H   H2        1.0  0.45233  0.20037  0.37595  1.0000
  C   C3        1.0  0.47991  0.25280  0.40310  1.0000
  H   H3        1.0  0.46569  0.23919  0.43183  1.0000
  H   H4        1.0  0.47364  0.20384  0.32466  1.0000
  H   H5        1.0  0.49194  0.21530  0.43250  1.0000
  H   H6        1.0  0.51216  0.21684  0.38073  1.0000
  N   N1        1.0  0.49011  0.23848  0.37217  1.0000
  C   C4        1.0  0.46669  0.21506  0.34852  1.0000
  C   C5        1.0  0.50881  0.25747  0.33483  1.0000
  H   H7        1.0  0.51710  0.24754  0.31079  1.0000
  H   H8        1.0  0.45489  0.22178  0.32575  1.0000
  H   H9        1.0  0.52342  0.24595  0.41927  1.0000
  H   H10       1.0  0.49832  0.26545  0.31146  1.0000
  C   C6        1.0  0.52392  0.23883  0.52197  1.0000
  C   C7        1.0  0.49023  0.25340  0.53051  1.0000
  H   H11       1.0  0.49701  0.27037  0.42195  1.0000
  Fe  Fe1       1.0  0.53242  0.11810  0.60874  1.0000
  S   S2        1.0  0.49258  0.11203  0.58078  1.0000
  H   H12       1.0  0.51340  0.20690  0.99396  1.0000
  S   S3        1.0  0.49199  0.14732  0.67531  1.0000
  Fe  Fe2       1.0  0.47939  0.10334  0.65885  1.0000
  S   S4        1.0  0.44012  0.06554  0.68239  1.0000
  Fe  Fe3       1.0  0.50895  0.15637  0.59886  1.0000
  H   H13       1.0  0.45240  0.22410  0.56487  1.0000
  S   S5        1.0  0.51848  0.10674  0.68564  1.0000
  C   C8        1.0  0.43900  0.03412  0.67294  1.0000
  H   H14       1.0  0.47446  0.05092  0.62635  1.0000
  H   H15       1.0  0.52514  0.17011  0.00118  1.0000
  C   C9        1.0  0.53111  0.19301  0.91368  1.0000
  C   C10       1.0  0.47254  0.22843  0.55333  1.0000
  H   H16       1.0  0.52736  0.10923  0.88658  1.0000
  C   C11       1.0  0.48039  0.20863  0.56002  1.0000
  C   C12       1.0  0.45835  0.03263  0.64324  1.0000
  C   C13       1.0  0.50597  0.21355  0.54352  1.0000
  H   H17       1.0  0.46620  0.18911  0.57600  1.0000
  H   H18       1.0  0.50935  0.17816  0.92247  1.0000
  H   H19       1.0  0.52366  0.12676  0.80580  1.0000
  Fe  Fe4       1.0  0.53223  0.15093  0.69618  1.0000
  H   H20       1.0  0.53146  0.20807  0.88738  1.0000
  H   H21       1.0  0.42164  0.48298  0.33660  1.0000
  C   C14       1.0  0.29137  0.47457  0.51760  1.0000
  S   S6        1.0  0.31344  0.47795  0.46863  1.0000
  H   H22       1.0  0.26907  0.48877  0.47489  1.0000
  Fe  Fe5       1.0  0.35413  0.47874  0.47294  1.0000
  H   H23       1.0  0.04985  0.44983  0.49303  1.0000
  Fe  Fe6       1.0  0.52741  0.33880  0.37475  1.0000
  S   S7        1.0  0.36965  0.46847  0.40491  1.0000
  N   N2        1.0  0.41053  0.44626  0.29716  1.0000
  H   H24       1.0  0.41126  0.44728  0.21908  1.0000
  H   H25       1.0  0.42493  0.44620  0.52139  1.0000
  Fe  Fe7       1.0  0.50581  0.36811  0.43936  1.0000
  S   S8        1.0  0.49514  0.40194  0.43837  1.0000
  Fe  Fe8       1.0  0.50350  0.31556  0.47435  1.0000
  Fe  Fe9       1.0  0.40848  0.50780  0.41817  1.0000
  S   S9        1.0  0.36815  0.45618  0.52157  1.0000
  H   H26       1.0  0.41651  0.45484  0.37322  1.0000
  S   S10       1.0  0.48618  0.32552  0.40853  1.0000
  Fe  Fe10      1.0  0.40733  0.49630  0.52610  1.0000
  H   H27       1.0  0.44706  0.47285  0.33724  1.0000
  Fe  Fe11      1.0  0.38745  0.44990  0.45468  1.0000
  S   S11       1.0  0.38648  0.40997  0.43953  1.0000
  S   S12       1.0  0.42732  0.48858  0.46283  1.0000
  C   C15       1.0  0.46431  0.40292  0.43723  1.0000
  C   C16       1.0  0.43839  0.37950  0.43846  1.0000
  C   C17       1.0  0.41464  0.38187  0.43845  1.0000
  C   C18       1.0  0.41666  0.40760  0.43760  1.0000
  C   C19       1.0  0.44259  0.43089  0.43564  1.0000
  C   C20       1.0  0.46621  0.42854  0.43562  1.0000
  H   H28       1.0  0.43667  0.35964  0.43958  1.0000
  H   H29       1.0  0.39465  0.36367  0.43965  1.0000
  H   H30       1.0  0.44468  0.45083  0.43456  1.0000
  H   H31       1.0  0.48620  0.44674  0.43449  1.0000
  H   H32       1.0  0.37665  0.45361  0.29791  1.0000
  H   H33       1.0  0.52658  0.27553  0.35162  1.0000
  C   C21       1.0  0.42155  0.46076  0.25068  1.0000
  C   C22       1.0  0.39140  0.51278  0.23867  1.0000
  H   H34       1.0  0.40509  0.40829  0.27004  1.0000
  H   H35       1.0  0.44393  0.46851  0.24736  1.0000
  H   H36       1.0  0.41853  0.47866  0.24741  1.0000
  H   H37       1.0  0.38373  0.50453  0.31535  1.0000
  C   C23       1.0  0.27070  0.48113  0.50993  1.0000
  H   H38       1.0  0.37194  0.42552  0.33502  1.0000
  H   H39       1.0  0.37007  0.50030  0.22875  1.0000
  S   S13       1.0  0.51977  0.35708  0.50790  1.0000
  H   H40       1.0  0.36946  0.42208  0.27013  1.0000
  C   C24       1.0  0.38084  0.43643  0.30012  1.0000
  C   C25       1.0  0.42461  0.46507  0.33778  1.0000
  H   H41       1.0  0.43733  0.42950  0.29975  1.0000
  H   H42       1.0  0.40656  0.41129  0.33493  1.0000
  C   C26       1.0  0.41510  0.42282  0.30046  1.0000
  C   C27       1.0  0.05758  0.45868  0.52955  1.0000
  S   S14       1.0  0.47839  0.27642  0.51754  1.0000
  H   H43       1.0  0.45849  0.45103  0.53195  1.0000
  H   H44       1.0  0.06410  0.41583  0.50964  1.0000
  C   C28       1.0  0.39911  0.51505  0.28763  1.0000
  S   S15       1.0  0.39227  0.51954  0.48262  1.0000
  H   H45       1.0  0.53026  0.27799  0.49911  1.0000
  H   H46       1.0  0.07924  0.47524  0.52495  1.0000
  H   H47       1.0  0.23608  0.48265  0.54046  1.0000
  S   S16       1.0  0.13603  0.49897  0.54112  1.0000
  H   H48       1.0  0.40332  0.39708  0.53943  1.0000
  H   H49       1.0  0.14894  0.37103  0.78974  1.0000
  S   S17       1.0  0.19143  0.48487  0.71748  1.0000
  H   H50       1.0  0.12776  0.38276  0.76259  1.0000
  Fe  Fe12      1.0  0.16072  0.49452  0.60027  1.0000
  S   S18       1.0  0.15586  0.45400  0.61987  1.0000
  Fe  Fe13      1.0  0.14741  0.46364  0.69440  1.0000
  S   S19       1.0  0.11346  0.43282  0.74223  1.0000
  Fe  Fe14      1.0  0.20048  0.47802  0.64072  1.0000
  S   S20       1.0  0.22888  0.46032  0.63865  1.0000
  S   S21       1.0  0.14906  0.50251  0.67353  1.0000
  C   C29       1.0  0.25336  0.46709  0.59209  1.0000
  H   H51       1.0  0.14222  0.40910  0.68661  1.0000
  C   C30       1.0  0.27407  0.46059  0.59986  1.0000
  C   C31       1.0  0.29316  0.46456  0.56301  1.0000
  H   H52       1.0  0.27530  0.45233  0.63450  1.0000
  C   C32       1.0  0.07935  0.39610  0.67405  1.0000
  C   C33       1.0  0.08142  0.41188  0.71455  1.0000
  C   C34       1.0  0.05747  0.40950  0.73502  1.0000
  H   H53       1.0  0.09756  0.39759  0.65808  1.0000
  H   H54       1.0  0.05889  0.42146  0.76662  1.0000
  H   H55       1.0  0.41158  0.38611  0.59470  1.0000
  H   H56       1.0  0.13069  0.35575  0.73458  1.0000
  C   C35       1.0  0.14234  0.37535  0.75447  1.0000
  H   H57       1.0  0.18848  0.41822  0.78854  1.0000
  H   H58       1.0  0.19858  0.43708  0.73270  1.0000
  C   C36       1.0  0.18488  0.38533  0.71510  1.0000
  H   H59       1.0  0.16697  0.42967  0.76197  1.0000
  C   C37       1.0  0.18066  0.42127  0.75352  1.0000
  H   H60       1.0  0.17344  0.41585  0.65685  1.0000
  N   N3        1.0  0.16600  0.39564  0.72576  1.0000
  H   H61       1.0  0.20287  0.40044  0.69333  1.0000
  H   H62       1.0  0.19291  0.38128  0.74899  1.0000
  H   H63       1.0  0.44211  0.42016  0.65495  1.0000
  H   H64       1.0  0.14456  0.38191  0.65795  1.0000
  H   H65       1.0  0.17457  0.36610  0.69383  1.0000
  C   C38       1.0  0.15610  0.40082  0.67972  1.0000
  H   H66       1.0  0.08822  0.46650  0.60937  1.0000
  C   C39       1.0  0.44047  0.45044  0.54982  1.0000
  C   C40       1.0  0.06621  0.45042  0.61178  1.0000
  C   C41       1.0  0.45012  0.43550  0.62519  1.0000
  H   H67       1.0  0.41134  0.45030  0.62631  1.0000
  H   H68       1.0  0.05200  0.36451  0.62515  1.0000
  C   C42       1.0  0.07161  0.42564  0.54559  1.0000
  H   H69       1.0  0.45751  0.45593  0.64174  1.0000
  N   N4        1.0  0.42892  0.42952  0.58825  1.0000
  H   H70       1.0  0.43694  0.40180  0.54753  1.0000
  H   H71       1.0  0.39621  0.41463  0.64076  1.0000
  C   C43       1.0  0.25196  0.47769  0.54708  1.0000
  N   N5        1.0  0.05544  0.43774  0.56400  1.0000
  C   C44       1.0  0.41981  0.40244  0.56668  1.0000
  H   H72       1.0  0.46819  0.43538  0.60900  1.0000
  H   H73       1.0  0.07051  0.40983  0.57084  1.0000
  C   C45       1.0  0.40530  0.42985  0.61096  1.0000
  C   C46       1.0  0.05350  0.37736  0.65539  1.0000
  S   S22       1.0  0.43149  0.51059  0.59516  1.0000
  H   H74       1.0  0.30884  0.45928  0.56932  1.0000
  H   H75       1.0  0.05466  0.45990  0.62690  1.0000
  H   H76       1.0  0.22968  0.50861  0.95721  1.0000
  H   H77       1.0  0.38884  0.42507  0.58397  1.0000
  S   S23       1.0  0.20617  0.51808  0.61378  1.0000
  H   H78       1.0  0.44723  0.47116  0.56441  1.0000
  H   H79       1.0  0.06466  0.43512  0.63869  1.0000
  H   H80       1.0  0.04563  0.46822  0.54242  1.0000
  H   H81       1.0  0.09366  0.44134  0.54139  1.0000
  Fe  Fe15      1.0  0.21100  0.62784  0.09169  1.0000
  S   S24       1.0  0.17937  0.61979  0.14971  1.0000
  H   H82       1.0  0.25009  0.65798  0.30268  1.0000
  S   S25       1.0  0.29207  0.61585  0.11576  1.0000
  S   S26       1.0  0.25592  0.65817  0.09561  1.0000
  H   H83       1.0  0.39576  0.68666  0.11629  1.0000
  Fe  Fe16      1.0  0.18670  0.68384  0.38895  1.0000
  S   S27       1.0  0.17389  0.69769  0.45577  1.0000
  S   S28       1.0  0.19439  0.70370  0.31531  1.0000
  Fe  Fe17      1.0  0.19024  0.63944  0.44164  1.0000
  H   H84       1.0  0.43129  0.63901  0.31359  1.0000
  H   H85       1.0  0.15054  0.58368  0.46792  1.0000
  Fe  Fe18      1.0  0.14562  0.65265  0.46795  1.0000
  S   S29       1.0  0.10267  0.63742  0.49811  1.0000
  Fe  Fe19      1.0  0.20612  0.69254  0.49471  1.0000
  H   H86       1.0  0.12914  0.70654  0.29291  1.0000
  S   S30       1.0  0.15654  0.63932  0.39871  1.0000
  S   S31       1.0  0.22130  0.68285  0.42653  1.0000
  H   H87       1.0  0.27755  0.71506  0.07665  1.0000
  C   C47       1.0  0.10814  0.69701  0.30897  1.0000
  C   C48       1.0  0.22827  0.64162  0.30047  1.0000
  H   H88       1.0  0.18639  0.59120  0.31353  1.0000
  S   S32       1.0  0.21763  0.59261  0.07800  1.0000
  S   S33       1.0  0.40043  0.52665  0.14259  1.0000
  C   C49       1.0  0.04719  0.61638  0.49052  1.0000
  C   C50       1.0  0.07102  0.62023  0.46697  1.0000
  C   C51       1.0  0.06905  0.61062  0.41957  1.0000
  H   H89       1.0  0.48520  0.75776  0.11517  1.0000
  H   H90       1.0  0.08702  0.61261  0.40156  1.0000
  H   H91       1.0  0.21951  0.63799  0.33782  1.0000
  C   C52       1.0  0.15938  0.57100  0.47561  1.0000
  H   H92       1.0  0.11995  0.72838  0.38827  1.0000
  H   H93       1.0  0.32161  0.58782  0.13218  1.0000
  Fe  Fe20      1.0  0.26216  0.62355  0.07505  1.0000
  N   N6        1.0  0.10802  0.68866  0.35981  1.0000
  C   C53       1.0  0.31940  0.74487  0.09269  1.0000
  H   H94       1.0  0.26215  0.62184  0.31243  1.0000
  H   H95       1.0  0.36003  0.66121  0.11463  1.0000
  H   H96       1.0  0.31540  0.74593  0.13084  1.0000
  C   C54       1.0  0.18337  0.64442  0.19286  1.0000
  C   C55       1.0  0.16429  0.63637  0.23087  1.0000
  C   C56       1.0  0.16765  0.65452  0.26827  1.0000
  C   C57       1.0  0.18981  0.68114  0.26751  1.0000
  C   C58       1.0  0.20847  0.68959  0.22861  1.0000
  C   C59       1.0  0.20547  0.67114  0.19160  1.0000
  H   H97       1.0  0.14700  0.61582  0.23173  1.0000
  H   H98       1.0  0.15276  0.64794  0.29721  1.0000
  H   H99       1.0  0.22555  0.71025  0.22760  1.0000
  H   H100      1.0  0.22018  0.67758  0.16220  1.0000
  H   H101      1.0  0.22685  0.63033  0.20581  1.0000
  H   H102      1.0  0.07164  0.68995  0.37890  1.0000
  S   S34       1.0  0.20614  0.61059  0.43186  1.0000
  H   H103      1.0  0.23470  0.60356  0.21145  1.0000
  C   C60       1.0  0.41046  0.58548  0.29672  1.0000
  H   H104      1.0  0.19309  0.57598  0.26175  1.0000
  H   H105      1.0  0.23141  0.60158  0.34687  1.0000
  H   H106      1.0  0.06555  0.65717  0.35916  1.0000
  C   C61       1.0  0.04364  0.59810  0.39552  1.0000
  C   C62       1.0  0.45888  0.72945  0.06093  1.0000
  H   H107      1.0  0.32639  0.67262  0.08030  1.0000
  C   C63       1.0  0.07989  0.67579  0.37983  1.0000
  H   H108      1.0  0.45518  0.59799  0.24522  1.0000
  C   C64       1.0  0.39168  0.72474  0.06545  1.0000
  C   C65       1.0  0.19764  0.56294  0.47117  1.0000
  C   C66       1.0  0.23713  0.62223  0.22938  1.0000
  C   C67       1.0  0.24002  0.60640  0.30936  1.0000
  H   H109      1.0  0.18452  0.60202  0.25305  1.0000
  H   H110      1.0  0.23843  0.58751  0.29404  1.0000
  H   H111      1.0  0.35253  0.57985  0.07967  1.0000
  H   H112      1.0  0.21736  0.64965  0.27860  1.0000
  N   N7        1.0  0.22539  0.61644  0.27897  1.0000
  C   C68       1.0  0.32676  0.59668  0.09621  1.0000
  H   H113      1.0  0.25935  0.63764  0.22956  1.0000
  C   C69       1.0  0.19606  0.59547  0.27682  1.0000
  H   H114      1.0  0.21847  0.56945  0.46020  1.0000
  H   H115      1.0  0.39789  0.58925  0.32340  1.0000
  H   H116      1.0  0.10103  0.71204  0.30624  1.0000
  H   H117      1.0  0.12647  0.70716  0.42789  1.0000
  H   H118      1.0  0.07925  0.66944  0.41833  1.0000
  C   C70       1.0  0.18627  0.57940  0.46133  1.0000
  H   H119      1.0  0.13894  0.67796  0.34636  1.0000
  C   C71       1.0  0.12639  0.71279  0.38916  1.0000
  H   H120      1.0  0.14794  0.72256  0.37569  1.0000
  H   H121      1.0  0.10448  0.65038  0.33985  1.0000
  H   H122      1.0  0.42633  0.58340  0.20443  1.0000
  H   H123      1.0  0.42572  0.58260  0.31760  1.0000
  C   C72       1.0  0.15528  0.52964  0.50973  1.0000
  C   C73       1.0  0.44231  0.68181  0.07781  1.0000
  H   H124      1.0  0.09451  0.67922  0.28586  1.0000
  H   H125      1.0  0.32062  0.75195  0.49882  1.0000
  C   C74       1.0  0.11784  0.66897  0.36138  1.0000
  H   H126      1.0  0.11832  0.66252  0.39930  1.0000
  H   H127      1.0  0.38697  0.74148  0.06151  1.0000
  S   S35       1.0  0.40511  0.59426  0.10672  1.0000
  S   S36       1.0  0.46545  0.59894  0.10130  1.0000
  Fe  Fe21      1.0  0.42138  0.56561  0.09859  1.0000
  Fe  Fe22      1.0  0.44868  0.62747  0.10191  1.0000
  S   S37       1.0  0.46251  0.66414  0.15019  1.0000
  H   H128      1.0  0.45152  0.61861  0.20060  1.0000
  H   H129      1.0  0.45879  0.63187  0.30672  1.0000
  C   C75       1.0  0.42649  0.53198  0.30065  1.0000
  H   H130      1.0  0.38853  0.59210  0.21532  1.0000
  H   H131      1.0  0.45217  0.54382  0.50919  1.0000
  H   H132      1.0  0.49300  0.58888  0.49494  1.0000
  C   C76       1.0  0.45843  0.68892  0.11952  1.0000
  C   C77       1.0  0.46620  0.55407  0.53865  1.0000
  C   C78       1.0  0.47305  0.71622  0.13409  1.0000
  H   H133      1.0  0.46748  0.55868  0.27448  1.0000
  H   H134      1.0  0.48536  0.72181  0.16663  1.0000
  C   C79       1.0  0.41097  0.52765  0.20280  1.0000
  C   C80       1.0  0.43851  0.54356  0.21565  1.0000
  S   S38       1.0  0.43654  0.53762  0.36171  1.0000
  H   H135      1.0  0.19116  0.52560  0.50378  1.0000
  C   C81       1.0  0.37645  0.67938  0.09548  1.0000
  C   C82       1.0  0.29805  0.72712  0.06219  1.0000
  H   H136      1.0  0.45377  0.55464  0.18797  1.0000
  H   H137      1.0  0.42956  0.66069  0.06805  1.0000
  C   C83       1.0  0.44622  0.54578  0.26453  1.0000
  C   C84       1.0  0.31487  0.61145  0.07864  1.0000
  H   H138      1.0  0.12288  0.53930  0.51005  1.0000
  C   C85       1.0  0.48935  0.57966  0.53059  1.0000
  C   C86       1.0  0.47300  0.73654  0.10500  1.0000
  H   H139      1.0  0.45304  0.65090  0.26076  1.0000
  C   C87       1.0  0.18225  0.53820  0.49589  1.0000
  H   H140      1.0  0.41123  0.73314  0.08584  1.0000
  H   H141      1.0  0.04851  0.62374  0.52723  1.0000
  C   C88       1.0  0.14374  0.54590  0.49925  1.0000
  C   C89       1.0  0.40299  0.61117  0.23478  1.0000
  C   C90       1.0  0.43992  0.60166  0.22644  1.0000
  N   N8        1.0  0.42396  0.60799  0.26126  1.0000
  H   H142      1.0  0.41256  0.62769  0.20709  1.0000
  S   S39       1.0  0.17679  0.64846  0.51221  1.0000
  H   H143      1.0  0.39670  0.56578  0.27832  1.0000
  H   H144      1.0  0.38413  0.71774  0.16141  1.0000
  H   H145      1.0  0.39071  0.61629  0.25979  1.0000
  C   C91       1.0  0.44257  0.63358  0.28681  1.0000
  C   C92       1.0  0.36513  0.70931  0.13931  1.0000
  N   N9        1.0  0.36926  0.70099  0.09062  1.0000
  H   H146      1.0  0.35944  0.72546  0.13684  1.0000
  H   H147      1.0  0.34841  0.69185  0.15941  1.0000
  C   C93       1.0  0.34469  0.59257  0.06683  1.0000
  H   H148      1.0  0.33758  0.70624  0.05859  1.0000
  C   C94       1.0  0.34375  0.69058  0.06236  1.0000
  H   H149      1.0  0.24101  0.76311  0.50655  1.0000
  C   C95       1.0  0.32508  0.76996  0.52139  1.0000
  C   C96       1.0  0.34592  0.76095  0.07417  1.0000
  H   H150      1.0  0.37029  0.76703  0.50295  1.0000
  H   H151      1.0  0.37949  0.67244  0.05935  1.0000
  H   H152      1.0  0.04231  0.59085  0.35873  1.0000
  C   C97       1.0  0.25503  0.76974  0.53684  1.0000
  C   C98       1.0  0.44312  0.70207  0.04785  1.0000
  H   H153      1.0  0.49595  0.69046  0.04257  1.0000
  H   H154      1.0  0.53164  0.71548  0.04510  1.0000
  H   H155      1.0  0.03630  0.52908  0.47939  1.0000
  H   H156      1.0  0.21324  0.61891  0.54400  1.0000
  S   S40       1.0  0.26222  0.62955  0.99483  1.0000
  H   H157      1.0  0.51646  0.59185  0.64392  1.0000
  S   S41       1.0  0.27694  0.70186  0.97550  1.0000
  C   C99       1.0  0.32123  0.62239  0.03177  1.0000
  S   S42       1.0  0.19386  0.56411  0.95158  1.0000
  C   C100      1.0  0.20963  0.56431  0.78834  1.0000
  H   H158      1.0  0.22908  0.60796  0.88484  1.0000
  H   H159      1.0  0.21123  0.63680  0.67326  1.0000
  C   C101      1.0  0.52406  0.62836  0.88605  1.0000
  S   S43       1.0  0.21623  0.56416  0.72578  1.0000
  C   C102      1.0  0.25625  0.75039  0.56660  1.0000
  C   C103      1.0  0.35085  0.75982  0.02465  1.0000
  C   C104      1.0  0.19965  0.56508  0.88848  1.0000
  C   C105      1.0  0.21840  0.58911  0.86471  1.0000
  H   H160      1.0  0.23088  0.61972  0.67462  1.0000
  H   H161      1.0  0.29694  0.76407  0.81550  1.0000
  Fe  Fe23      1.0  0.40606  0.59584  0.02562  1.0000
  Fe  Fe24      1.0  0.21690  0.60141  0.99882  1.0000
  C   C106      1.0  0.25124  0.55468  0.01013  1.0000
  H   H162      1.0  0.27695  0.52686  0.98726  1.0000
  C   C107      1.0  0.33953  0.61865  0.00265  1.0000
  H   H163      1.0  0.23791  0.60730  0.79645  1.0000
  H   H164      1.0  0.34455  0.62728  0.96650  1.0000
  S   S44       1.0  0.23604  0.71486  0.55616  1.0000
  H   H165      1.0  0.25242  0.58117  0.92951  1.0000
  C   C108      1.0  0.30315  0.72530  0.01310  1.0000
  C   C109      1.0  0.32948  0.74191  0.99417  1.0000
  H   H166      1.0  0.33352  0.74032  0.95629  1.0000
  N   N10       1.0  0.20079  0.60641  0.61790  1.0000
  C   C110      1.0  0.20014  0.58022  0.61191  1.0000
  C   C111      1.0  0.17300  0.60218  0.61045  1.0000
  C   C112      1.0  0.21978  0.62624  0.58180  1.0000
  C   C113      1.0  0.21019  0.61690  0.66743  1.0000
  H   H167      1.0  0.47076  0.68124  0.96517  1.0000
  C   C114      1.0  0.35141  0.60385  0.02027  1.0000
  H   H168      1.0  0.24092  0.62979  0.58621  1.0000
  H   H169      1.0  0.15813  0.58721  0.63693  1.0000
  H   H170      1.0  0.16534  0.59427  0.57338  1.0000
  H   H171      1.0  0.17270  0.62155  0.61478  1.0000
  H   H172      1.0  0.24462  0.53634  0.03322  1.0000
  H   H173      1.0  0.22079  0.64630  0.58518  1.0000
  C   C115      1.0  0.28303  0.54576  0.96613  1.0000
  C   C116      1.0  0.18586  0.54077  0.86201  1.0000
  C   C117      1.0  0.22337  0.58870  0.81470  1.0000
  H   H174      1.0  0.18571  0.56466  0.63811  1.0000
  H   H175      1.0  0.26701  0.75957  0.91098  1.0000
  H   H176      1.0  0.27551  0.74458  0.62925  1.0000
  H   H177      1.0  0.24250  0.52503  0.89939  1.0000
  H   H178      1.0  0.30068  0.56268  0.98526  1.0000
  H   H179      1.0  0.45920  0.64380  0.72555  1.0000
  H   H180      1.0  0.23370  0.55843  0.00787  1.0000
  H   H181      1.0  0.53041  0.75128  0.96256  1.0000
  N   N11       1.0  0.51406  0.70836  0.97367  1.0000
  H   H182      1.0  0.28333  0.74027  0.89601  1.0000
  H   H183      1.0  0.28692  0.59398  0.94934  1.0000
  S   S45       1.0  0.20670  0.63440  0.01230  1.0000
  H   H184      1.0  0.19622  0.60239  0.69551  1.0000
  H   H185      1.0  0.22065  0.58243  0.61823  1.0000
  S   S46       1.0  0.41888  0.56446  0.01696  1.0000
  C   C118      1.0  0.42785  0.59427  0.68472  1.0000
  H   H186      1.0  0.41390  0.59858  0.66286  1.0000
  S   S47       1.0  0.49683  0.60607  0.97132  1.0000
  S   S48       1.0  0.44885  0.63122  0.02106  1.0000
  H   H187      1.0  0.19351  0.57187  0.57488  1.0000
  H   H188      1.0  0.49658  0.62192  0.69677  1.0000
  C   C119      1.0  0.47454  0.60748  0.70404  1.0000
  Fe  Fe25      1.0  0.25245  0.66208  0.01505  1.0000
  H   H189      1.0  0.47060  0.58656  0.69659  1.0000
  H   H190      1.0  0.42288  0.59470  0.72375  1.0000
  H   H191      1.0  0.34616  0.68447  0.02513  1.0000
  C   C120      1.0  0.50258  0.58144  0.61449  1.0000
  C   C121      1.0  0.47954  0.55562  0.62243  1.0000
  C   C122      1.0  0.50735  0.59358  0.56858  1.0000
  H   H192      1.0  0.47577  0.54628  0.65797  1.0000
  N   N12       1.0  0.26005  0.55112  0.96140  1.0000
  H   H193      1.0  0.27500  0.57396  0.89497  1.0000
  H   H194      1.0  0.42293  0.57309  0.67609  1.0000
  H   H195      1.0  0.43182  0.69651  0.01413  1.0000
  C   C123      1.0  0.50079  0.62178  0.91429  1.0000
  C   C124      1.0  0.48168  0.62867  0.89738  1.0000
  C   C125      1.0  0.48620  0.64261  0.85308  1.0000
  C   C126      1.0  0.50964  0.64943  0.82516  1.0000
  H   H196      1.0  0.50668  0.72593  0.03699  1.0000
  S   S49       1.0  0.51498  0.66759  0.77056  1.0000
  H   H197      1.0  0.46351  0.62339  0.91856  1.0000
  H   H198      1.0  0.47150  0.64815  0.84050  1.0000
  H   H199      1.0  0.48442  0.65733  0.67841  1.0000
  H   H200      1.0  0.48143  0.71663  0.95927  1.0000
  H   H201      1.0  0.45051  0.61876  0.59875  1.0000
  C   C127      1.0  0.48746  0.70106  0.95128  1.0000
  S   S50       1.0  0.37357  0.59860  0.98293  1.0000
  C   C128      1.0  0.46113  0.54208  0.58463  1.0000
  C   C129      1.0  0.27452  0.75938  0.60588  1.0000
  C   C130      1.0  0.46265  0.61283  0.62226  1.0000
  H   H202      1.0  0.47121  0.60885  0.74359  1.0000
  H   H203      1.0  0.48473  0.62669  0.61349  1.0000
  N   N13       1.0  0.45691  0.61411  0.67430  1.0000
  C   C131      1.0  0.23685  0.52792  0.93677  1.0000
  H   H204      1.0  0.45746  0.59189  0.61149  1.0000
  Fe  Fe26      1.0  0.46186  0.60004  0.01985  1.0000
  H   H205      1.0  0.44952  0.64758  0.66510  1.0000
  C   C132      1.0  0.46265  0.64189  0.68625  1.0000
  C   C133      1.0  0.26904  0.57615  0.93252  1.0000
  C   C134      1.0  0.19083  0.54035  0.81213  1.0000
  H   H206      1.0  0.29061  0.54356  0.93002  1.0000
  H   H207      1.0  0.31243  0.63407  0.01807  1.0000
  Fe  Fe27      1.0  0.19393  0.52298  0.68932  1.0000
  C   C135      1.0  0.52845  0.64205  0.84151  1.0000
  H   H208      1.0  0.50578  0.66699  0.97618  1.0000
  H   H209      1.0  0.21904  0.53119  0.93343  1.0000
  H   H210      1.0  0.52297  0.68529  0.92207  1.0000
  S   S51       1.0  0.46295  0.75432  0.01910  1.0000
  H   H211      1.0  0.26801  0.57231  0.02949  1.0000
  C   C136      1.0  0.51202  0.71016  0.02689  1.0000
  H   H212      1.0  0.48817  0.69923  0.91113  1.0000
  H   H213      1.0  0.39551  0.71939  0.02850  1.0000
  C   C137      1.0  0.52136  0.68735  0.96198  1.0000
  H   H214      1.0  0.33125  0.76295  0.87237  1.0000
  H   H215      1.0  0.32223  0.76344  0.56010  1.0000
  C   C138      1.0  0.28687  0.75987  0.91171  1.0000
  H   H216      1.0  0.29242  0.76003  0.95051  1.0000
  H   H217      1.0  0.17125  0.52214  0.88015  1.0000
  H   H218      1.0  0.17999  0.52150  0.79208  1.0000
  S   S52       1.0  0.52396  0.91595  0.49377  1.0000
  S   S53       1.0  0.37255  0.78082  0.11450  1.0000
  H   H219      1.0  0.51961  0.89385  0.26884  1.0000
  H   H220      1.0  0.52096  0.83018  0.18677  1.0000
  H   H221      1.0  0.49529  0.85707  0.49801  1.0000
  H   H222      1.0  0.37671  0.81850  0.45285  1.0000
  C   C139      1.0  0.53311  0.95469  0.07235  1.0000
  H   H223      1.0  0.39467  0.80181  0.51784  1.0000
  H   H224      1.0  0.52677  0.97019  0.07790  1.0000
  S   S54       1.0  0.44377  0.84516  0.08702  1.0000
  H   H225      1.0  0.34288  0.82334  0.53461  1.0000
  H   H226      1.0  0.47945  0.90191  0.13029  1.0000
  C   C140      1.0  0.51818  0.86218  0.22358  1.0000
  H   H227      1.0  0.38590  0.97955  0.52797  1.0000
  Fe  Fe28      1.0  0.47468  0.83598  0.11996  1.0000
  S   S55       1.0  0.49838  0.86662  0.17883  1.0000
  H   H228      1.0  0.37666  0.93297  0.50198  1.0000
  S   S56       1.0  0.44502  0.79095  0.12542  1.0000
  Fe  Fe29      1.0  0.41572  0.80009  0.08629  1.0000
  C   C141      1.0  0.48444  0.86429  0.52016  1.0000
  C   C142      1.0  0.49740  0.92280  0.12584  1.0000
  H   H229      1.0  0.51233  0.92515  0.15449  1.0000
  H   H230      1.0  0.33910  0.94363  0.50759  1.0000
  Fe  Fe30      1.0  0.45955  0.78906  0.05023  1.0000
  H   H231      1.0  0.49035  0.93755  0.13344  1.0000
  N   N14       1.0  0.50955  0.92674  0.07678  1.0000
  S   S57       1.0  0.49202  0.83322  0.04787  1.0000
  C   C143      1.0  0.49369  0.89219  0.52295  1.0000
  H   H232      1.0  0.37876  0.83393  0.53762  1.0000
  C   C144      1.0  0.52625  0.87909  0.26459  1.0000
  H   H233      1.0  0.27057  0.81261  0.52384  1.0000
  C   C145      1.0  0.52692  0.84318  0.21839  1.0000
  C   C146      1.0  0.35588  0.80101  0.46072  1.0000
  H   H234      1.0  0.34075  0.80729  0.45043  1.0000
  C   C147      1.0  0.37338  0.78487  0.52463  1.0000
  H   H235      1.0  0.50173  0.88582  0.07306  1.0000
  N   N15       1.0  0.35299  0.79301  0.51239  1.0000
  H   H236      1.0  0.35255  0.78392  0.43653  1.0000
  H   H237      1.0  0.30923  0.77556  0.51296  1.0000
  C   C148      1.0  0.51896  0.90697  0.06902  1.0000
  H   H238      1.0  0.48116  0.93698  0.04440  1.0000
  C   C149      1.0  0.37289  0.92677  0.54080  1.0000
  H   H239      1.0  0.47072  0.90145  0.04215  1.0000
  H   H240      1.0  0.47136  0.00650  0.61045  1.0000
  C   C150      1.0  0.29154  0.78734  0.61527  1.0000
  S   S58       1.0  0.31133  0.84212  0.59712  1.0000
  H   H241      1.0  0.31622  0.80064  0.81331  1.0000
  C   C151      1.0  0.29021  0.80672  0.58591  1.0000
  H   H242      1.0  0.30528  0.79383  0.64588  1.0000
  S   S59       1.0  0.36351  0.88939  0.70381  1.0000
  H   H243      1.0  0.28089  0.78354  0.83162  1.0000
  N   N16       1.0  0.36237  0.94214  0.56790  1.0000
  C   C152      1.0  0.30022  0.78287  0.83415  1.0000
  C   C153      1.0  0.45658  0.00740  0.63437  1.0000
  H   H244      1.0  0.48282  0.84296  0.69672  1.0000
  N   N17       1.0  0.30855  0.78357  0.88518  1.0000
  H   H245      1.0  0.48502  0.82903  0.61390  1.0000
  H   H246      1.0  0.37225  0.77948  0.56379  1.0000
  Fe  Fe31      1.0  0.34854  0.85693  0.64580  1.0000
  C   C154      1.0  0.27184  0.79779  0.54670  1.0000
  N   N18       1.0  0.51983  0.85830  0.65459  1.0000
  C   C155      1.0  0.41815  0.01012  0.69444  1.0000
  C   C156      1.0  0.46086  0.84566  0.54567  1.0000
  H   H247      1.0  0.40324  0.01117  0.71777  1.0000
  C   C157      1.0  0.38272  0.97158  0.56573  1.0000
  C   C158      1.0  0.31286  0.80892  0.90837  1.0000
  S   S60       1.0  0.37149  0.85272  0.82065  1.0000
  H   H248      1.0  0.51368  0.86465  0.72947  1.0000
  S   S61       1.0  0.36054  0.83033  0.68630  1.0000
  H   H249      1.0  0.34195  0.91090  0.62195  1.0000
  H   H250      1.0  0.52763  0.90873  0.03196  1.0000
  Fe  Fe32      1.0  0.45908  0.83945  0.01556  1.0000
  S   S62       1.0  0.47044  0.86922  0.95377  1.0000
  H   H251      1.0  0.49703  0.87748  0.63251  1.0000
  C   C159      1.0  0.50471  0.84864  0.70097  1.0000
  S   S63       1.0  0.42814  0.79508  0.01152  1.0000
  Fe  Fe33      1.0  0.37917  0.86430  0.74099  1.0000
  H   H252      1.0  0.50945  0.81858  0.62814  1.0000
  Fe  Fe34      1.0  0.40070  0.85403  0.64787  1.0000
  S   S64       1.0  0.38778  0.87861  0.60402  1.0000
  S   S65       1.0  0.41894  0.83184  0.60989  1.0000
  Fe  Fe35      1.0  0.40414  0.90895  0.66474  1.0000
  S   S66       1.0  0.43309  0.95205  0.63843  1.0000
  S   S67       1.0  0.42065  0.88585  0.70533  1.0000
  H   H253      1.0  0.37646  0.98379  0.58849  1.0000
  C   C160      1.0  0.43574  0.98339  0.65561  1.0000
  H   H254      1.0  0.50508  0.83039  0.71474  1.0000
  C   C161      1.0  0.41665  0.98485  0.68624  1.0000
  H   H255      1.0  0.40068  0.96661  0.70335  1.0000
  H   H256      1.0  0.39270  0.93038  0.55619  1.0000
  C   C162      1.0  0.45596  0.88283  0.57715  1.0000
  H   H257      1.0  0.52834  0.89951  0.66364  1.0000
  H   H258      1.0  0.52918  0.88981  0.60187  1.0000
  C   C163      1.0  0.35752  0.93296  0.61897  1.0000
  C   C164      1.0  0.47919  0.90140  0.55086  1.0000
  H   H259      1.0  0.49709  0.92478  0.00238  1.0000
  C   C165      1.0  0.44289  0.86449  0.91702  1.0000
  C   C166      1.0  0.44800  0.87509  0.86976  1.0000
  C   C167      1.0  0.42629  0.87153  0.83988  1.0000
  C   C168      1.0  0.39938  0.85791  0.85745  1.0000
  C   C169      1.0  0.39443  0.84801  0.90532  1.0000
  C   C170      1.0  0.41602  0.85084  0.93472  1.0000
  H   H260      1.0  0.46878  0.88587  0.85603  1.0000
  H   H261      1.0  0.43052  0.87963  0.80354  1.0000
  H   H262      1.0  0.37394  0.83821  0.91998  1.0000
  H   H263      1.0  0.41194  0.84294  0.97139  1.0000
  H   H264      1.0  0.35032  0.94457  0.64114  1.0000
  H   H265      1.0  0.40304  0.97580  0.57918  1.0000
  H   H266      1.0  0.48628  0.92297  0.55314  1.0000
  H   H267      1.0  0.32871  0.82727  0.88879  1.0000
  C   C171      1.0  0.51858  0.88235  0.63746  1.0000
  H   H268      1.0  0.32791  0.94847  0.56601  1.0000
  C   C172      1.0  0.44693  0.85497  0.57487  1.0000
  C   C173      1.0  0.48876  0.92241  0.03992  1.0000
  H   H269      1.0  0.31980  0.81045  0.94662  1.0000
  H   H270      1.0  0.44544  0.89024  0.59984  1.0000
  C   C174      1.0  0.50724  0.83638  0.61805  1.0000
  H   H271      1.0  0.35543  0.81099  0.58217  1.0000
  H   H272      1.0  0.37110  0.77248  0.00989  1.0000
  H   H273      1.0  0.29375  0.81007  0.90865  1.0000
  H   H274      1.0  0.37663  0.93587  0.63596  1.0000
  C   C175      1.0  0.33427  0.78263  0.88650  1.0000
  H   H275      1.0  0.35053  0.79909  0.86391  1.0000
  H   H276      1.0  0.34235  0.78520  0.92409  1.0000
  H   H277      1.0  0.51710  0.84349  0.58179  1.0000
  H   H278      1.0  0.35824  0.90442  0.54240  1.0000
  C   C176      1.0  0.35768  0.81635  0.54293  1.0000
  H   H279      1.0  0.45372  0.82409  0.54339  1.0000
  H   H280      1.0  0.32054  0.91506  0.54763  1.0000
  C   C177      1.0  0.33632  0.93711  0.54627  1.0000
  S   S68       1.0  0.64068  0.21266  0.11925  1.0000
  S   S69       1.0  0.57920  0.16350  0.08944  1.0000
  Fe  Fe36      1.0  0.60415  0.20889  0.08028  1.0000
  H   H281      1.0  0.69396  0.20606  0.10984  1.0000
  Fe  Fe37      1.0  0.61744  0.16707  0.12163  1.0000
  S   S70       1.0  0.61813  0.14155  0.18413  1.0000
  C   C178      1.0  0.67267  0.18150  0.31639  1.0000
  C   C179      1.0  0.61790  0.14550  0.41999  1.0000
  H   H282      1.0  0.65382  0.02282  0.37252  1.0000
  S   S71       1.0  0.67415  0.13536  0.45534  1.0000
  H   H283      1.0  0.63692  0.15091  0.39920  1.0000
  H   H284      1.0  0.60058  0.13655  0.39389  1.0000
  H   H285      1.0  0.67349  0.21821  0.29338  1.0000
  C   C180      1.0  0.71318  0.26652  0.09359  1.0000
  S   S72       1.0  0.58672  0.23612  0.09696  1.0000
  H   H286      1.0  0.54371  0.24280  0.50898  1.0000
  C   C181      1.0  0.66241  0.15389  0.30668  1.0000
  C   C182      1.0  0.62416  0.19045  0.40840  1.0000
  H   H287      1.0  0.70203  0.17615  0.22389  1.0000
  C   C183      1.0  0.67517  0.04608  0.43571  1.0000
  C   C184      1.0  0.68301  0.04463  0.48322  1.0000
  H   H288      1.0  0.69495  0.06314  0.50376  1.0000
  H   H289      1.0  0.57639  0.15320  0.44820  1.0000
  C   C185      1.0  0.63869  0.15721  0.23537  1.0000
  C   C186      1.0  0.64884  0.18478  0.24535  1.0000
  H   H290      1.0  0.60709  0.18245  0.38177  1.0000
  H   H291      1.0  0.85573  0.23842  0.50011  1.0000
  C   C187      1.0  0.64532  0.14176  0.26640  1.0000
  H   H292      1.0  0.59053  0.14539  0.49948  1.0000
  S   S73       1.0  0.68290  0.07733  0.40811  1.0000
  H   H293      1.0  0.62558  0.20879  0.42587  1.0000
  C   C188      1.0  0.64360  0.18090  0.47833  1.0000
  H   H294      1.0  0.64344  0.19727  0.38745  1.0000
  H   H295      1.0  0.63748  0.12039  0.25890  1.0000
  N   N19       1.0  0.62004  0.16959  0.44480  1.0000
  H   H296      1.0  0.64348  0.19673  0.22214  1.0000
  C   C189      1.0  0.59456  0.16150  0.47242  1.0000
  S   S74       1.0  0.63319  0.16174  0.04986  1.0000
  H   H297      1.0  0.69043  0.21597  0.17015  1.0000
  H   H298      1.0  0.59559  0.17898  0.49266  1.0000
  C   C190      1.0  0.66571  0.19686  0.28583  1.0000
  H   H299      1.0  0.66769  0.14189  0.33005  1.0000
  H   H300      1.0  0.74342  0.18389  0.14341  1.0000
  Fe  Fe38      1.0  0.70305  0.11948  0.44261  1.0000
  H   H301      1.0  0.67633  0.18059  0.15533  1.0000
  H   H302      1.0  0.72423  0.18724  0.09448  1.0000
  C   C191      1.0  0.72389  0.18318  0.13413  1.0000
  C   C192      1.0  0.84324  0.23968  0.52874  1.0000
  H   H303      1.0  0.74430  0.23615  0.11386  1.0000
  Fe  Fe39      1.0  0.70521  0.17296  0.41666  1.0000
  Fe  Fe40      1.0  0.69925  0.15437  0.52186  1.0000
  H   H304      1.0  0.73858  0.19749  0.22697  1.0000
  S   S75       1.0  0.73286  0.15638  0.39902  1.0000
  S   S76       1.0  0.69402  0.19750  0.36651  1.0000
  Fe  Fe41      1.0  0.75327  0.17434  0.47075  1.0000
  S   S77       1.0  0.79961  0.20077  0.47686  1.0000
  S   S78       1.0  0.72775  0.19364  0.48469  1.0000
  C   C193      1.0  0.74306  0.23089  0.15309  1.0000
  S   S79       1.0  0.72603  0.13583  0.51284  1.0000
  H   H305      1.0  0.62747  0.03448  0.49032  1.0000
  H   H306      1.0  0.76309  0.23309  0.16362  1.0000
  H   H307      1.0  0.74058  0.24647  0.17355  1.0000
  H   H308      1.0  0.64562  0.19876  0.49862  1.0000
  H   H309      1.0  0.71685  0.21160  0.23797  1.0000
  C   C194      1.0  0.69409  0.20138  0.14900  1.0000
  C   C195      1.0  0.71942  0.19682  0.21515  1.0000
  N   N20       1.0  0.72016  0.20308  0.16289  1.0000
  C   C196      1.0  0.72057  0.25974  0.04950  1.0000
  C   C197      1.0  0.81462  0.22284  0.52696  1.0000
  H   H310      1.0  0.69262  0.25471  0.10714  1.0000
  H   H311      1.0  0.70686  0.16201  0.14080  1.0000
  H   H312      1.0  0.61470  0.12932  0.44647  1.0000
  C   C198      1.0  0.60743  0.02503  0.47120  1.0000
  H   H313      1.0  0.66323  0.18760  0.45855  1.0000
  H   H314      1.0  0.60241  0.04139  0.46471  1.0000
  H   H315      1.0  0.64150  0.16550  0.50546  1.0000
  C   C199      1.0  0.60573  0.26867  0.07082  1.0000
  H   H316      1.0  0.59220  0.08464  0.53476  1.0000
  Fe  Fe42      1.0  0.65397  0.20728  0.04522  1.0000
  C   C200      1.0  0.65982  0.02186  0.40939  1.0000
  H   H317      1.0  0.56724  0.08315  0.79522  1.0000
  H   H318      1.0  0.54668  0.23141  0.01623  1.0000
  S   S80       1.0  0.56836  0.13187  0.96109  1.0000
  S   S81       1.0  0.61915  0.20699  0.00570  1.0000
  H   H319      1.0  0.57746  0.11657  0.81758  1.0000
  H   H320      1.0  0.62594  0.13239  0.80078  1.0000
  H   H321      1.0  0.80983  0.26534  0.80038  1.0000
  H   H322      1.0  0.64267  0.10745  0.54443  1.0000
  N   N21       1.0  0.54700  0.20645  0.95783  1.0000
  H   H323      1.0  0.79866  0.24340  0.63222  1.0000
  C   C201      1.0  0.85580  0.25797  0.56747  1.0000
  C   C202      1.0  0.57562  0.22608  0.94416  1.0000
  H   H324      1.0  0.63284  0.25924  0.03118  1.0000
  H   H325      1.0  0.61669  0.09890  0.77955  1.0000
  C   C203      1.0  0.63049  0.15143  0.60900  1.0000
  C   C204      1.0  0.60203  0.13861  0.60344  1.0000
  S   S82       1.0  0.69716  0.23096  0.01650  1.0000
  H   H326      1.0  0.64130  0.17038  0.62883  1.0000
  H   H327      1.0  0.59085  0.14744  0.61963  1.0000
  C   C205      1.0  0.56625  0.14449  0.90386  1.0000
  C   C206      1.0  0.58692  0.16990  0.88763  1.0000
  C   C207      1.0  0.58469  0.17985  0.84228  1.0000
  C   C208      1.0  0.56200  0.16430  0.81249  1.0000
  S   S83       1.0  0.56047  0.17765  0.75579  1.0000
  C   C209      1.0  0.54346  0.12893  0.87416  1.0000
  H   H328      1.0  0.60482  0.18177  0.90974  1.0000
  H   H329      1.0  0.60081  0.19956  0.82994  1.0000
  H   H330      1.0  0.55775  0.19499  0.02504  1.0000
  H   H331      1.0  0.75330  0.27037  0.99818  1.0000
  N   N22       1.0  0.59391  0.11594  0.74749  1.0000
  C   C210      1.0  0.59852  0.14303  0.73321  1.0000
  C   C211      1.0  0.58598  0.09802  0.70446  1.0000
  H   H332      1.0  0.60285  0.10571  0.67724  1.0000
  C   C212      1.0  0.61940  0.11893  0.76826  1.0000
  H   H333      1.0  0.58815  0.23638  0.97670  1.0000
  C   C213      1.0  0.81123  0.24251  0.60335  1.0000
  H   H334      1.0  0.60380  0.15685  0.76501  1.0000
  S   S84       1.0  0.68072  0.15741  0.59207  1.0000
  C   C214      1.0  0.64513  0.14025  0.58758  1.0000
  H   H335      1.0  0.61557  0.15316  0.70663  1.0000
  C   C215      1.0  0.54133  0.13879  0.82846  1.0000
  S   S85       1.0  0.54996  0.16265  0.62118  1.0000
  H   H336      1.0  0.55246  0.10206  0.77014  1.0000
  C   C216      1.0  0.58822  0.11444  0.57696  1.0000
  H   H337      1.0  0.63655  0.12808  0.74144  1.0000
  H   H338      1.0  0.77662  0.21134  0.56370  1.0000
  H   H339      1.0  0.56773  0.09658  0.68606  1.0000
  H   H340      1.0  0.57994  0.14162  0.71636  1.0000
  C   C217      1.0  0.57180  0.10386  0.78418  1.0000
  C   C218      1.0  0.79866  0.22434  0.56449  1.0000
  H   H341      1.0  0.58086  0.07698  0.71433  1.0000
  Fe  Fe43      1.0  0.59688  0.16189  0.01709  1.0000
  C   C219      1.0  0.83980  0.25960  0.60476  1.0000
  S   S86       1.0  0.55281  0.09834  0.56903  1.0000
  H   H342      1.0  0.55603  0.17473  0.97395  1.0000
  C   C220      1.0  0.54642  0.18567  0.99092  1.0000
  H   H343      1.0  0.57689  0.24219  0.91948  1.0000
  H   H344      1.0  0.87786  0.27055  0.56869  1.0000
  C   C221      1.0  0.63135  0.11618  0.56078  1.0000
  H   H345      1.0  0.58544  0.21583  0.92525  1.0000
  C   C222      1.0  0.60287  0.10325  0.55555  1.0000
  C   C223      1.0  0.53495  0.22108  0.98277  1.0000
  H   H346      1.0  0.53961  0.18155  0.89457  1.0000
  H   H347      1.0  0.53512  0.23701  0.95901  1.0000
  H   H348      1.0  0.60144  0.02211  0.56781  1.0000
  H   H349      1.0  0.57580  0.02804  0.54141  1.0000
  H   H350      1.0  0.77872  0.51118  0.49300  1.0000
  Fe  Fe44      1.0  0.63550  0.41729  0.09495  1.0000
  S   S87       1.0  0.60863  0.42060  0.15266  1.0000
  S   S88       1.0  0.66532  0.40203  0.09957  1.0000
  S   S89       1.0  0.86946  0.51071  0.46272  1.0000
  H   H351      1.0  0.83282  0.48030  0.14115  1.0000
  C   C224      1.0  0.84784  0.49669  0.16522  1.0000
  Fe  Fe45      1.0  0.55817  0.36792  0.46637  1.0000
  C   C225      1.0  0.55763  0.37791  0.26314  1.0000
  H   H352      1.0  0.80671  0.29467  0.49108  1.0000
  H   H353      1.0  0.00084  0.48652  0.51860  1.0000
  H   H354      1.0  0.93296  0.45748  0.04946  1.0000
  S   S90       1.0  0.60214  0.39255  0.49013  1.0000
  H   H355      1.0  0.59770  0.41438  0.33489  1.0000
  H   H356      1.0  0.60847  0.41889  0.39708  1.0000
  H   H357      1.0  0.80293  0.49149  0.25308  1.0000
  C   C226      1.0  0.58783  0.39368  0.19241  1.0000
  C   C227      1.0  0.57389  0.39854  0.22982  1.0000
  C   C228      1.0  0.55492  0.35213  0.25895  1.0000
  S   S91       1.0  0.54308  0.32581  0.43796  1.0000
  C   C229      1.0  0.56860  0.34713  0.22118  1.0000
  C   C230      1.0  0.58519  0.36791  0.18813  1.0000
  H   H358      1.0  0.57580  0.41842  0.23328  1.0000
  H   H359      1.0  0.78746  0.31014  0.04530  1.0000
  H   H360      1.0  0.80499  0.50368  0.14464  1.0000
  H   H361      1.0  0.59588  0.36396  0.15941  1.0000
  N   N23       1.0  0.62923  0.40471  0.35013  1.0000
  C   C231      1.0  0.65291  0.41406  0.38301  1.0000
  C   C232      1.0  0.60950  0.37562  0.35951  1.0000
  C   C233      1.0  0.63868  0.40816  0.29916  1.0000
  C   C234      1.0  0.61578  0.42098  0.35885  1.0000
  H   H362      1.0  0.66343  0.40208  0.37785  1.0000
  H   H363      1.0  0.66821  0.43593  0.37698  1.0000
  H   H364      1.0  0.59105  0.36806  0.33629  1.0000
  H   H365      1.0  0.61872  0.36262  0.35242  1.0000
  C   C235      1.0  0.82489  0.29386  0.50438  1.0000
  H   H366      1.0  0.65319  0.42991  0.29034  1.0000
  H   H367      1.0  0.62121  0.40089  0.27356  1.0000
  H   H368      1.0  0.63003  0.44302  0.35208  1.0000
  H   H369      1.0  0.86339  0.51312  0.14164  1.0000
  S   S92       1.0  0.53512  0.32610  0.30113  1.0000
  H   H370      1.0  0.64642  0.41183  0.42178  1.0000
  H   H371      1.0  0.60225  0.37214  0.39780  1.0000
  H   H372      1.0  0.64916  0.39639  0.29133  1.0000
  H   H373      1.0  0.65222  0.43899  0.52146  1.0000
  Fe  Fe46      1.0  0.90767  0.51322  0.49111  1.0000
  C   C236      1.0  0.95385  0.46021  0.05281  1.0000
  H   H374      1.0  0.79761  0.46798  0.20486  1.0000
  H   H375      1.0  0.53804  0.40083  0.05793  1.0000
  C   C237      1.0  0.87405  0.31737  0.51277  1.0000
  H   H376      1.0  0.83257  0.34470  0.50868  1.0000
  H   H377      1.0  0.83651  0.32745  0.42791  1.0000
  C   C238      1.0  0.92239  0.41995  0.53249  1.0000
  S   S93       1.0  0.82663  0.40757  0.10151  1.0000
  S   S94       1.0  0.86180  0.37588  0.09960  1.0000
  Fe  Fe47      1.0  0.81788  0.36476  0.09213  1.0000
  S   S95       1.0  0.78280  0.33314  0.13629  1.0000
  Fe  Fe48      1.0  0.87081  0.41911  0.10122  1.0000
  S   S96       1.0  0.90402  0.45130  0.14810  1.0000
  H   H378      1.0  0.93117  0.49484  0.21735  1.0000
  N   N24       1.0  0.83434  0.50704  0.19805  1.0000
  H   H379      1.0  0.72676  0.29385  0.15474  1.0000
  C   C239      1.0  0.91156  0.45338  0.50079  1.0000
  C   C240      1.0  0.82096  0.51903  0.16909  1.0000
  H   H380      1.0  0.85133  0.42498  0.19695  1.0000
  H   H381      1.0  0.90717  0.46247  0.47030  1.0000
  C   C241      1.0  0.85554  0.45053  0.25800  1.0000
  C   C242      1.0  0.89225  0.45926  0.20163  1.0000
  C   C243      1.0  0.91007  0.48236  0.22877  1.0000
  C   C244      1.0  0.85382  0.32550  0.44252  1.0000
  C   C245      1.0  0.87312  0.47396  0.28446  1.0000
  C   C246      1.0  0.86506  0.44317  0.21683  1.0000
  H   H382      1.0  0.96230  0.49027  0.44657  1.0000
  C   C247      1.0  0.75968  0.45571  0.05680  1.0000
  C   C248      1.0  0.81349  0.48440  0.22781  1.0000
  S   S97       1.0  0.54578  0.38174  0.40022  1.0000
  C   C249      1.0  0.79693  0.44599  0.05434  1.0000
  C   C250      1.0  0.76670  0.29822  0.05862  1.0000
  H   H383      1.0  0.78330  0.45720  0.11886  1.0000
  C   C251      1.0  0.75927  0.30480  0.10284  1.0000
  C   C252      1.0  0.73257  0.28879  0.12051  1.0000
  H   H384      1.0  0.75976  0.36750  0.09963  1.0000
  H   H385      1.0  0.54688  0.38187  0.29165  1.0000
  S   S98       1.0  0.92400  0.51149  0.41779  1.0000
  H   H386      1.0  0.81327  0.44504  0.07245  1.0000
  H   H387      1.0  0.71261  0.32992  0.10870  1.0000
  H   H388      1.0  0.82290  0.47508  0.25051  1.0000
  C   C253      1.0  0.91735  0.43233  0.49304  1.0000
  Fe  Fe49      1.0  0.88783  0.51319  0.38901  1.0000
  H   H389      1.0  0.68731  0.32417  0.06397  1.0000
  H   H390      1.0  0.98942  0.44389  0.07726  1.0000
  H   H391      1.0  0.87314  0.34486  0.43446  1.0000
  H   H392      1.0  0.83440  0.43805  0.26922  1.0000
  H   H393      1.0  0.73396  0.39816  0.05397  1.0000
  S   S99       1.0  0.73814  0.46349  0.09073  1.0000
  C   C254      1.0  0.78048  0.45365  0.08031  1.0000
  H   H394      1.0  0.99567  0.49572  0.43168  1.0000
  C   C255      1.0  0.90054  0.48971  0.27016  1.0000
  H   H395      1.0  0.93577  0.39337  0.04719  1.0000
  C   C256      1.0  0.61332  0.31443  0.05798  1.0000
  C   C257      1.0  0.72055  0.37744  0.06904  1.0000
  C   C258      1.0  0.60854  0.41778  0.53332  1.0000
  H   H396      1.0  0.72292  0.37877  0.10916  1.0000
  H   H397      1.0  0.85448  0.30891  0.42201  1.0000
  H   H398      1.0  0.85861  0.48805  0.18597  1.0000
  H   H399      1.0  0.96797  0.48231  0.53264  1.0000
  S   S100      1.0  0.85941  0.48429  0.33204  1.0000
  H   H400      1.0  0.58277  0.28473  0.10648  1.0000
  C   C259      1.0  0.98446  0.50594  0.44496  1.0000
  Fe  Fe50      1.0  0.69490  0.44123  0.06267  1.0000
  H   H401      1.0  0.91771  0.42551  0.45650  1.0000
  H   H402      1.0  0.56054  0.42056  0.10650  1.0000
  H   H403      1.0  0.56659  0.32721  0.21772  1.0000
  S   S101      1.0  0.66660  0.45814  0.06469  1.0000
  N   N25       1.0  0.85063  0.31972  0.49516  1.0000
  H   H404      1.0  0.61305  0.44560  0.04710  1.0000
  H   H405      1.0  0.69903  0.37177  0.06065  1.0000
  C   C260      1.0  0.70919  0.33037  0.06903  1.0000
  C   C261      1.0  0.99010  0.49769  0.52902  1.0000
  H   H406      1.0  0.95728  0.51799  0.51172  1.0000
  S   S102      1.0  0.92993  0.39389  0.52249  1.0000
  H   H407      1.0  0.60822  0.33004  0.06593  1.0000
  H   H408      1.0  0.86918  0.36194  0.51518  1.0000
  H   H409      1.0  0.91437  0.40772  0.05707  1.0000
  C   C262      1.0  0.59901  0.28886  0.08092  1.0000
  C   C263      1.0  0.84992  0.34217  0.52109  1.0000
  C   C264      1.0  0.60161  0.45668  0.05023  1.0000
  H   H410      1.0  0.60339  0.46340  0.08870  1.0000
  C   C265      1.0  0.55983  0.41476  0.06765  1.0000
  C   C266      1.0  0.75618  0.36598  0.05976  1.0000
  N   N26       1.0  0.99459  0.51879  0.49286  1.0000
  H   H411      1.0  0.89388  0.33632  0.50572  1.0000
  H   H412      1.0  0.91424  0.50787  0.29029  1.0000
  H   H413      1.0  0.87501  0.30030  0.49474  1.0000
  H   H414      1.0  0.55858  0.46118  0.07855  1.0000
  H   H415      1.0  0.01745  0.40634  0.53371  1.0000
  H   H416      1.0  0.71263  0.31458  0.05173  1.0000
  C   C267      1.0  0.93566  0.41181  0.06081  1.0000
  H   H417      1.0  0.82491  0.27635  0.48603  1.0000
  H   H418      1.0  0.95895  0.46327  0.09218  1.0000
  H   H419      1.0  0.57066  0.40291  0.06534  1.0000
  H   H420      1.0  0.94040  0.41394  0.10028  1.0000
  N   N27       1.0  0.72749  0.35763  0.04822  1.0000
  H   H421      1.0  0.76176  0.35103  0.04559  1.0000
  H   H422      1.0  0.86589  0.51980  0.25196  1.0000
  H   H423      1.0  0.77067  0.38611  0.04354  1.0000
  S   S103      1.0  0.68328  0.42541  0.98680  1.0000
  C   C268      1.0  0.61952  0.45805  0.60298  1.0000
  S   S104      1.0  0.87560  0.42490  0.02038  1.0000
  S   S105      1.0  0.65120  0.35026  0.99213  1.0000
  Fe  Fe51      1.0  0.65207  0.43861  0.99184  1.0000
  S   S106      1.0  0.63862  0.45686  0.93238  1.0000
  C   C269      1.0  0.57178  0.43039  0.98484  1.0000
  H   H424      1.0  0.63035  0.42312  0.67126  1.0000
  H   H425      1.0  0.01324  0.38976  0.73098  1.0000
  C   C270      1.0  0.63117  0.40703  0.76246  1.0000
  C   C271      1.0  0.67164  0.45141  0.76934  1.0000
  H   H426      1.0  0.66875  0.45175  0.80931  1.0000
  S   S107      1.0  0.62603  0.48217  0.64833  1.0000
  C   C272      1.0  0.64016  0.29911  0.01350  1.0000
  H   H427      1.0  0.85246  0.48690  0.57816  1.0000
  C   C273      1.0  0.66419  0.48211  0.89502  1.0000
  H   H428      1.0  0.68265  0.47298  0.75676  1.0000
  C   C274      1.0  0.65635  0.49191  0.85505  1.0000
  H   H429      1.0  0.63486  0.48442  0.84835  1.0000
  Fe  Fe52      1.0  0.66958  0.51639  0.64821  1.0000
  N   N28       1.0  0.64514  0.43534  0.74416  1.0000
  H   H430      1.0  0.61096  0.39445  0.74457  1.0000
  C   C275      1.0  0.64991  0.43534  0.69136  1.0000
  C   C276      1.0  0.69204  0.49235  0.90404  1.0000
  S   S108      1.0  0.61923  0.39858  0.02194  1.0000
  N   N29       1.0  0.84120  0.30693  0.78811  1.0000
  H   H431      1.0  0.62750  0.40630  0.80234  1.0000
  H   H432      1.0  0.79840  0.28585  0.76982  1.0000
  S   S109      1.0  0.85454  0.28299  0.65327  1.0000
  S   S110      1.0  0.70483  0.51114  0.66967  1.0000
  H   H433      1.0  0.69832  0.48502  0.93490  1.0000
  H   H434      1.0  0.65965  0.45629  0.67614  1.0000
  H   H435      1.0  0.61233  0.47506  0.02668  1.0000
  C   C277      1.0  0.02955  0.37501  0.67565  1.0000
  H   H436      1.0  0.68542  0.44298  0.76288  1.0000
  C   C278      1.0  0.62777  0.44754  0.75351  1.0000
  H   H437      1.0  0.72926  0.34210  0.97793  1.0000
  Fe  Fe53      1.0  0.65191  0.38709  0.02359  1.0000
  H   H438      1.0  0.65587  0.30283  0.98700  1.0000
  H   H439      1.0  0.81847  0.27431  0.73776  1.0000
  C   C279      1.0  0.71190  0.51240  0.87334  1.0000
  H   H440      1.0  0.64360  0.39712  0.75552  1.0000
  H   H441      1.0  0.83306  0.50632  0.69451  1.0000
  H   H442      1.0  0.94752  0.41473  0.96594  1.0000
  H   H443      1.0  0.66346  0.42690  0.68270  1.0000
  C   C280      1.0  0.63365  0.31935  0.02368  1.0000
  C   C281      1.0  0.72410  0.35676  0.99496  1.0000
  H   H444      1.0  0.62218  0.44620  0.79255  1.0000
  H   H445      1.0  0.60848  0.43729  0.73208  1.0000
  H   H446      1.0  0.63849  0.46947  0.74305  1.0000
  C   C282      1.0  0.79228  0.43975  0.00497  1.0000
  H   H447      1.0  0.58189  0.44825  0.95991  1.0000
  H   H448      1.0  0.85922  0.28477  0.81908  1.0000
  H   H449      1.0  0.86737  0.29362  0.75630  1.0000
  C   C283      1.0  0.64102  0.45880  0.57627  1.0000
  C   C284      1.0  0.67616  0.51132  0.82357  1.0000
  S   S111      1.0  0.88721  0.36494  0.97657  1.0000
  H   H450      1.0  0.87255  0.31355  0.55258  1.0000
  H   H451      1.0  0.66188  0.47489  0.58235  1.0000
  Fe  Fe54      1.0  0.92520  0.37572  0.70266  1.0000
  S   S112      1.0  0.92563  0.33667  0.71340  1.0000
  S   S113      1.0  0.91760  0.40097  0.75712  1.0000
  Fe  Fe55      1.0  0.92961  0.37393  0.59295  1.0000
  S   S114      1.0  0.93005  0.33474  0.59419  1.0000
  C   C285      1.0  0.75577  0.45063  0.00696  1.0000
  Fe  Fe56      1.0  0.89660  0.32101  0.64983  1.0000
  H   H452      1.0  0.99813  0.45950  0.01820  1.0000
  Fe  Fe57      1.0  0.95927  0.35398  0.65671  1.0000
  S   S115      1.0  0.99771  0.35095  0.65064  1.0000
  S   S116      1.0  0.89398  0.35896  0.64338  1.0000
  S   S117      1.0  0.96103  0.39428  0.65100  1.0000
  H   H453      1.0  0.73768  0.37712  0.97830  1.0000
  S   S118      1.0  0.81054  0.42705  0.97321  1.0000
  H   H454      1.0  0.96825  0.47930  0.03334  1.0000
  H   H455      1.0  0.80507  0.49344  0.61977  1.0000
  C   C286      1.0  0.91597  0.44976  0.58738  1.0000
  H   H456      1.0  0.99734  0.50670  0.56564  1.0000
  N   N30       1.0  0.95496  0.43648  0.03339  1.0000
  H   H457      1.0  0.92540  0.41912  0.61039  1.0000
  C   C287      1.0  0.82271  0.51058  0.60076  1.0000
  H   H458      1.0  0.83207  0.33412  0.74860  1.0000
  H   H459      1.0  0.91568  0.45657  0.62396  1.0000
  C   C288      1.0  0.81582  0.28202  0.77346  1.0000
  C   C289      1.0  0.84826  0.32848  0.75145  1.0000
  H   H460      1.0  0.58281  0.41885  0.98012  1.0000
  C   C290      1.0  0.92152  0.42856  0.57969  1.0000
  H   H461      1.0  0.74047  0.45317  0.98816  1.0000
  N   N31       1.0  0.57277  0.43902  0.03579  1.0000
  H   H462      1.0  0.76854  0.43816  0.94273  1.0000
  H   H463      1.0  0.83239  0.30097  0.86469  1.0000
  H   H464      1.0  0.02403  0.39992  0.59419  1.0000
  H   H465      1.0  0.82179  0.28900  0.54383  1.0000
  C   C291      1.0  0.58709  0.41727  0.55970  1.0000
  H   H466      1.0  0.92610  0.42905  0.97632  1.0000
  C   C292      1.0  0.89536  0.37485  0.91554  1.0000
  C   C293      1.0  0.90931  0.36472  0.88810  1.0000
  C   C294      1.0  0.91617  0.37247  0.83930  1.0000
  C   C295      1.0  0.90932  0.39061  0.81797  1.0000
  C   C296      1.0  0.89559  0.40089  0.84558  1.0000
  C   C297      1.0  0.88843  0.39290  0.89414  1.0000
  H   H467      1.0  0.91486  0.35088  0.90465  1.0000
  H   H468      1.0  0.92717  0.36482  0.81845  1.0000
  H   H469      1.0  0.89030  0.41497  0.82923  1.0000
  H   H470      1.0  0.87762  0.40077  0.91497  1.0000
  Fe  Fe58      1.0  0.86354  0.38079  0.01839  1.0000
  C   C298      1.0  0.74740  0.27563  0.03212  1.0000
  C   C299      1.0  0.02639  0.41626  0.56906  1.0000
  H   H471      1.0  0.84763  0.33844  0.56096  1.0000
  C   C300      1.0  0.83703  0.31636  0.83572  1.0000
  C   C301      1.0  0.62689  0.27422  0.03816  1.0000
  H   H472      1.0  0.57594  0.43659  0.61549  1.0000
  C   C302      1.0  0.98301  0.44104  0.03852  1.0000
  C   C303      1.0  0.91120  0.46234  0.54794  1.0000
  H   H473      1.0  0.81985  0.32068  0.83465  1.0000
  C   C304      1.0  0.94724  0.43272  0.98153  1.0000
  H   H474      1.0  0.82143  0.50494  0.56177  1.0000
  S   S119      1.0  0.81864  0.36593  0.01078  1.0000
  Fe  Fe59      1.0  0.83051  0.40974  0.02054  1.0000
  S   S120      1.0  0.90640  0.49018  0.55828  1.0000
  H   H475      1.0  0.85091  0.32180  0.71490  1.0000
  H   H476      1.0  0.55036  0.41711  0.97236  1.0000
  H   H477      1.0  0.01361  0.42449  0.58381  1.0000
  C   C305      1.0  0.77197  0.44254  0.98111  1.0000
  H   H478      1.0  0.86776  0.34732  0.76050  1.0000
  C   C306      1.0  0.63554  0.43850  0.54180  1.0000
  C   C307      1.0  0.59260  0.43723  0.59484  1.0000
  H   H479      1.0  0.56741  0.47279  0.01696  1.0000
  H   H480      1.0  0.83558  0.47426  0.63557  1.0000
  H   H481      1.0  0.66983  0.51851  0.79270  1.0000
  H   H482      1.0  0.96130  0.45086  0.95947  1.0000
  H   H483      1.0  0.85561  0.33550  0.84711  1.0000
  C   C308      1.0  0.85241  0.49235  0.61701  1.0000
  H   H484      1.0  0.88329  0.31924  0.80217  1.0000
  C   C309      1.0  0.86376  0.30087  0.79164  1.0000
  H   H485      1.0  0.70265  0.35050  0.98490  1.0000
  H   H486      1.0  0.53617  0.44161  0.02989  1.0000
  H   H487      1.0  0.98446  0.42343  0.02428  1.0000
  H   H488      1.0  0.87214  0.49605  0.63276  1.0000
  N   N32       1.0  0.84917  0.51653  0.62193  1.0000
  H   H489      1.0  0.56627  0.40133  0.55353  1.0000
  C   C310      1.0  0.03161  0.39153  0.71496  1.0000
  H   H490      1.0  0.73343  0.52046  0.88081  1.0000
  C   C311      1.0  0.55804  0.45432  0.04048  1.0000
  H   H491      1.0  0.55543  0.58899  0.53320  1.0000
  H   H492      1.0  0.82739  0.53105  0.46814  1.0000
  C   C312      1.0  0.85508  0.52808  0.23024  1.0000
  H   H493      1.0  0.00357  0.60092  0.48518  1.0000
  H   H494      1.0  0.83601  0.53605  0.14585  1.0000
  H   H495      1.0  0.98179  0.54816  0.48089  1.0000
  C   C313      1.0  0.82164  0.54166  0.49399  1.0000
  H   H496      1.0  0.57512  0.76476  0.45165  1.0000
  S   S121      1.0  0.87674  0.58103  0.49710  1.0000
  S   S122      1.0  0.90955  0.55891  0.38535  1.0000
  C   C314      1.0  0.01981  0.59433  0.41905  1.0000
  C   C315      1.0  0.84162  0.56662  0.51297  1.0000
  S   S123      1.0  0.93135  0.55875  0.49553  1.0000
  Fe  Fe60      1.0  0.89374  0.55622  0.46187  1.0000
  H   H497      1.0  0.87094  0.54571  0.20920  1.0000
  Fe  Fe61      1.0  0.94509  0.55722  0.41957  1.0000
  S   S124      1.0  0.98830  0.57777  0.38751  1.0000
  H   H498      1.0  0.81068  0.52715  0.19279  1.0000
  C   C316      1.0  0.02168  0.60345  0.46679  1.0000
  H   H499      1.0  0.61712  0.62785  0.51950  1.0000
  H   H500      1.0  0.02824  0.55450  0.46126  1.0000
  C   C317      1.0  0.02416  0.53889  0.48941  1.0000
  H   H501      1.0  0.57875  0.58062  0.50407  1.0000
  C   C318      1.0  0.79402  0.53047  0.50806  1.0000
  H   H502      1.0  0.03228  0.54991  0.52428  1.0000
  H   H503      1.0  0.98683  0.52128  0.41714  1.0000
  H   H504      1.0  0.84560  0.53585  0.25656  1.0000
  C   C319      1.0  0.97954  0.53267  0.50800  1.0000
  C   C320      1.0  0.56997  0.58144  0.53982  1.0000
  H   H505      1.0  0.87022  0.55855  0.59921  1.0000
  H   H506      1.0  0.54135  0.69220  0.97810  1.0000
  H   H507      1.0  0.56474  0.60746  0.61682  1.0000
  Fe  Fe62      1.0  0.54924  0.67307  0.72022  1.0000
  S   S125      1.0  0.59445  0.70246  0.72718  1.0000
  Fe  Fe63      1.0  0.55585  0.65309  0.62165  1.0000
  S   S126      1.0  0.60131  0.68084  0.62006  1.0000
  Fe  Fe64      1.0  0.59981  0.66814  0.69758  1.0000
  S   S127      1.0  0.62369  0.64970  0.73114  1.0000
  Fe  Fe65      1.0  0.59196  0.71269  0.64863  1.0000
  S   S128      1.0  0.55459  0.63819  0.69709  1.0000
  S   S129      1.0  0.54649  0.68550  0.64385  1.0000
  H   H508      1.0  0.55778  0.56025  0.55386  1.0000
  C   C321      1.0  0.67851  0.64758  0.63684  1.0000
  C   C322      1.0  0.66084  0.65509  0.65955  1.0000
  C   C323      1.0  0.64439  0.63981  0.69857  1.0000
  C   C324      1.0  0.64522  0.61660  0.71372  1.0000
  C   C325      1.0  0.66230  0.60868  0.69013  1.0000
  H   H509      1.0  0.66067  0.67323  0.64801  1.0000
  H   H510      1.0  0.63247  0.60462  0.74377  1.0000
  H   H511      1.0  0.56738  0.57885  0.63742  1.0000
  C   C326      1.0  0.71342  0.63962  0.79991  1.0000
  H   H512      1.0  0.66228  0.59050  0.70148  1.0000
  H   H513      1.0  0.54659  0.64724  0.82022  1.0000
  H   H514      1.0  0.62709  0.60157  0.60768  1.0000
  C   C327      1.0  0.67945  0.62444  0.65219  1.0000
  H   H515      1.0  0.86959  0.52822  0.69079  1.0000
  S   S130      1.0  0.67925  0.54993  0.70094  1.0000
  H   H516      1.0  0.59988  0.56761  0.59653  1.0000
  C   C328      1.0  0.87178  0.53979  0.59605  1.0000
  H   H517      1.0  0.74244  0.60326  0.84067  1.0000
  S   S131      1.0  0.61405  0.75512  0.61464  1.0000
  C   C329      1.0  0.57153  0.76660  0.61422  1.0000
  H   H518      1.0  0.67700  0.58722  0.78203  1.0000
  H   H519      1.0  0.87153  0.53551  0.55665  1.0000
  C   C330      1.0  0.73838  0.62059  0.83930  1.0000
  N   N33       1.0  0.71854  0.61649  0.80071  1.0000
  N   N34       1.0  0.59166  0.59920  0.57428  1.0000
  H   H520      1.0  0.69172  0.65992  0.60752  1.0000
  H   H521      1.0  0.55924  0.74716  0.63200  1.0000
  C   C331      1.0  0.80597  0.56900  0.56033  1.0000
  C   C332      1.0  0.57907  0.59955  0.62119  1.0000
  H   H522      1.0  0.59306  0.63554  0.54786  1.0000
  C   C333      1.0  0.72984  0.61467  0.75334  1.0000
  C   C334      1.0  0.69256  0.59093  0.81018  1.0000
  S   S132      1.0  0.69161  0.54406  0.58568  1.0000
  S   S133      1.0  0.72926  0.54705  0.79491  1.0000
  H   H523      1.0  0.71532  0.61115  0.72329  1.0000
  H   H524      1.0  0.89216  0.54449  0.61008  1.0000
  C   C335      1.0  0.84981  0.52345  0.67379  1.0000
  S   S134      1.0  0.70248  0.61611  0.62357  1.0000
  Fe  Fe66      1.0  0.70417  0.57769  0.64047  1.0000
  H   H525      1.0  0.73431  0.59766  0.75301  1.0000
  S   S135      1.0  0.74308  0.57776  0.66071  1.0000
  Fe  Fe67      1.0  0.71649  0.54711  0.71743  1.0000
  Fe  Fe68      1.0  0.72845  0.54165  0.61083  1.0000
  H   H526      1.0  0.59479  0.61292  0.64800  1.0000
  H   H527      1.0  0.68365  0.59142  0.84598  1.0000
  H   H528      1.0  0.55576  0.74126  0.97067  1.0000
  C   C336      1.0  0.61065  0.58869  0.58165  1.0000
  H   H529      1.0  0.73262  0.65924  0.79302  1.0000
  H   H530      1.0  0.69567  0.57303  0.81027  1.0000
  H   H531      1.0  0.74926  0.63370  0.74451  1.0000
  H   H532      1.0  0.84890  0.59973  0.56063  1.0000
  H   H533      1.0  0.73064  0.62213  0.87568  1.0000
  H   H534      1.0  0.69877  0.63719  0.77063  1.0000
  H   H535      1.0  0.75838  0.63950  0.83308  1.0000
  H   H536      1.0  0.70457  0.64150  0.83487  1.0000
  H   H537      1.0  0.53890  0.62305  0.89890  1.0000
  H   H538      1.0  0.53750  0.73429  0.91436  1.0000
  H   H539      1.0  0.80009  0.57969  0.58581  1.0000
  H   H540      1.0  0.62309  0.64125  0.58007  1.0000
  S   S136      1.0  0.75098  0.52816  0.55867  1.0000
  H   H541      1.0  0.84727  0.54157  0.67855  1.0000
  H   H542      1.0  0.81980  0.52858  0.60294  1.0000
  C   C337      1.0  0.83363  0.58030  0.54600  1.0000
  H   H543      1.0  0.62086  0.58845  0.54718  1.0000
  C   C338      1.0  0.60692  0.62717  0.55451  1.0000
  C   C339      1.0  0.70403  0.52177  0.83279  1.0000
  C   C340      1.0  0.53540  0.73499  0.95448  1.0000
  C   C341      1.0  0.78600  0.54398  0.54136  1.0000
  H   H544      1.0  0.98683  0.54311  0.54354  1.0000
  S   S137      1.0  0.53528  0.62621  0.55741  1.0000
  C   C342      1.0  0.57067  0.80939  0.44267  1.0000
  C   C343      1.0  0.55219  0.85858  0.29465  1.0000
  H   H545      1.0  0.62569  0.83852  0.44071  1.0000
  H   H546      1.0  0.54914  0.95855  0.09974  1.0000
  Fe  Fe69      1.0  0.57888  0.87872  0.40892  1.0000
  S   S138      1.0  0.61052  0.88304  0.46373  1.0000
  S   S139      1.0  0.57427  0.85673  0.33792  1.0000
  Fe  Fe70      1.0  0.55263  0.90029  0.47823  1.0000
  H   H547      1.0  0.57768  0.96355  0.52820  1.0000
  C   C344      1.0  0.59383  0.98143  0.50803  1.0000
  Fe  Fe71      1.0  0.61368  0.92357  0.48096  1.0000
  H   H548      1.0  0.63006  0.82460  0.38505  1.0000
  S   S140      1.0  0.65047  0.96317  0.50557  1.0000
  S   S141      1.0  0.58530  0.92074  0.42158  1.0000
  C   C345      1.0  0.55981  0.98984  0.47212  1.0000
  C   C346      1.0  0.61550  0.82849  0.40608  1.0000
  N   N35       1.0  0.58930  0.80308  0.41506  1.0000
  H   H549      1.0  0.55123  0.82722  0.24906  1.0000
  H   H550      1.0  0.56552  0.82294  0.42163  1.0000
  H   H551      1.0  0.61231  0.84344  0.38503  1.0000
  H   H552      1.0  0.54902  0.89032  0.33157  1.0000
  H   H553      1.0  0.60435  0.79298  0.47867  1.0000
  C   C347      1.0  0.65993  0.99487  0.47780  1.0000
  C   C348      1.0  0.65193  0.99636  0.43047  1.0000
  C   C349      1.0  0.59448  0.78398  0.44333  1.0000
  H   H554      1.0  0.64015  0.97792  0.40972  1.0000
  Fe  Fe72      1.0  0.57521  0.86446  0.51627  1.0000
  C   C350      1.0  0.67562  0.01912  0.50396  1.0000
  S   S142      1.0  0.54354  0.85810  0.46063  1.0000
  H   H555      1.0  0.59003  0.78557  0.34623  1.0000
  H   H556      1.0  0.59737  0.97365  0.47328  1.0000
  H   H557      1.0  0.58011  0.81995  0.47723  1.0000
  C   C351      1.0  0.57655  0.79057  0.36817  1.0000
  C   C352      1.0  0.54409  0.84156  0.25368  1.0000
  C   C353      1.0  0.54293  0.87712  0.30023  1.0000
  H   H558      1.0  0.56153  0.98071  0.43742  1.0000
  H   H559      1.0  0.55108  0.79068  0.45201  1.0000
  H   H560      1.0  0.55360  0.00511  0.46332  1.0000
  H   H561      1.0  0.54279  0.97318  0.49323  1.0000
  N   N36       1.0  0.58579  0.00220  0.49947  1.0000
  H   H562      1.0  0.68204  0.01817  0.54050  1.0000
  H   H563      1.0  0.53469  0.90953  0.09612  1.0000
  H   H564      1.0  0.57253  0.80465  0.34601  1.0000
  H   H565      1.0  0.61316  0.98982  0.52923  1.0000
  H   H566      1.0  0.61048  0.01812  0.43511  1.0000
  H   H567      1.0  0.60830  0.77856  0.42351  1.0000
  S   S143      1.0  0.58105  0.90515  0.53838  1.0000
  H   H568      1.0  0.55659  0.77152  0.37356  1.0000
  H   H569      1.0  0.53923  0.77646  0.61390  1.0000
  C   C354      1.0  0.61453  0.80074  0.57933  1.0000
  H   H570      1.0  0.63573  0.80775  0.57032  1.0000
  C   C355      1.0  0.60317  0.81733  0.56858  1.0000
  H   H571      1.0  0.55047  0.84799  0.67404  1.0000
  C   C356      1.0  0.57594  0.80868  0.58095  1.0000
  C   C357      1.0  0.59880  0.77527  0.60212  1.0000
  S   S144      1.0  0.56072  0.82897  0.56946  1.0000
  C   C358      1.0  0.56025  0.78329  0.60392  1.0000
  H   H572      1.0  0.61566  0.83702  0.55169  1.0000
  H   H573      1.0  0.55898  0.88223  0.68923  1.0000
  C   C359      1.0  0.54873  0.86578  0.66184  1.0000
  C   C360      1.0  0.58209  0.01247  0.54653  1.0000
  H   H574      1.0  0.56065  0.87305  0.62748  1.0000
  H   H575      1.0  0.56603  0.99569  0.56893  1.0000
  H   H576      1.0  0.54280  0.95823  0.03579  1.0000
