data_image0
_chemical_formula_structural       H4CSHC3S2HSH4C2H2CHCH9SH2FeCH2CH2FeSCH3FeHCNHCHNSC3FeCHCHCH2FeCH2SH2CHCH3C2SCHCH5CNFeSHC3Fe2CH3S2HCH2C2SHCHC3H6NH2CSHFeH3NC2H6SC3HCHSH3FeC2HC2H6NH2C2H2CS2HFeS2FeS2FeSFeS3HCSHFeS2NH6FeC6HCH2CHCHCHFeC6H3CH2NHCH5SH2CHC2HFeNC4H3SH4CH3C2H2CH5C2HSHCH3CHS2H4CHC3HNFeSCH3SCHSHFeCSH3SFeS2FeS2FeSFeS3C2HC2HC6H4C6H2CSHCHNH3FeH6S2HNCHC2H2C2HCH2CNCH2NC4H7SCH2FeHCH2SH7SHFeHFeCSHCFeS2FeS2FeSFeS4CFeS2FeSCFeSFeS3CNHC6H4C6H4C4H4CNH4CH4CHC3HCH2C2HCHCHCH2SH3C2H8CHC2H3CHNH3CH3CS2H3CHC3H5CHC2H2CHNCSHCH2FeS2FeS2FeSFeS3FeSCFeS2FeSFeS4H2SC7H4C6H4C2H4C4H2NCSCH4C4H8NHCHSC4H2CH3CH3NC3FeCHC2H2SHCH6C2H3CSHCSHCH5CHNHC2H2CH2CH2CH2SH2CH2C2HFeS2FeC2FeSHSC4H3CH2CSH2SCH3C2H4SHFeSCFeCHFeSHSH2CH4NC3H3C3HCH2SCH2C2HNH2CH2SHCH2CH5CHNHCH2CH5SCHCHCNH3SFeSFeSHFeS2HC6H4C2HCHNH2CH2CNHSCHC2SHCFeH4C2H3CSH2S2CSCH3SH2CFeH2FeCH5NFeHCH2C4SH2CSCHCHSCFeHCFeH2SCH4CFeH2C3HCFeS2C3FeC2Fe2H3S2H2CH2CHCHCS2H5CH3SHCHNH2C2HCSHC2H2CH4CHFeNH2CH3FeCHSH3C2H2CSCSHCHFeH4C2SCHNH2C2HC2SHC2H4FeHSCHNFeCSHC2HC3H2SH3CH3CHSH2CNH2CH3CH6CHC2HCSH2CHCH5FeHNCNH3C2HSHFeSCHSH2CH2CHCH2CH2CH2CHSHSH3SH3CNH2C5H2CH3SH4SFeC2H3CSNCFeHC2HCFeH3C2HC2HCSHSHSCHSHFeCHNCH2CHCH3CH5C3H2CSCH5SHSHFeS2FeS2FeSFeS3FeCSFeSHCHC4SCH2C4H2C6H2CHCH2C6H4SHCFeHCH3CHNC4H7CH4FeH2SH7CNFeSHCNH2CH2CH5FeS2HCFeS2FeS2FeSFeS3HSHC2H3C5H2SC6H10CH2C7H2CHCH2CH2NSC2H2CH3NHC2NHCH5CH2CHC2H6CH2CSCNH3CH3C2H2SH3CNH5CFeCH3SH2CHCHFeCH2SH3C2HCHCHCHCNHFeH4SH5CHFeHSHSH3CH7C4HNC2H5CH2NH3CH6CSCSFeSFeS2FeSH2CHFeS2FeSHSFeSFeS2HSHC6H6CHC4HCH2C4HCH8NCH6CH3FeH2CH3FeH2NS2C2H2NC4H3CFeH3CSH2FeH2SH4CH2CNH2CH4NH3NCHCH2SH5CHNC3HCH2CHC8HC2H8CSFeSFeSFeS2HSHFeSHFeS2FeSFeSFeSFeCSHSHC6H5SC2HCHCHC4SHCHFeH2C2H3C2H2FeCHCHCH3NC4H12C2HCHCN2HSHFeH4C2H2CH4C2SH3C4H2C2H2CH2FeS2FeS2FeHFe2S2FeSHSFeHFeS3HSC6H5CHC6H7FeH2SHSHCH3CH2NCH3C3SC2HC2FeCHC2H2N2H4C5SCH3CH3SH4C2HNHSH5FeH3SC2SHC2S2CHCSCH5FeS2FeHSH2CFeS2FeSHSFeSFeHSCH2C6H5CHNHC6H2CH2C3HC3H8NC2HNHSHCH4CS2HCH2CNFeH2SC2FeH3CFeH2CHSH4CHCH4C2HC2H2CH3FeS2C2FeHCH2NCH2CHCH4C3H2CH3CH2C2H2CHCSCH2NC2SH4S3CH2C3H2CS2CHS2HCFeHCFeH2SH4CSHFeS2H2C3H5CHCH5NH4SHSCFeC4SCH2CSHC2HFeC3SH3NH2CH2CHCHCH3C2
_chemical_formula_sum              "H1152 C720 S288 Fe144 N72"
_cell_length_a       50.0555
_cell_length_b       50.0263
_cell_length_c       74.9391
_cell_angle_alpha    90.4521
_cell_angle_beta     90.6162
_cell_angle_gamma    118.251

_space_group_name_H-M_alt    "P 1"
_space_group_IT_number       1

loop_
  _space_group_symop_operation_xyz
  'x, y, z'

loop_
  _atom_site_type_symbol
  _atom_site_label
  _atom_site_symmetry_multiplicity
  _atom_site_fract_x
  _atom_site_fract_y
  _atom_site_fract_z
  _atom_site_occupancy
  H   H1        1.0  0.42669  0.03025  0.01192  1.0000
  H   H2        1.0  0.29221  0.23600  0.16775  1.0000
  H   H3        1.0  0.30781  0.28457  0.18462  1.0000
  H   H4        1.0  0.25281  0.21195  0.16214  1.0000
  C   C1        1.0  0.34798  0.02552  0.01171  1.0000
  S   S1        1.0  0.34142  0.99228  0.07491  1.0000
  H   H5        1.0  0.35033  0.03189  0.02569  1.0000
  C   C2        1.0  0.40379  0.06074  0.13920  1.0000
  C   C3        1.0  0.23107  0.24257  0.18147  1.0000
  C   C4        1.0  0.10119  0.25735  0.22449  1.0000
  S   S2        1.0  0.23190  0.02453  0.21881  1.0000
  S   S3        1.0  0.25098  0.21150  0.22543  1.0000
  H   H6        1.0  0.25047  0.15996  0.20790  1.0000
  S   S4        1.0  0.21108  0.25899  0.22417  1.0000
  H   H7        1.0  0.22732  0.22977  0.19411  1.0000
  H   H8        1.0  0.10145  0.25839  0.21007  1.0000
  H   H9        1.0  0.21423  0.22711  0.17142  1.0000
  H   H10       1.0  0.14755  0.26548  0.22676  1.0000
  C   C5        1.0  0.25320  0.13089  0.22821  1.0000
  C   C6        1.0  0.33124  0.99492  0.00663  1.0000
  H   H11       1.0  0.13064  0.00479  0.24165  1.0000
  H   H12       1.0  0.39001  0.07182  0.14331  1.0000
  C   C7        1.0  0.00358  0.31914  0.16473  1.0000
  H   H13       1.0  0.37264  0.03191  0.10929  1.0000
  C   C8        1.0  0.36126  0.04808  0.99861  1.0000
  H   H14       1.0  0.22583  0.26155  0.18408  1.0000
  H   H15       1.0  0.12661  0.05134  0.23433  1.0000
  H   H16       1.0  0.25321  0.11444  0.21877  1.0000
  H   H17       1.0  0.34008  0.28871  0.00859  1.0000
  H   H18       1.0  0.28211  0.26256  0.20170  1.0000
  H   H19       1.0  0.01812  0.30764  0.14012  1.0000
  H   H20       1.0  0.41578  0.02363  0.11850  1.0000
  H   H21       1.0  0.26683  0.02242  0.17156  1.0000
  H   H22       1.0  0.26725  0.02200  0.13833  1.0000
  S   S5        1.0  0.04245  0.24693  0.22118  1.0000
  H   H23       1.0  0.25109  0.25562  0.14768  1.0000
  H   H24       1.0  0.32665  0.31348  0.99967  1.0000
  Fe  Fe1       1.0  0.26451  0.00539  0.22073  1.0000
  C   C9        1.0  0.39777  0.00048  0.04097  1.0000
  H   H25       1.0  0.34706  0.03262  0.12569  1.0000
  H   H26       1.0  0.46712  0.99144  0.09824  1.0000
  C   C10       1.0  0.26640  0.27063  0.15847  1.0000
  H   H27       1.0  0.00359  0.30059  0.17205  1.0000
  H   H28       1.0  0.38942  0.00194  0.00528  1.0000
  Fe  Fe2       1.0  0.98331  0.30189  0.21743  1.0000
  S   S6        1.0  0.28516  0.99106  0.11235  1.0000
  C   C11       1.0  0.41200  0.00537  0.00999  1.0000
  H   H29       1.0  0.42151  0.99761  0.99898  1.0000
  H   H30       1.0  0.29013  0.28057  0.15369  1.0000
  H   H31       1.0  0.41571  0.07180  0.12675  1.0000
  Fe  Fe3       1.0  0.24758  0.25206  0.23795  1.0000
  H   H32       1.0  0.37378  0.07169  0.00270  1.0000
  C   C12       1.0  0.27364  0.00774  0.16449  1.0000
  N   N1        1.0  0.38455  0.02771  0.13645  1.0000
  H   H33       1.0  0.42090  0.01710  0.14154  1.0000
  C   C13       1.0  0.28302  0.98972  0.17412  1.0000
  H   H34       1.0  0.27921  0.29380  0.19208  1.0000
  N   N2        1.0  0.26250  0.25400  0.17529  1.0000
  S   S7        1.0  0.28422  0.30022  0.23298  1.0000
  C   C14       1.0  0.28389  0.27465  0.18900  1.0000
  C   C15       1.0  0.36894  0.01402  0.15321  1.0000
  C   C16       1.0  0.26862  0.22817  0.17234  1.0000
  Fe  Fe4       1.0  0.24726  0.30717  0.21995  1.0000
  C   C17       1.0  0.25170  0.15682  0.22209  1.0000
  H   H35       1.0  0.26108  0.28972  0.16025  1.0000
  C   C18       1.0  0.27397  0.00750  0.14562  1.0000
  H   H36       1.0  0.19941  0.04861  0.23833  1.0000
  C   C19       1.0  0.40359  0.01378  0.13110  1.0000
  H   H37       1.0  0.45626  0.01704  0.03419  1.0000
  H   H38       1.0  0.41291  0.02507  0.04360  1.0000
  Fe  Fe5       1.0  0.00839  0.26087  0.23143  1.0000
  C   C20       1.0  0.25213  0.17886  0.23411  1.0000
  H   H39       1.0  0.38534  0.01841  0.16442  1.0000
  H   H40       1.0  0.26585  0.21532  0.18491  1.0000
  S   S8        1.0  0.02465  0.31083  0.23355  1.0000
  H   H41       1.0  0.16941  0.04331  0.22305  1.0000
  H   H42       1.0  0.35347  0.02321  0.15730  1.0000
  C   C21       1.0  0.18209  0.05589  0.23528  1.0000
  H   H43       1.0  0.19466  0.08046  0.23212  1.0000
  C   C22       1.0  0.12731  0.26130  0.23392  1.0000
  H   H44       1.0  0.42136  0.06571  0.14979  1.0000
  H   H45       1.0  0.37493  0.99769  0.03740  1.0000
  H   H46       1.0  0.29501  0.24347  0.99662  1.0000
  C   C23       1.0  0.07481  0.25217  0.23358  1.0000
  C   C24       1.0  0.36179  0.02228  0.12223  1.0000
  S   S9        1.0  0.28505  0.99025  0.19791  1.0000
  C   C25       1.0  0.43972  0.99266  0.03198  1.0000
  H   H47       1.0  0.34656  0.99759  0.11995  1.0000
  C   C26       1.0  0.33972  0.30121  0.99645  1.0000
  H   H48       1.0  0.36352  0.31865  0.99394  1.0000
  H   H49       1.0  0.35488  0.98897  0.15174  1.0000
  H   H50       1.0  0.08687  0.31943  0.23920  1.0000
  H   H51       1.0  0.38966  0.98890  0.12862  1.0000
  H   H52       1.0  0.39564  0.98838  0.05371  1.0000
  C   C27       1.0  0.28333  0.98905  0.13611  1.0000
  N   N3        1.0  0.40951  0.98865  0.02662  1.0000
  Fe  Fe6       1.0  0.27017  0.31233  0.25933  1.0000
  S   S10       1.0  0.22004  0.01063  0.26207  1.0000
  H   H53       1.0  0.25922  0.30424  0.48186  1.0000
  C   C28       1.0  0.10052  0.25396  0.26162  1.0000
  C   C29       1.0  0.25552  0.14860  0.25853  1.0000
  C   C30       1.0  0.07962  0.31536  0.27438  1.0000
  Fe  Fe7       1.0  0.25254  0.04898  0.24487  1.0000
  Fe  Fe8       1.0  0.25430  0.99353  0.26162  1.0000
  C   C31       1.0  0.25532  0.12669  0.24652  1.0000
  H   H54       1.0  0.28241  0.02008  0.30816  1.0000
  H   H55       1.0  0.19625  0.05707  0.27013  1.0000
  H   H56       1.0  0.23986  0.29772  0.45001  1.0000
  S   S11       1.0  0.23652  0.26377  0.26522  1.0000
  S   S12       1.0  0.34909  0.00513  0.44777  1.0000
  H   H57       1.0  0.12889  0.01205  0.26506  1.0000
  C   C32       1.0  0.18494  0.31744  0.31005  1.0000
  H   H58       1.0  0.36573  0.03175  0.39055  1.0000
  H   H59       1.0  0.37512  0.03434  0.41398  1.0000
  C   C33       1.0  0.36407  0.03503  0.48036  1.0000
  C   C34       1.0  0.34206  0.00995  0.47056  1.0000
  S   S13       1.0  0.15936  0.26454  0.26489  1.0000
  H   H60       1.0  0.38499  0.05049  0.47402  1.0000
  C   C35       1.0  0.22650  0.32008  0.32807  1.0000
  H   H61       1.0  0.08615  0.29745  0.27718  1.0000
  C   C36       1.0  0.07454  0.25050  0.25220  1.0000
  C   C37       1.0  0.29734  0.00796  0.33266  1.0000
  C   C38       1.0  0.25383  0.17443  0.25241  1.0000
  H   H62       1.0  0.25731  0.14575  0.27272  1.0000
  H   H63       1.0  0.25434  0.19115  0.26185  1.0000
  H   H64       1.0  0.20785  0.26379  0.31472  1.0000
  H   H65       1.0  0.31421  0.02329  0.39720  1.0000
  H   H66       1.0  0.19407  0.09063  0.26458  1.0000
  H   H67       1.0  0.10000  0.25210  0.27600  1.0000
  N   N4        1.0  0.16176  0.05028  0.25054  1.0000
  H   H68       1.0  0.05803  0.30464  0.26646  1.0000
  H   H69       1.0  0.16560  0.06250  0.27844  1.0000
  C   C39       1.0  0.99205  0.31336  0.31346  1.0000
  S   S14       1.0  0.31470  0.99281  0.36451  1.0000
  H   H70       1.0  0.05408  0.24581  0.25926  1.0000
  Fe  Fe9       1.0  0.99628  0.29978  0.25835  1.0000
  H   H71       1.0  0.15298  0.08726  0.24421  1.0000
  H   H72       1.0  0.17666  0.26557  0.32535  1.0000
  H   H73       1.0  0.30262  0.02915  0.33936  1.0000
  N   N5        1.0  0.35544  0.06229  0.40573  1.0000
  C   C40       1.0  0.36737  0.08231  0.42167  1.0000
  C   C41       1.0  0.35590  0.08020  0.39003  1.0000
  H   H74       1.0  0.39124  0.10013  0.41983  1.0000
  H   H75       1.0  0.35357  0.09380  0.42473  1.0000
  H   H76       1.0  0.36704  0.06910  0.43369  1.0000
  H   H77       1.0  0.34163  0.09151  0.39208  1.0000
  H   H78       1.0  0.34705  0.06543  0.37784  1.0000
  H   H79       1.0  0.39832  0.06453  0.39946  1.0000
  S   S15       1.0  0.28819  0.03295  0.24572  1.0000
  C   C42       1.0  0.98912  0.31591  0.33206  1.0000
  C   C43       1.0  0.32392  0.03884  0.40894  1.0000
  C   C44       1.0  0.37449  0.04760  0.40226  1.0000
  H   H80       1.0  0.30892  0.04909  0.41171  1.0000
  C   C45       1.0  0.12701  0.25949  0.25252  1.0000
  H   H81       1.0  0.37934  0.09811  0.38715  1.0000
  S   S16       1.0  0.25745  0.09458  0.25523  1.0000
  H   H82       1.0  0.32274  0.02471  0.42061  1.0000
  H   H83       1.0  0.30205  0.31008  0.33953  1.0000
  H   H84       1.0  0.29581  0.30585  0.30649  1.0000
  Fe  Fe10      1.0  0.20305  0.27448  0.25073  1.0000
  C   C46       1.0  0.28582  0.00288  0.31493  1.0000
  C   C47       1.0  0.19147  0.27290  0.31348  1.0000
  H   H85       1.0  0.17696  0.26183  0.30147  1.0000
  C   C48       1.0  0.14448  0.01726  0.25362  1.0000
  C   C49       1.0  0.22670  0.31480  0.29604  1.0000
  H   H86       1.0  0.16991  0.31145  0.32182  1.0000
  H   H87       1.0  0.24275  0.31107  0.33027  1.0000
  H   H88       1.0  0.15984  0.00741  0.25655  1.0000
  H   H89       1.0  0.24291  0.30549  0.29654  1.0000
  H   H90       1.0  0.21267  0.31534  0.34030  1.0000
  H   H91       1.0  0.11686  0.31386  0.24851  1.0000
  N   N6        1.0  0.20739  0.30632  0.31194  1.0000
  H   H92       1.0  0.12473  0.05840  0.25773  1.0000
  H   H93       1.0  0.17026  0.30732  0.29796  1.0000
  C   C50       1.0  0.31506  0.99031  0.47893  1.0000
  C   C51       1.0  0.18008  0.06576  0.26665  1.0000
  H   H94       1.0  0.21211  0.30656  0.47446  1.0000
  H   H95       1.0  0.21300  0.30591  0.28356  1.0000
  C   C52       1.0  0.14054  0.06233  0.24653  1.0000
  S   S17       1.0  0.98187  0.24956  0.25695  1.0000
  S   S18       1.0  0.38357  0.26744  0.55414  1.0000
  H   H96       1.0  0.28756  0.26945  0.69309  1.0000
  Fe  Fe11      1.0  0.39050  0.11286  0.57573  1.0000
  S   S19       1.0  0.34052  0.08141  0.57242  1.0000
  S   S20       1.0  0.40969  0.16288  0.58389  1.0000
  Fe  Fe12      1.0  0.40532  0.06004  0.57684  1.0000
  S   S21       1.0  0.35577  0.02567  0.57503  1.0000
  S   S22       1.0  0.43592  0.03782  0.57563  1.0000
  Fe  Fe13      1.0  0.35350  0.05480  0.55302  1.0000
  S   S23       1.0  0.32444  0.02644  0.52914  1.0000
  Fe  Fe14      1.0  0.34712  0.05484  0.59464  1.0000
  S   S24       1.0  0.30996  0.03864  0.61587  1.0000
  S   S25       1.0  0.40330  0.08865  0.55438  1.0000
  S   S26       1.0  0.39685  0.08667  0.59840  1.0000
  H   H97       1.0  0.30922  0.09435  0.63699  1.0000
  C   C53       1.0  0.14974  0.29508  0.73310  1.0000
  S   S27       1.0  0.23670  0.25740  0.72109  1.0000
  H   H98       1.0  0.37723  0.16645  0.55190  1.0000
  Fe  Fe15      1.0  0.27559  0.02427  0.72394  1.0000
  S   S28       1.0  0.22550  0.00886  0.72211  1.0000
  S   S29       1.0  0.31010  0.03553  0.70143  1.0000
  N   N7        1.0  0.02567  0.19971  0.72008  1.0000
  H   H99       1.0  0.31879  0.09865  0.60495  1.0000
  H   H100      1.0  0.06896  0.20718  0.73059  1.0000
  H   H101      1.0  0.01463  0.15507  0.71029  1.0000
  H   H102      1.0  0.35690  0.04923  0.67587  1.0000
  H   H103      1.0  0.34282  0.17543  0.62401  1.0000
  H   H104      1.0  0.07058  0.23668  0.71648  1.0000
  Fe  Fe16      1.0  0.38743  0.31038  0.56754  1.0000
  C   C54       1.0  0.31080  0.03846  0.63968  1.0000
  C   C55       1.0  0.28401  0.03165  0.64892  1.0000
  C   C56       1.0  0.28347  0.03149  0.66776  1.0000
  C   C57       1.0  0.30967  0.03754  0.67766  1.0000
  C   C58       1.0  0.33648  0.04451  0.66840  1.0000
  C   C59       1.0  0.33714  0.04516  0.64956  1.0000
  H   H105      1.0  0.06433  0.20125  0.70682  1.0000
  C   C60       1.0  0.35937  0.16675  0.62608  1.0000
  H   H106      1.0  0.43816  0.30830  0.57219  1.0000
  H   H107      1.0  0.35793  0.05036  0.64271  1.0000
  C   C61       1.0  0.33208  0.02099  0.50658  1.0000
  H   H108      1.0  0.31300  0.13138  0.60412  1.0000
  C   C62       1.0  0.01947  0.21354  0.73593  1.0000
  H   H109      1.0  0.37630  0.05993  0.50555  1.0000
  C   C63       1.0  0.27189  0.15224  0.73606  1.0000
  H   H110      1.0  0.31564  0.25267  0.66071  1.0000
  Fe  Fe17      1.0  0.02259  0.28892  0.73631  1.0000
  C   C64       1.0  0.39971  0.19043  0.57606  1.0000
  C   C65       1.0  0.40874  0.21725  0.58617  1.0000
  C   C66       1.0  0.40240  0.24033  0.58018  1.0000
  C   C67       1.0  0.38785  0.23726  0.56366  1.0000
  C   C68       1.0  0.37869  0.21037  0.55361  1.0000
  C   C69       1.0  0.38417  0.18687  0.55987  1.0000
  H   H111      1.0  0.42098  0.22032  0.59865  1.0000
  H   H112      1.0  0.40947  0.26077  0.58812  1.0000
  H   H113      1.0  0.36755  0.20782  0.54077  1.0000
  C   C70       1.0  0.29474  0.30613  0.64938  1.0000
  H   H114      1.0  0.98574  0.15685  0.72355  1.0000
  H   H115      1.0  0.29380  0.16265  0.72978  1.0000
  N   N8        1.0  0.34457  0.13331  0.62449  1.0000
  H   H116      1.0  0.38609  0.13356  0.61717  1.0000
  C   C71       1.0  0.39397  0.01190  0.53287  1.0000
  H   H117      1.0  0.37820  0.12894  0.64057  1.0000
  H   H118      1.0  0.98867  0.19894  0.70479  1.0000
  H   H119      1.0  0.47974  0.10195  0.58071  1.0000
  H   H120      1.0  0.30349  0.12710  0.63688  1.0000
  H   H121      1.0  0.38605  0.02348  0.54253  1.0000
  S   S30       1.0  0.07295  0.30450  0.73120  1.0000
  H   H122      1.0  0.37044  0.17477  0.63941  1.0000
  H   H123      1.0  0.34744  0.13352  0.59589  1.0000
  C   C72       1.0  0.01359  0.20732  0.70392  1.0000
  H   H124      1.0  0.26280  0.02672  0.67458  1.0000
  C   C73       1.0  0.33031  0.12381  0.60659  1.0000
  C   C74       1.0  0.29018  0.30950  0.66767  1.0000
  H   H125      1.0  0.17126  0.30495  0.72637  1.0000
  Fe  Fe18      1.0  0.27713  0.30416  0.72266  1.0000
  N   N9        1.0  0.31664  0.24925  0.68936  1.0000
  C   C75       1.0  0.31390  0.21850  0.68929  1.0000
  C   C76       1.0  0.28618  0.24680  0.69111  1.0000
  C   C77       1.0  0.33033  0.26458  0.67251  1.0000
  C   C78       1.0  0.33609  0.26713  0.70459  1.0000
  H   H126      1.0  0.33642  0.21937  0.68805  1.0000
  H   H127      1.0  0.30373  0.20644  0.70191  1.0000
  H   H128      1.0  0.27418  0.23302  0.70283  1.0000
  S   S31       1.0  0.34641  0.31761  0.56851  1.0000
  H   H129      1.0  0.33379  0.28822  0.67248  1.0000
  H   H130      1.0  0.35289  0.26592  0.67044  1.0000
  H   H131      1.0  0.33816  0.29033  0.70519  1.0000
  H   H132      1.0  0.35933  0.26968  0.70370  1.0000
  C   C79       1.0  0.47597  0.05742  0.57817  1.0000
  H   H133      1.0  0.38989  0.01814  0.51929  1.0000
  H   H134      1.0  0.37727  0.17747  0.61585  1.0000
  H   H135      1.0  0.01768  0.19714  0.69168  1.0000
  C   C80       1.0  0.05879  0.21165  0.71842  1.0000
  C   C81       1.0  0.01074  0.16640  0.72207  1.0000
  H   H136      1.0  0.27160  0.23596  0.67912  1.0000
  H   H137      1.0  0.29905  0.20436  0.67808  1.0000
  C   C82       1.0  0.32106  0.11958  0.63821  1.0000
  H   H138      1.0  0.35746  0.09803  0.62529  1.0000
  H   H139      1.0  0.33102  0.12548  0.65194  1.0000
  H   H140      1.0  0.26353  0.02666  0.64143  1.0000
  H   H141      1.0  0.41889  0.02162  0.53504  1.0000
  H   H142      1.0  0.01948  0.15992  0.73411  1.0000
  C   C83       1.0  0.36758  0.12304  0.62702  1.0000
  C   C84       1.0  0.35923  0.04045  0.49827  1.0000
  H   H143      1.0  0.32653  0.25610  0.71752  1.0000
  S   S32       1.0  0.32695  0.31854  0.61816  1.0000
  H   H144      1.0  0.44361  0.31540  0.53983  1.0000
  C   C85       1.0  0.12805  0.30476  0.72903  1.0000
  H   H145      1.0  0.02451  0.23236  0.70202  1.0000
  H   H146      1.0  0.27622  0.28939  0.64132  1.0000
  H   H147      1.0  0.26822  0.29558  0.67343  1.0000
  C   C86       1.0  0.09969  0.29194  0.73740  1.0000
  H   H148      1.0  0.48001  0.01644  0.57630  1.0000
  S   S33       1.0  0.27756  0.20929  0.73618  1.0000
  S   S34       1.0  0.98385  0.25526  0.71897  1.0000
  H   H149      1.0  0.44742  0.27261  0.55277  1.0000
  H   H150      1.0  0.47807  0.27866  0.56767  1.0000
  H   H151      1.0  0.03021  0.23865  0.73483  1.0000
  H   H152      1.0  0.99467  0.20499  0.73761  1.0000
  C   C87       1.0  0.25821  0.17011  0.74080  1.0000
  H   H153      1.0  0.26807  0.10738  0.73548  1.0000
  C   C88       1.0  0.25740  0.12091  0.73933  1.0000
  C   C89       1.0  0.47205  0.28751  0.55554  1.0000
  C   C90       1.0  0.31003  0.99599  0.49675  1.0000
  H   H154      1.0  0.47003  0.31487  0.58616  1.0000
  N   N10       1.0  0.47898  0.31953  0.55799  1.0000
  Fe  Fe19      1.0  0.26159  0.24424  0.74155  1.0000
  S   S35       1.0  0.30257  0.29012  0.74187  1.0000
  C   C91       1.0  0.34512  0.26573  0.97670  1.0000
  H   H155      1.0  0.34411  0.22889  0.84548  1.0000
  H   H156      1.0  0.32880  0.25212  0.85431  1.0000
  H   H157      1.0  0.10992  0.24225  0.76394  1.0000
  S   S36       1.0  0.24185  0.25580  0.76546  1.0000
  C   C92       1.0  0.24872  0.10983  0.79991  1.0000
  H   H158      1.0  0.30954  0.21197  0.85797  1.0000
  S   S37       1.0  0.22357  0.00135  0.76608  1.0000
  H   H159      1.0  0.23047  0.05217  0.81038  1.0000
  Fe  Fe20      1.0  0.27426  0.01911  0.76569  1.0000
  C   C93       1.0  0.09353  0.26966  0.75023  1.0000
  S   S38       1.0  0.30951  0.03691  0.78881  1.0000
  H   H160      1.0  0.27161  0.00455  0.85006  1.0000
  H   H161      1.0  0.39336  0.26146  0.86116  1.0000
  H   H162      1.0  0.22961  0.05420  0.78652  1.0000
  S   S39       1.0  0.37736  0.26560  0.93505  1.0000
  Fe  Fe21      1.0  0.36142  0.06603  0.89387  1.0000
  S   S40       1.0  0.40761  0.09944  0.88459  1.0000
  S   S41       1.0  0.32180  0.03802  0.87432  1.0000
  Fe  Fe22      1.0  0.38213  0.07622  0.93399  1.0000
  S   S42       1.0  0.42987  0.11059  0.92661  1.0000
  S   S43       1.0  0.37525  0.07030  0.96443  1.0000
  Fe  Fe23      1.0  0.40750  0.12891  0.90754  1.0000
  S   S44       1.0  0.42541  0.17910  0.90152  1.0000
  Fe  Fe24      1.0  0.42566  0.07819  0.90449  1.0000
  S   S45       1.0  0.45735  0.05887  0.89675  1.0000
  S   S46       1.0  0.36009  0.09665  0.91589  1.0000
  S   S47       1.0  0.37913  0.04274  0.91279  1.0000
  C   C94       1.0  0.39376  0.98884  0.88010  1.0000
  C   C95       1.0  0.35817  0.04052  0.98026  1.0000
  H   H163      1.0  0.07226  0.26005  0.75717  1.0000
  C   C96       1.0  0.11506  0.25973  0.75415  1.0000
  C   C97       1.0  0.31031  0.29609  0.83370  1.0000
  H   H164      1.0  0.31116  0.22116  0.89066  1.0000
  C   C98       1.0  0.39152  0.24206  0.92597  1.0000
  C   C99       1.0  0.37783  0.21125  0.93056  1.0000
  C   C100      1.0  0.38806  0.19169  0.92331  1.0000
  C   C101      1.0  0.41224  0.20285  0.91146  1.0000
  C   C102      1.0  0.42606  0.23372  0.90697  1.0000
  C   C103      1.0  0.41582  0.25327  0.91422  1.0000
  H   H165      1.0  0.35916  0.20239  0.93975  1.0000
  H   H166      1.0  0.37731  0.16800  0.92692  1.0000
  H   H167      1.0  0.44495  0.24258  0.89793  1.0000
  H   H168      1.0  0.42703  0.27708  0.91090  1.0000
  C   C104      1.0  0.31177  0.03734  0.81265  1.0000
  C   C105      1.0  0.33948  0.05723  0.82119  1.0000
  C   C106      1.0  0.34273  0.05841  0.83999  1.0000
  C   C107      1.0  0.31843  0.03921  0.85058  1.0000
  C   C108      1.0  0.29063  0.01951  0.84206  1.0000
  C   C109      1.0  0.28720  0.01871  0.82326  1.0000
  H   H169      1.0  0.35863  0.07189  0.81318  1.0000
  H   H170      1.0  0.36417  0.07396  0.84625  1.0000
  C   C110      1.0  0.30433  0.30049  0.81580  1.0000
  S   S48       1.0  0.99952  0.26969  0.76209  1.0000
  H   H171      1.0  0.34664  0.24527  0.90165  1.0000
  C   C111      1.0  0.22909  0.10718  0.74745  1.0000
  H   H172      1.0  0.28733  0.28178  0.80797  1.0000
  N   N11       1.0  0.37596  0.99346  0.86572  1.0000
  H   H173      1.0  0.31137  0.30943  0.96782  1.0000
  H   H174      1.0  0.33260  0.18910  0.87835  1.0000
  H   H175      1.0  0.25736  0.04652  0.79741  1.0000
  Fe  Fe25      1.0  0.28130  0.30289  0.76422  1.0000
  H   H176      1.0  0.30177  0.12436  0.81685  1.0000
  H   H177      1.0  0.36749  0.21294  0.88986  1.0000
  H   H178      1.0  0.31614  0.28337  0.95319  1.0000
  H   H179      1.0  0.36763  0.20654  0.86635  1.0000
  H   H180      1.0  0.32993  0.26127  0.88682  1.0000
  H   H181      1.0  0.33899  0.00362  0.96121  1.0000
  S   S49       1.0  0.21058  0.06802  0.75222  1.0000
  S   S50       1.0  0.34299  0.31192  0.91615  1.0000
  H   H182      1.0  0.41354  0.03668  0.85907  1.0000
  N   N12       1.0  0.32641  0.28057  0.98087  1.0000
  C   C112      1.0  0.24498  0.06000  0.79841  1.0000
  H   H183      1.0  0.28443  0.24146  0.97345  1.0000
  C   C113      1.0  0.28546  0.09973  0.81565  1.0000
  C   C114      1.0  0.21544  0.12505  0.75227  1.0000
  H   H184      1.0  0.26576  0.00320  0.81699  1.0000
  H   H185      1.0  0.02829  0.20836  0.74839  1.0000
  C   C115      1.0  0.32554  0.29810  0.96529  1.0000
  C   C116      1.0  0.34173  0.00989  0.97521  1.0000
  H   H186      1.0  0.29919  0.08957  0.78268  1.0000
  C   C117      1.0  0.28559  0.10186  0.78351  1.0000
  H   H187      1.0  0.27168  0.09668  0.77103  1.0000
  H   H188      1.0  0.27159  0.09287  0.82792  1.0000
  C   C118      1.0  0.14329  0.27227  0.74559  1.0000
  N   N13       1.0  0.26620  0.09289  0.79940  1.0000
  C   C119      1.0  0.29522  0.25728  0.98499  1.0000
  H   H189      1.0  0.23377  0.10365  0.81171  1.0000
  H   H190      1.0  0.26393  0.13478  0.80037  1.0000
  N   N14       1.0  0.35015  0.23692  0.87382  1.0000
  C   C120      1.0  0.37998  0.26418  0.87211  1.0000
  C   C121      1.0  0.33234  0.23215  0.85714  1.0000
  C   C122      1.0  0.33372  0.24131  0.88888  1.0000
  C   C123      1.0  0.35460  0.21019  0.87718  1.0000
  H   H191      1.0  0.39369  0.26903  0.88461  1.0000
  H   H192      1.0  0.37742  0.28466  0.86920  1.0000
  H   H193      1.0  0.29761  0.27390  0.83946  1.0000
  H   H194      1.0  0.37702  0.03055  0.85089  1.0000
  H   H195      1.0  0.34862  0.31621  0.96196  1.0000
  H   H196      1.0  0.23389  0.10482  0.78777  1.0000
  H   H197      1.0  0.29896  0.08728  0.81546  1.0000
  S   S51       1.0  0.16887  0.25771  0.75063  1.0000
  C   C124      1.0  0.22992  0.15644  0.74895  1.0000
  H   H198      1.0  0.30170  0.12660  0.78363  1.0000
  H   H199      1.0  0.38684  0.03854  0.87399  1.0000
  Fe  Fe26      1.0  0.38594  0.31057  0.92317  1.0000
  H   H200      1.0  0.41801  0.99796  0.87644  1.0000
  C   C125      1.0  0.38897  0.02622  0.86219  1.0000
  H   H201      1.0  0.19350  0.11456  0.75853  1.0000
  H   H202      1.0  0.34248  0.99296  0.88370  1.0000
  S   S52       1.0  0.28308  0.05693  0.74664  1.0000
  H   H203      1.0  0.21917  0.17000  0.75263  1.0000
  H   H204      1.0  0.33551  0.24966  0.96514  1.0000
  H   H205      1.0  0.36862  0.28264  0.97304  1.0000
  H   H206      1.0  0.06442  0.30457  0.77256  1.0000
  H   H207      1.0  0.02988  0.31014  0.79424  1.0000
  H   H208      1.0  0.39370  0.00095  0.89262  1.0000
  H   H209      1.0  0.34686  0.25272  0.98822  1.0000
  S   S53       1.0  0.33881  0.31266  0.86668  1.0000
  H   H210      1.0  0.09306  0.31492  0.78971  1.0000
  Fe  Fe27      1.0  0.21905  0.27213  0.74501  1.0000
  H   H211      1.0  0.28063  0.26786  0.98827  1.0000
  Fe  Fe28      1.0  0.23272  0.03849  0.74639  1.0000
  C   C126      1.0  0.33219  0.32013  0.84423  1.0000
  S   S54       1.0  0.25774  0.31995  0.74510  1.0000
  H   H212      1.0  0.05838  0.32055  0.81151  1.0000
  C   C127      1.0  0.32381  0.38637  0.00227  1.0000
  Fe  Fe29      1.0  0.31683  0.40216  0.09727  1.0000
  S   S55       1.0  0.29943  0.43595  0.09475  1.0000
  S   S56       1.0  0.32787  0.38881  0.12471  1.0000
  Fe  Fe30      1.0  0.32770  0.40303  0.05594  1.0000
  S   S57       1.0  0.31099  0.43709  0.05131  1.0000
  S   S58       1.0  0.35041  0.38636  0.03526  1.0000
  Fe  Fe31      1.0  0.33847  0.46098  0.07606  1.0000
  S   S59       1.0  0.36766  0.51228  0.08014  1.0000
  Fe  Fe32      1.0  0.27370  0.40899  0.07045  1.0000
  S   S60       1.0  0.22266  0.38946  0.06533  1.0000
  S   S61       1.0  0.35708  0.42861  0.07968  1.0000
  S   S62       1.0  0.28911  0.37338  0.07387  1.0000
  S   S63       1.0  0.06620  0.61521  0.06056  1.0000
  C   C128      1.0  0.45768  0.53751  0.07421  1.0000
  Fe  Fe33      1.0  0.03206  0.38884  0.09364  1.0000
  S   S64       1.0  0.07235  0.43426  0.09866  1.0000
  S   S65       1.0  0.02192  0.35063  0.11370  1.0000
  Fe  Fe34      1.0  0.02147  0.40745  0.05576  1.0000
  S   S66       1.0  0.06182  0.45420  0.05863  1.0000
  C   C129      1.0  0.14694  0.38515  0.10880  1.0000
  Fe  Fe35      1.0  0.08644  0.43074  0.07086  1.0000
  S   S67       1.0  0.13800  0.45270  0.06926  1.0000
  Fe  Fe36      1.0  0.04528  0.45467  0.08623  1.0000
  S   S68       1.0  0.05002  0.49703  0.10064  1.0000
  S   S69       1.0  0.04748  0.38374  0.06600  1.0000
  S   S70       1.0  0.00341  0.40928  0.08319  1.0000
  C   C130      1.0  0.36791  0.37870  0.00172  1.0000
  N   N15       1.0  0.38618  0.48612  0.13085  1.0000
  H   H213      1.0  0.02176  0.37680  0.00911  1.0000
  C   C131      1.0  0.05995  0.58226  0.07224  1.0000
  C   C132      1.0  0.06651  0.58315  0.09049  1.0000
  C   C133      1.0  0.06283  0.55670  0.09909  1.0000
  C   C134      1.0  0.05289  0.52927  0.08949  1.0000
  C   C135      1.0  0.04628  0.52838  0.07126  1.0000
  C   C136      1.0  0.05004  0.55484  0.06267  1.0000
  H   H214      1.0  0.07520  0.60443  0.09780  1.0000
  H   H215      1.0  0.06827  0.55761  0.11317  1.0000
  H   H216      1.0  0.03850  0.50737  0.06375  1.0000
  H   H217      1.0  0.04526  0.55407  0.04850  1.0000
  C   C137      1.0  0.19989  0.40789  0.06616  1.0000
  C   C138      1.0  0.21136  0.43804  0.07194  1.0000
  C   C139      1.0  0.19214  0.45145  0.07266  1.0000
  C   C140      1.0  0.16130  0.43488  0.06771  1.0000
  C   C141      1.0  0.14992  0.40485  0.06174  1.0000
  C   C142      1.0  0.16909  0.39141  0.06109  1.0000
  H   H218      1.0  0.23503  0.45099  0.07581  1.0000
  H   H219      1.0  0.20127  0.47479  0.07715  1.0000
  H   H220      1.0  0.12651  0.39211  0.05735  1.0000
  H   H221      1.0  0.16012  0.36819  0.05641  1.0000
  C   C143      1.0  0.40771  0.53367  0.07798  1.0000
  C   C144      1.0  0.42585  0.51983  0.07481  1.0000
  C   C145      1.0  0.45364  0.58318  0.07937  1.0000
  C   C146      1.0  0.42182  0.56543  0.08025  1.0000
  H   H222      1.0  0.41540  0.49549  0.07288  1.0000
  H   H223      1.0  0.39785  0.53075  0.14097  1.0000
  H   H224      1.0  0.40803  0.57640  0.08269  1.0000
  H   H225      1.0  0.02097  0.61612  0.13191  1.0000
  C   C147      1.0  0.34710  0.38417  0.01153  1.0000
  N   N16       1.0  0.11410  0.37364  0.11152  1.0000
  H   H226      1.0  0.30759  0.39054  0.00959  1.0000
  H   H227      1.0  0.38611  0.37713  0.00874  1.0000
  H   H228      1.0  0.15740  0.40779  0.10239  1.0000
  H   H229      1.0  0.00458  0.55600  0.09665  1.0000
  C   C148      1.0  0.01203  0.34721  0.13673  1.0000
  H   H230      1.0  0.15929  0.38756  0.12164  1.0000
  H   H231      1.0  0.13171  0.50423  0.05356  1.0000
  H   H232      1.0  0.16241  0.54033  0.04750  1.0000
  H   H233      1.0  0.10634  0.39296  0.08782  1.0000
  C   C149      1.0  0.26853  0.34441  0.17403  1.0000
  H   H234      1.0  0.13097  0.56540  0.05370  1.0000
  C   C150      1.0  0.16925  0.56725  0.07985  1.0000
  C   C151      1.0  0.30431  0.37166  0.14346  1.0000
  C   C152      1.0  0.31722  0.36644  0.15898  1.0000
  H   H235      1.0  0.99949  0.58532  0.08613  1.0000
  C   C153      1.0  0.12745  0.51884  0.08747  1.0000
  H   H236      1.0  0.30998  0.34946  0.18600  1.0000
  H   H237      1.0  0.34114  0.37295  0.15929  1.0000
  C   C154      1.0  0.99024  0.56750  0.09651  1.0000
  C   C155      1.0  0.25566  0.34964  0.15850  1.0000
  H   H238      1.0  0.11211  0.34512  0.13335  1.0000
  C   C156      1.0  0.99487  0.33875  0.17324  1.0000
  H   H239      1.0  0.10000  0.52937  0.05954  1.0000
  C   C157      1.0  0.02067  0.60491  0.11894  1.0000
  H   H240      1.0  0.38269  0.44717  0.11652  1.0000
  C   C158      1.0  0.00283  0.37586  0.00150  1.0000
  H   H241      1.0  0.07378  0.35998  0.09545  1.0000
  H   H242      1.0  0.26299  0.36696  0.13155  1.0000
  S   S71       1.0  0.98716  0.39675  0.03243  1.0000
  H   H243      1.0  0.34976  0.48577  0.11525  1.0000
  H   H244      1.0  0.39243  0.48009  0.10317  1.0000
  H   H245      1.0  0.37675  0.44968  0.14890  1.0000
  C   C159      1.0  0.27335  0.36317  0.14334  1.0000
  C   C160      1.0  0.10944  0.39522  0.12299  1.0000
  H   H246      1.0  0.02916  0.62307  0.10875  1.0000
  H   H247      1.0  0.10344  0.35600  0.08461  1.0000
  H   H248      1.0  0.12017  0.52935  0.09824  1.0000
  H   H249      1.0  0.18100  0.58382  0.06911  1.0000
  H   H250      1.0  0.10673  0.49839  0.08268  1.0000
  H   H251      1.0  0.42033  0.47881  0.11778  1.0000
  H   H252      1.0  0.18590  0.56100  0.08594  1.0000
  H   H253      1.0  0.11914  0.41809  0.11689  1.0000
  C   C161      1.0  0.12073  0.54938  0.06489  1.0000
  H   H254      1.0  0.08484  0.38742  0.12506  1.0000
  C   C162      1.0  0.39587  0.47243  0.11647  1.0000
  C   C163      1.0  0.00376  0.36707  0.14532  1.0000
  H   H255      1.0  0.38336  0.48470  0.15947  1.0000
  H   H256      1.0  0.34550  0.48708  0.13892  1.0000
  H   H257      1.0  0.03720  0.59605  0.12005  1.0000
  C   C164      1.0  0.40446  0.51953  0.13031  1.0000
  H   H258      1.0  0.42912  0.52694  0.13196  1.0000
  N   N17       1.0  0.14225  0.54015  0.07278  1.0000
  H   H259      1.0  0.00362  0.38554  0.13797  1.0000
  H   H260      1.0  0.47146  0.52647  0.07199  1.0000
  H   H261      1.0  0.14271  0.51071  0.09347  1.0000
  C   C165      1.0  0.29954  0.35298  0.17417  1.0000
  H   H262      1.0  0.46411  0.60756  0.08114  1.0000
  H   H263      1.0  0.11328  0.56085  0.07495  1.0000
  H   H264      1.0  0.10387  0.32680  0.11174  1.0000
  C   C166      1.0  0.47178  0.56927  0.07646  1.0000
  S   S72       1.0  0.01270  0.64790  0.07451  1.0000
  S   S73       1.0  0.24443  0.32600  0.19239  1.0000
  H   H265      1.0  0.41466  0.48080  0.15063  1.0000
  H   H266      1.0  0.16795  0.51801  0.06438  1.0000
  H   H267      1.0  0.33936  0.45232  0.12823  1.0000
  C   C167      1.0  0.10107  0.34372  0.12015  1.0000
  H   H268      1.0  0.12031  0.39787  0.13637  1.0000
  C   C168      1.0  0.15153  0.52514  0.05893  1.0000
  C   C169      1.0  0.35378  0.47745  0.12823  1.0000
  C   C170      1.0  0.39049  0.47490  0.14826  1.0000
  H   H269      1.0  0.40137  0.52843  0.11726  1.0000
  H   H270      1.0  0.16295  0.57910  0.09031  1.0000
  H   H271      1.0  0.23173  0.34310  0.15816  1.0000
  H   H272      1.0  0.00281  0.64239  0.01681  1.0000
  H   H273      1.0  0.07629  0.33466  0.12244  1.0000
  C   C171      1.0  0.09879  0.37049  0.09408  1.0000
  H   H274      1.0  0.15136  0.36972  0.09992  1.0000
  C   C172      1.0  0.99240  0.65069  0.00713  1.0000
  C   C173      1.0  0.99501  0.36268  0.16338  1.0000
  H   H275      1.0  0.99587  0.54651  0.12845  1.0000
  H   H276      1.0  0.98825  0.37798  0.16976  1.0000
  C   C174      1.0  0.01189  0.32325  0.14658  1.0000
  H   H277      1.0  0.12517  0.34978  0.23923  1.0000
  N   N18       1.0  0.98990  0.58053  0.11424  1.0000
  C   C175      1.0  0.98293  0.38439  0.00965  1.0000
  S   S74       1.0  0.98188  0.33337  0.19571  1.0000
  H   H278      1.0  0.98869  0.65269  0.16029  1.0000
  C   C176      1.0  0.30880  0.37842  0.31248  1.0000
  H   H279      1.0  0.29708  0.37783  0.45791  1.0000
  H   H280      1.0  0.13293  0.37853  0.47685  1.0000
  Fe  Fe37      1.0  0.33418  0.39504  0.42896  1.0000
  S   S75       1.0  0.31977  0.43059  0.43325  1.0000
  S   S76       1.0  0.35028  0.37384  0.45090  1.0000
  Fe  Fe38      1.0  0.31989  0.39111  0.38786  1.0000
  S   S77       1.0  0.30513  0.42734  0.38982  1.0000
  S   S78       1.0  0.31367  0.35753  0.36498  1.0000
  Fe  Fe39      1.0  0.34623  0.45168  0.40833  1.0000
  S   S79       1.0  0.37733  0.50249  0.41272  1.0000
  Fe  Fe40      1.0  0.28041  0.40350  0.41459  1.0000
  S   S80       1.0  0.23074  0.38428  0.42237  1.0000
  S   S81       1.0  0.36250  0.41701  0.40487  1.0000
  S   S82       1.0  0.29328  0.36637  0.41183  1.0000
  Fe  Fe41      1.0  0.03354  0.37728  0.38758  1.0000
  S   S83       1.0  0.06662  0.42646  0.38348  1.0000
  C   C177      1.0  0.29992  0.32664  0.31329  1.0000
  Fe  Fe42      1.0  0.03757  0.38539  0.42926  1.0000
  S   S84       1.0  0.07034  0.43509  0.42735  1.0000
  S   S85       1.0  0.02560  0.36128  0.45631  1.0000
  Fe  Fe43      1.0  0.04089  0.43620  0.40477  1.0000
  S   S86       1.0  0.01781  0.46588  0.40222  1.0000
  Fe  Fe44      1.0  0.09320  0.42071  0.40634  1.0000
  S   S87       1.0  0.14491  0.44362  0.40663  1.0000
  S   S88       1.0  0.00646  0.38708  0.40804  1.0000
  S   S89       1.0  0.06183  0.37080  0.40915  1.0000
  S   S90       1.0  0.07580  0.60802  0.38816  1.0000
  H   H281      1.0  0.24027  0.34518  0.32696  1.0000
  H   H282      1.0  0.16380  0.44312  0.44521  1.0000
  S   S91       1.0  0.00208  0.63826  0.45239  1.0000
  C   C178      1.0  0.27442  0.37173  0.46336  1.0000
  C   C179      1.0  0.03524  0.50580  0.39940  1.0000
  C   C180      1.0  0.01814  0.52096  0.40254  1.0000
  C   C181      1.0  0.03050  0.55239  0.39967  1.0000
  C   C182      1.0  0.05994  0.56888  0.39323  1.0000
  C   C183      1.0  0.07707  0.55372  0.39009  1.0000
  C   C184      1.0  0.06491  0.52239  0.39332  1.0000
  H   H283      1.0  0.26292  0.37998  0.45376  1.0000
  H   H284      1.0  0.01702  0.56370  0.40207  1.0000
  H   H285      1.0  0.09981  0.56622  0.38504  1.0000
  H   H286      1.0  0.07826  0.51100  0.39074  1.0000
  C   C185      1.0  0.20732  0.40062  0.41629  1.0000
  C   C186      1.0  0.21942  0.43156  0.41274  1.0000
  C   C187      1.0  0.19998  0.44420  0.40944  1.0000
  C   C188      1.0  0.16829  0.42602  0.40930  1.0000
  C   C189      1.0  0.15620  0.39488  0.41227  1.0000
  C   C190      1.0  0.17562  0.38238  0.41606  1.0000
  H   H287      1.0  0.24376  0.44591  0.41292  1.0000
  H   H288      1.0  0.20959  0.46829  0.40709  1.0000
  H   H289      1.0  0.13192  0.38044  0.41171  1.0000
  H   H290      1.0  0.16604  0.35837  0.41864  1.0000
  C   C191      1.0  0.35438  0.37899  0.47457  1.0000
  C   C192      1.0  0.01140  0.42371  0.35484  1.0000
  H   H291      1.0  0.42857  0.47112  0.41717  1.0000
  H   H292      1.0  0.34253  0.41507  0.47626  1.0000
  H   H293      1.0  0.08653  0.37762  0.45022  1.0000
  H   H294      1.0  0.47407  0.59708  0.41555  1.0000
  C   C193      1.0  0.03825  0.36113  0.31449  1.0000
  C   C194      1.0  0.03540  0.36362  0.33311  1.0000
  C   C195      1.0  0.01079  0.34094  0.34204  1.0000
  C   C196      1.0  0.01667  0.33598  0.30452  1.0000
  H   H295      1.0  0.13690  0.64407  0.40797  1.0000
  H   H296      1.0  0.31138  0.39784  0.30495  1.0000
  N   N19       1.0  0.10372  0.34112  0.26485  1.0000
  C   C197      1.0  0.30269  0.35136  0.30333  1.0000
  S   S92       1.0  0.23608  0.32304  0.24569  1.0000
  C   C198      1.0  0.30953  0.35616  0.34123  1.0000
  H   H297      1.0  0.44320  0.43443  0.44483  1.0000
  H   H298      1.0  0.09053  0.37314  0.27556  1.0000
  H   H299      1.0  0.41161  0.42649  0.45899  1.0000
  H   H300      1.0  0.45673  0.51068  0.46075  1.0000
  C   C199      1.0  0.41530  0.52618  0.40611  1.0000
  C   C200      1.0  0.42969  0.51685  0.39348  1.0000
  C   C201      1.0  0.36284  0.36039  0.48456  1.0000
  C   C202      1.0  0.43160  0.55521  0.41402  1.0000
  H   H301      1.0  0.41737  0.49472  0.38715  1.0000
  H   H302      1.0  0.01189  0.33334  0.49074  1.0000
  H   H303      1.0  0.42064  0.56275  0.42372  1.0000
  H   H304      1.0  0.05229  0.38301  0.34052  1.0000
  H   H305      1.0  0.00203  0.40387  0.46411  1.0000
  H   H306      1.0  0.38993  0.46184  0.46024  1.0000
  H   H307      1.0  0.99514  0.50832  0.40721  1.0000
  H   H308      1.0  0.19638  0.34257  0.30873  1.0000
  N   N20       1.0  0.12793  0.41247  0.46198  1.0000
  H   H309      1.0  0.11988  0.37494  0.44454  1.0000
  C   C203      1.0  0.98584  0.39478  0.49126  1.0000
  H   H310      1.0  0.40650  0.42389  0.43525  1.0000
  S   S93       1.0  0.02179  0.33425  0.28105  1.0000
  C   C204      1.0  0.34886  0.40041  0.48366  1.0000
  C   C205      1.0  0.27245  0.32891  0.47910  1.0000
  C   C206      1.0  0.99910  0.39019  0.47578  1.0000
  C   C207      1.0  0.11104  0.39118  0.44724  1.0000
  H   H311      1.0  0.11959  0.44837  0.45266  1.0000
  H   H312      1.0  0.45046  0.50725  0.42802  1.0000
  C   C208      1.0  0.46001  0.53644  0.38884  1.0000
  H   H313      1.0  0.29497  0.33301  0.47416  1.0000
  H   H314      1.0  0.12950  0.36138  0.28886  1.0000
  H   H315      1.0  0.15092  0.37297  0.26864  1.0000
  C   C209      1.0  0.16041  0.42940  0.45745  1.0000
  H   H316      1.0  0.05738  0.37884  0.30777  1.0000
  H   H317      1.0  0.11231  0.38503  0.25544  1.0000
  H   H318      1.0  0.31660  0.40173  0.33809  1.0000
  N   N21       1.0  0.42988  0.46953  0.44581  1.0000
  C   C210      1.0  0.40172  0.47193  0.44760  1.0000
  C   C211      1.0  0.44423  0.48274  0.42868  1.0000
  C   C212      1.0  0.45092  0.48625  0.46072  1.0000
  Fe  Fe45      1.0  0.05772  0.63992  0.39738  1.0000
  C   C213      1.0  0.11583  0.43401  0.46463  1.0000
  H   H319      1.0  0.02153  0.44014  0.36620  1.0000
  C   C214      1.0  0.00854  0.36798  0.47543  1.0000
  C   C215      1.0  0.09470  0.36509  0.26249  1.0000
  H   H320      1.0  0.11274  0.40358  0.43472  1.0000
  H   H321      1.0  0.24257  0.33021  0.43832  1.0000
  S   S94       1.0  0.00533  0.34308  0.36544  1.0000
  H   H322      1.0  0.12704  0.44959  0.47618  1.0000
  C   C216      1.0  0.46193  0.57475  0.40943  1.0000
  H   H323      1.0  0.44068  0.47676  0.47383  1.0000
  H   H324      1.0  0.02175  0.43603  0.34239  1.0000
  H   H325      1.0  0.27660  0.34153  0.49202  1.0000
  H   H326      1.0  0.01833  0.40572  0.35639  1.0000
  H   H327      1.0  0.38559  0.45988  0.43643  1.0000
  H   H328      1.0  0.17008  0.41382  0.45466  1.0000
  C   C217      1.0  0.42257  0.43724  0.44625  1.0000
  C   C218      1.0  0.12424  0.39518  0.47849  1.0000
  H   H329      1.0  0.09986  0.38223  0.48213  1.0000
  H   H330      1.0  0.24025  0.33988  0.29476  1.0000
  H   H331      1.0  0.13958  0.63725  0.37554  1.0000
  C   C219      1.0  0.31185  0.38074  0.33130  1.0000
  S   S95       1.0  0.01155  0.63738  0.39893  1.0000
  H   H332      1.0  0.27807  0.38460  0.47613  1.0000
  C   C220      1.0  0.98840  0.64356  0.47343  1.0000
  S   S96       1.0  0.29993  0.35000  0.27949  1.0000
  H   H333      1.0  0.17409  0.44532  0.46839  1.0000
  C   C221      1.0  0.13227  0.35342  0.27542  1.0000
  H   H334      1.0  0.36713  0.34369  0.47773  1.0000
  H   H335      1.0  0.09091  0.42186  0.46703  1.0000
  H   H336      1.0  0.40625  0.49598  0.44720  1.0000
  H   H337      1.0  0.07321  0.35658  0.25461  1.0000
  H   H338      1.0  0.22783  0.34310  0.48542  1.0000
  C   C222      1.0  0.00450  0.35046  0.49079  1.0000
  H   H339      1.0  0.13669  0.41046  0.48995  1.0000
  N   N22       1.0  0.25668  0.33865  0.46594  1.0000
  H   H340      1.0  0.46526  0.48088  0.42661  1.0000
  C   C223      1.0  0.30363  0.32917  0.33205  1.0000
  C   C224      1.0  0.10836  0.33067  0.24719  1.0000
  H   H341      1.0  0.13974  0.33588  0.27735  1.0000
  H   H342      1.0  0.47082  0.52910  0.37895  1.0000
  C   C225      1.0  0.47628  0.56552  0.39673  1.0000
  H   H343      1.0  0.47248  0.48501  0.45974  1.0000
  H   H344      1.0  0.27625  0.32734  0.44363  1.0000
  C   C226      1.0  0.22627  0.33138  0.47246  1.0000
  H   H345      1.0  0.21399  0.33863  0.46274  1.0000
  H   H346      1.0  0.18546  0.65252  0.39473  1.0000
  C   C227      1.0  0.25363  0.32273  0.44873  1.0000
  H   H347      1.0  0.07444  0.32274  0.28737  1.0000
  H   H348      1.0  0.33576  0.40019  0.71702  1.0000
  S   S97       1.0  0.00592  0.32373  0.73513  1.0000
  H   H349      1.0  0.99345  0.48245  0.54196  1.0000
  H   H350      1.0  0.37188  0.34826  0.51083  1.0000
  C   C228      1.0  0.98180  0.37730  0.50663  1.0000
  H   H351      1.0  0.36807  0.36067  0.64598  1.0000
  H   H352      1.0  0.38433  0.43044  0.73368  1.0000
  C   C229      1.0  0.34639  0.34629  0.65193  1.0000
  C   C230      1.0  0.31379  0.33117  0.67831  1.0000
  H   H353      1.0  0.30153  0.37897  0.72890  1.0000
  Fe  Fe46      1.0  0.37650  0.36407  0.55766  1.0000
  S   S98       1.0  0.41662  0.35572  0.55491  1.0000
  S   S99       1.0  0.36241  0.38809  0.53626  1.0000
  Fe  Fe47      1.0  0.36314  0.33749  0.59621  1.0000
  C   C231      1.0  0.98823  0.33540  0.65048  1.0000
  C   C232      1.0  0.34181  0.34970  0.67024  1.0000
  Fe  Fe48      1.0  0.42875  0.37376  0.58306  1.0000
  S   S100      1.0  0.30968  0.33600  0.70164  1.0000
  H   H354      1.0  0.34705  0.41939  0.50938  1.0000
  S   S101      1.0  0.39025  0.38496  0.58549  1.0000
  C   C233      1.0  0.35149  0.40285  0.50248  1.0000
  C   C234      1.0  0.36554  0.36289  0.50337  1.0000
  C   C235      1.0  0.46860  0.32941  0.54201  1.0000
  C   C236      1.0  0.35981  0.38411  0.51250  1.0000
  H   H355      1.0  0.01170  0.34695  0.64650  1.0000
  H   H356      1.0  0.36023  0.36676  0.67821  1.0000
  H   H357      1.0  0.98914  0.34194  0.51809  1.0000
  C   C237      1.0  0.99135  0.35513  0.50631  1.0000
  H   H358      1.0  0.47980  0.32728  0.52974  1.0000
  H   H359      1.0  0.31895  0.41967  0.72902  1.0000
  C   C238      1.0  0.32372  0.40011  0.72946  1.0000
  S   S102      1.0  0.47785  0.40287  0.59274  1.0000
  H   H360      1.0  0.99901  0.32734  0.67737  1.0000
  H   H361      1.0  0.46783  0.34623  0.57610  1.0000
  S   S103      1.0  0.40257  0.32751  0.59555  1.0000
  C   C239      1.0  0.32283  0.32444  0.64133  1.0000
  H   H362      1.0  0.35921  0.37389  0.73334  1.0000
  H   H363      1.0  0.47560  0.43893  0.56269  1.0000
  H   H364      1.0  0.47353  0.35351  0.54337  1.0000
  C   C240      1.0  0.46311  0.32235  0.57382  1.0000
  C   C241      1.0  0.98110  0.32424  0.66804  1.0000
  H   H365      1.0  0.13323  0.32213  0.71915  1.0000
  H   H366      1.0  0.47121  0.43690  0.88459  1.0000
  H   H367      1.0  0.07893  0.36846  0.76223  1.0000
  H   H368      1.0  0.36491  0.36751  0.84441  1.0000
  S   S104      1.0  0.41022  0.33455  0.89846  1.0000
  H   H369      1.0  0.36041  0.37470  0.75750  1.0000
  Fe  Fe49      1.0  0.42413  0.37819  0.91426  1.0000
  S   S105      1.0  0.38304  0.38270  0.90589  1.0000
  C   C242      1.0  0.36522  0.37492  0.98297  1.0000
  Fe  Fe50      1.0  0.36738  0.33734  0.89168  1.0000
  C   C243      1.0  0.38495  0.44779  0.93999  1.0000
  H   H370      1.0  0.11013  0.36322  0.80678  1.0000
  Fe  Fe51      1.0  0.36262  0.35653  0.93092  1.0000
  S   S106      1.0  0.33626  0.37049  0.95023  1.0000
  H   H371      1.0  0.45362  0.49423  0.95914  1.0000
  S   S107      1.0  0.40364  0.35329  0.93964  1.0000
  H   H372      1.0  0.02233  0.46983  0.97077  1.0000
  H   H373      1.0  0.42607  0.50426  0.95034  1.0000
  C   C244      1.0  0.34153  0.37645  0.97377  1.0000
  H   H374      1.0  0.41034  0.42739  0.96461  1.0000
  H   H375      1.0  0.38045  0.46561  0.93406  1.0000
  H   H376      1.0  0.30266  0.38384  0.97658  1.0000
  H   H377      1.0  0.38135  0.37058  0.97572  1.0000
  N   N23       1.0  0.98320  0.45614  0.95355  1.0000
  C   C245      1.0  0.99799  0.36564  0.98352  1.0000
  C   C246      1.0  0.06196  0.35700  0.77281  1.0000
  C   C247      1.0  0.32455  0.40070  0.76173  1.0000
  H   H378      1.0  0.01339  0.35877  0.97750  1.0000
  H   H379      1.0  0.11873  0.38364  0.78619  1.0000
  H   H380      1.0  0.35431  0.37548  0.81293  1.0000
  C   C248      1.0  0.42903  0.48534  0.95606  1.0000
  C   C249      1.0  0.98343  0.63650  0.99013  1.0000
  C   C250      1.0  0.99519  0.48615  0.94509  1.0000
  H   H381      1.0  0.01534  0.44507  0.94106  1.0000
  C   C251      1.0  0.42225  0.43468  0.95169  1.0000
  H   H382      1.0  0.04175  0.33819  0.76628  1.0000
  H   H383      1.0  0.33716  0.40101  0.77415  1.0000
  S   S108      1.0  0.46962  0.41858  0.92191  1.0000
  C   C252      1.0  0.99044  0.43596  0.94241  1.0000
  H   H384      1.0  0.99165  0.64131  0.74649  1.0000
  H   H385      1.0  0.98221  0.59764  0.83189  1.0000
  C   C253      1.0  0.34197  0.35321  0.81865  1.0000
  C   C254      1.0  0.32106  0.38250  0.98352  1.0000
  H   H386      1.0  0.98892  0.43735  0.97815  1.0000
  N   N24       1.0  0.41767  0.45907  0.94359  1.0000
  H   H387      1.0  0.44675  0.44192  0.95408  1.0000
  H   H388      1.0  0.98709  0.61736  0.98695  1.0000
  C   C255      1.0  0.43446  0.46837  0.92670  1.0000
  H   H389      1.0  0.30232  0.37963  0.76216  1.0000
  H   H390      1.0  0.37153  0.43995  0.95243  1.0000
  S   S109      1.0  0.31329  0.33614  0.78562  1.0000
  H   H391      1.0  0.43117  0.48637  0.91998  1.0000
  C   C256      1.0  0.99720  0.45964  0.97148  1.0000
  H   H392      1.0  0.45927  0.47729  0.92899  1.0000
  H   H393      1.0  0.09385  0.38763  0.80187  1.0000
  C   C257      1.0  0.10039  0.37114  0.79589  1.0000
  H   H394      1.0  0.99195  0.47444  0.98035  1.0000
  H   H395      1.0  0.41329  0.41437  0.94276  1.0000
  H   H396      1.0  0.41671  0.47904  0.96892  1.0000
  H   H397      1.0  0.04206  0.34491  0.80631  1.0000
  H   H398      1.0  0.05451  0.37325  0.77809  1.0000
  C   C258      1.0  0.34804  0.34877  0.83656  1.0000
  H   H399      1.0  0.37564  0.42802  0.93056  1.0000
  N   N25       1.0  0.07407  0.34545  0.78714  1.0000
  H   H400      1.0  0.31995  0.42036  0.76234  1.0000
  C   C259      1.0  0.05019  0.32957  0.80042  1.0000
  H   H401      1.0  0.02022  0.49690  0.94356  1.0000
  H   H402      1.0  0.42704  0.44886  0.91716  1.0000
  C   C260      1.0  0.32009  0.32913  0.80814  1.0000
  H   H403      1.0  0.99001  0.50195  0.95307  1.0000
  H   H404      1.0  0.98501  0.48420  0.93152  1.0000
  H   H405      1.0  0.98596  0.37442  0.81172  1.0000
  H   H406      1.0  0.10141  0.33529  0.76908  1.0000
  H   H407      1.0  0.38488  0.43089  0.75768  1.0000
  S   S110      1.0  0.98472  0.33404  0.78377  1.0000
  C   C261      1.0  0.08369  0.32415  0.77936  1.0000
  H   H408      1.0  0.99778  0.59656  0.86329  1.0000
  C   C262      1.0  0.34707  0.37476  0.74551  1.0000
  H   H409      1.0  0.36763  0.44992  0.74571  1.0000
  C   C263      1.0  0.37092  0.42942  0.74566  1.0000
  N   N26       1.0  0.34156  0.40128  0.74559  1.0000
  H   H410      1.0  0.32536  0.35333  0.74573  1.0000
  H   H411      1.0  0.98133  0.41296  0.94822  1.0000
  H   H412      1.0  0.16602  0.88194  0.17051  1.0000
  S   S111      1.0  0.26643  0.85356  0.08179  1.0000
  Fe  Fe52      1.0  0.03362  0.68244  0.09712  1.0000
  S   S112      1.0  0.08073  0.68773  0.09375  1.0000
  Fe  Fe53      1.0  0.02514  0.68691  0.05582  1.0000
  S   S113      1.0  0.07137  0.69240  0.05051  1.0000
  H   H413      1.0  0.21205  0.96534  0.17638  1.0000
  Fe  Fe54      1.0  0.08760  0.72453  0.07413  1.0000
  S   S114      1.0  0.12284  0.77423  0.07053  1.0000
  S   S115      1.0  0.04145  0.72076  0.07881  1.0000
  H   H414      1.0  0.22896  0.92857  0.20245  1.0000
  C   C264      1.0  0.22643  0.83160  0.07881  1.0000
  C   C265      1.0  0.20857  0.84486  0.07353  1.0000
  C   C266      1.0  0.17699  0.82687  0.07114  1.0000
  C   C267      1.0  0.16276  0.79541  0.07406  1.0000
  C   C268      1.0  0.18056  0.78207  0.07941  1.0000
  C   C269      1.0  0.21226  0.80010  0.08174  1.0000
  H   H415      1.0  0.21907  0.86900  0.07121  1.0000
  H   H416      1.0  0.16350  0.83747  0.06704  1.0000
  H   H417      1.0  0.16994  0.75790  0.08168  1.0000
  H   H418      1.0  0.22581  0.78956  0.08582  1.0000
  C   C270      1.0  0.16818  0.90626  0.20295  1.0000
  C   C271      1.0  0.01045  0.69172  0.14341  1.0000
  H   H419      1.0  0.20992  0.96525  0.20017  1.0000
  C   C272      1.0  0.17288  0.90661  0.17090  1.0000
  H   H420      1.0  0.21075  0.89326  0.19016  1.0000
  N   N27       1.0  0.18861  0.92098  0.18789  1.0000
  H   H421      1.0  0.17685  0.95717  0.18701  1.0000
  H   H422      1.0  0.15197  0.90891  0.16897  1.0000
  C   C273      1.0  0.19717  0.95360  0.18779  1.0000
  H   H423      1.0  0.18771  0.91720  0.15925  1.0000
  H   H424      1.0  0.23212  0.92840  0.17872  1.0000
  C   C274      1.0  0.21625  0.91755  0.18989  1.0000
  N   N28       1.0  0.06791  0.78468  0.03228  1.0000
  H   H425      1.0  0.14712  0.90851  0.20189  1.0000
  S   S116      1.0  0.01099  0.66954  0.12462  1.0000
  C   C275      1.0  0.00708  0.72480  0.17384  1.0000
  H   H426      1.0  0.10845  0.81359  0.04735  1.0000
  C   C276      1.0  0.08341  0.80466  0.04783  1.0000
  C   C277      1.0  0.02177  0.72319  0.14270  1.0000
  S   S117      1.0  0.99415  0.79135  0.23035  1.0000
  H   H427      1.0  0.09245  0.91197  0.21928  1.0000
  C   C278      1.0  0.07477  0.75904  0.03199  1.0000
  Fe  Fe55      1.0  0.99438  0.74765  0.22213  1.0000
  H   H428      1.0  0.06710  0.74584  0.04441  1.0000
  H   H429      1.0  0.07588  0.79211  0.06059  1.0000
  H   H430      1.0  0.07890  0.82435  0.04855  1.0000
  H   H431      1.0  0.02597  0.75916  0.04600  1.0000
  C   C279      1.0  0.03478  0.77281  0.03370  1.0000
  C   C280      1.0  0.07866  0.80200  0.01566  1.0000
  H   H432      1.0  0.09959  0.76693  0.03110  1.0000
  H   H433      1.0  0.02846  0.76375  0.15690  1.0000
  H   H434      1.0  0.03162  0.73497  0.13050  1.0000
  C   C281      1.0  0.01991  0.73950  0.15775  1.0000
  S   S118      1.0  0.00501  0.74688  0.19225  1.0000
  H   H435      1.0  0.10360  0.81116  0.01426  1.0000
  H   H436      1.0  0.02860  0.79142  0.03413  1.0000
  S   S119      1.0  0.15269  0.95957  0.22761  1.0000
  S   S120      1.0  0.99739  0.69334  0.03313  1.0000
  C   C282      1.0  0.10114  0.90473  0.23048  1.0000
  S   S121      1.0  0.23310  0.96517  0.23680  1.0000
  C   C283      1.0  0.98755  0.67524  0.01162  1.0000
  H   H437      1.0  0.06303  0.74300  0.02067  1.0000
  H   H438      1.0  0.17922  0.91673  0.21598  1.0000
  H   H439      1.0  0.16124  0.88162  0.20353  1.0000
  S   S122      1.0  0.27230  0.93588  0.06988  1.0000
  H   H440      1.0  0.02236  0.75747  0.02222  1.0000
  H   H441      1.0  0.44907  0.98339  0.02166  1.0000
  C   C284      1.0  0.13038  0.92386  0.23735  1.0000
  Fe  Fe56      1.0  0.20199  0.98554  0.23617  1.0000
  H   H442      1.0  0.07381  0.82153  0.01539  1.0000
  H   H443      1.0  0.06747  0.78741  0.00370  1.0000
  Fe  Fe57      1.0  0.06004  0.65513  0.07041  1.0000
  C   C285      1.0  0.45821  0.97252  0.08888  1.0000
  H   H444      1.0  0.37503  0.83508  0.07936  1.0000
  H   H445      1.0  0.36902  0.86363  0.06840  1.0000
  H   H446      1.0  0.98608  0.68161  0.18680  1.0000
  H   H447      1.0  0.39306  0.92477  0.06669  1.0000
  H   H448      1.0  0.31952  0.80410  0.08347  1.0000
  N   N29       1.0  0.34697  0.84963  0.09366  1.0000
  Fe  Fe58      1.0  0.31427  0.95925  0.05289  1.0000
  H   H449      1.0  0.38623  0.94269  0.03576  1.0000
  C   C286      1.0  0.41647  0.93500  0.07114  1.0000
  H   H450      1.0  0.42686  0.90467  0.05553  1.0000
  H   H451      1.0  0.29875  0.95577  0.13869  1.0000
  C   C287      1.0  0.29190  0.97041  0.14576  1.0000
  C   C288      1.0  0.29199  0.97097  0.16461  1.0000
  C   C289      1.0  0.31842  0.82557  0.08570  1.0000
  C   C290      1.0  0.42769  0.95943  0.08325  1.0000
  S   S123      1.0  0.31736  0.93394  0.10202  1.0000
  H   H452      1.0  0.39629  0.94640  0.01263  1.0000
  H   H453      1.0  0.36558  0.89663  0.10175  1.0000
  C   C291      1.0  0.46612  0.93653  0.07063  1.0000
  S   S124      1.0  0.40436  0.97424  0.09165  1.0000
  C   C292      1.0  0.47738  0.96116  0.08259  1.0000
  H   H454      1.0  0.29914  0.95680  0.17189  1.0000
  C   C293      1.0  0.37244  0.85574  0.08167  1.0000
  H   H455      1.0  0.29870  0.82042  0.09442  1.0000
  S   S125      1.0  0.33086  0.92590  0.06011  1.0000
  C   C294      1.0  0.35267  0.83968  0.11115  1.0000
  Fe  Fe59      1.0  0.30112  0.96629  0.09269  1.0000
  H   H456      1.0  0.33383  0.83487  0.12051  1.0000
  C   C295      1.0  0.43564  0.92366  0.06485  1.0000
  Fe  Fe60      1.0  0.35546  0.95744  0.08287  1.0000
  H   H457      1.0  0.39439  0.87366  0.08734  1.0000
  H   H458      1.0  0.36527  0.95221  0.01976  1.0000
  S   S126      1.0  0.31445  0.96512  0.02246  1.0000
  C   C296      1.0  0.38845  0.95604  0.02356  1.0000
  H   H459      1.0  0.37401  0.85742  0.11753  1.0000
  H   H460      1.0  0.32535  0.87386  0.10518  1.0000
  H   H461      1.0  0.31310  0.83258  0.07262  1.0000
  H   H462      1.0  0.33925  0.88520  0.08324  1.0000
  C   C297      1.0  0.34430  0.87761  0.09613  1.0000
  Fe  Fe61      1.0  0.29091  0.90490  0.07841  1.0000
  H   H463      1.0  0.35486  0.81862  0.10979  1.0000
  H   H464      1.0  0.06034  0.86165  0.23278  1.0000
  C   C298      1.0  0.08292  0.87619  0.23808  1.0000
  C   C299      1.0  0.99609  0.69336  0.17462  1.0000
  C   C300      1.0  0.99761  0.67698  0.15950  1.0000
  H   H465      1.0  0.43873  0.98077  0.04466  1.0000
  C   C301      1.0  0.00193  0.72266  0.33442  1.0000
  Fe  Fe62      1.0  0.03450  0.68504  0.38780  1.0000
  S   S127      1.0  0.01665  0.70662  0.36687  1.0000
  S   S128      1.0  0.04701  0.70762  0.41539  1.0000
  C   C302      1.0  0.01022  0.70277  0.34320  1.0000
  C   C303      1.0  0.01275  0.68055  0.33296  1.0000
  C   C304      1.0  0.00680  0.67816  0.31434  1.0000
  Fe  Fe63      1.0  0.02688  0.79472  0.25210  1.0000
  C   C305      1.0  0.99869  0.69816  0.30557  1.0000
  C   C306      1.0  0.99627  0.72046  0.31578  1.0000
  Fe  Fe64      1.0  0.99014  0.72798  0.26187  1.0000
  Fe  Fe65      1.0  0.02686  0.66002  0.42627  1.0000
  H   H466      1.0  0.98994  0.73598  0.30937  1.0000
  H   H467      1.0  0.99976  0.73987  0.34215  1.0000
  H   H468      1.0  0.05671  0.72975  0.27166  1.0000
  S   S129      1.0  0.07150  0.65967  0.42487  1.0000
  S   S130      1.0  0.98979  0.76999  0.27162  1.0000
  H   H469      1.0  0.09099  0.75867  0.49012  1.0000
  H   H470      1.0  0.04701  0.77033  0.28267  1.0000
  C   C307      1.0  0.07322  0.73492  0.28292  1.0000
  H   H471      1.0  0.06033  0.72021  0.29416  1.0000
  H   H472      1.0  0.05207  0.76302  0.30549  1.0000
  C   C308      1.0  0.06422  0.77561  0.29349  1.0000
  H   H473      1.0  0.05637  0.69818  0.45524  1.0000
  C   C309      1.0  0.06332  0.70977  0.46851  1.0000
  H   H474      1.0  0.04912  0.72103  0.47099  1.0000
  C   C310      1.0  0.98715  0.67014  0.47798  1.0000
  S   S131      1.0  0.99179  0.69424  0.28195  1.0000
  S   S132      1.0  0.07942  0.68578  0.38439  1.0000
  H   H475      1.0  0.07407  0.80032  0.29658  1.0000
  H   H476      1.0  0.05723  0.69160  0.47858  1.0000
  H   H477      1.0  0.99379  0.68806  0.46835  1.0000
  H   H478      1.0  0.46869  0.97964  0.38736  1.0000
  H   H479      1.0  0.09017  0.76811  0.45784  1.0000
  C   C311      1.0  0.10276  0.75512  0.45552  1.0000
  H   H480      1.0  0.09629  0.74474  0.44193  1.0000
  H   H481      1.0  0.09017  0.72785  0.27865  1.0000
  H   H482      1.0  0.10952  0.69810  0.47598  1.0000
  S   S133      1.0  0.07136  0.83206  0.26344  1.0000
  H   H483      1.0  0.01886  0.66491  0.33944  1.0000
  C   C312      1.0  0.47239  0.94154  0.39793  1.0000
  H   H484      1.0  0.08902  0.78246  0.26117  1.0000
  N   N30       1.0  0.09601  0.73176  0.46923  1.0000
  H   H485      1.0  0.12743  0.77158  0.45521  1.0000
  H   H486      1.0  0.12242  0.78052  0.26828  1.0000
  C   C313      1.0  0.10448  0.78605  0.27278  1.0000
  C   C314      1.0  0.21689  0.93722  0.34620  1.0000
  H   H487      1.0  0.15161  0.71522  0.38516  1.0000
  C   C315      1.0  0.27859  0.97551  0.30605  1.0000
  S   S134      1.0  0.31034  0.91571  0.42979  1.0000
  H   H488      1.0  0.29781  0.97105  0.47159  1.0000
  C   C316      1.0  0.19359  0.78942  0.42047  1.0000
  C   C317      1.0  0.23945  0.91068  0.36188  1.0000
  H   H489      1.0  0.10787  0.70404  0.45255  1.0000
  H   H490      1.0  0.12557  0.78293  0.40721  1.0000
  C   C318      1.0  0.11381  0.71571  0.46580  1.0000
  H   H491      1.0  0.13861  0.73169  0.46574  1.0000
  H   H492      1.0  0.20644  0.68496  0.38099  1.0000
  H   H493      1.0  0.19902  0.94444  0.34608  1.0000
  H   H494      1.0  0.12711  0.76720  0.29967  1.0000
  C   C319      1.0  0.29511  0.95869  0.33277  1.0000
  H   H495      1.0  0.26263  0.93032  0.36253  1.0000
  Fe  Fe66      1.0  0.09062  0.70538  0.41213  1.0000
  N   N31       1.0  0.21608  0.92073  0.36266  1.0000
  H   H496      1.0  0.12009  0.79736  0.30754  1.0000
  H   H497      1.0  0.11541  0.81075  0.27614  1.0000
  C   C320      1.0  0.10897  0.77306  0.30325  1.0000
  H   H498      1.0  0.09693  0.75923  0.31500  1.0000
  H   H499      1.0  0.12559  0.66353  0.37145  1.0000
  H   H500      1.0  0.24497  0.96148  0.37751  1.0000
  Fe  Fe67      1.0  0.27318  0.90805  0.40972  1.0000
  C   C321      1.0  0.14408  0.66849  0.40560  1.0000
  H   H501      1.0  0.23909  0.95804  0.34488  1.0000
  S   S135      1.0  0.26272  0.96693  0.28398  1.0000
  H   H502      1.0  0.22188  0.92940  0.39095  1.0000
  H   H503      1.0  0.20432  0.68991  0.40462  1.0000
  H   H504      1.0  0.46810  0.90018  0.40903  1.0000
  C   C322      1.0  0.14144  0.91426  0.25177  1.0000
  C   C323      1.0  0.45636  0.91285  0.40550  1.0000
  H   H505      1.0  0.27818  0.93240  0.30835  1.0000
  H   H506      1.0  0.18078  0.87793  0.35283  1.0000
  C   C324      1.0  0.42477  0.90012  0.40803  1.0000
  S   S136      1.0  0.22150  0.87845  0.40883  1.0000
  C   C325      1.0  0.09376  0.86687  0.25276  1.0000
  S   S137      1.0  0.36888  0.89836  0.40599  1.0000
  H   H507      1.0  0.13161  0.87895  0.27089  1.0000
  C   C326      1.0  0.12309  0.88598  0.25953  1.0000
  H   H508      1.0  0.16762  0.90056  0.36495  1.0000
  Fe  Fe68      1.0  0.33906  0.92157  0.40552  1.0000
  H   H509      1.0  0.15569  0.68171  0.41789  1.0000
  H   H510      1.0  0.18452  0.72628  0.39905  1.0000
  H   H511      1.0  0.16063  0.66957  0.36166  1.0000
  H   H512      1.0  0.12300  0.67036  0.40376  1.0000
  C   C327      1.0  0.19119  0.67667  0.39266  1.0000
  C   C328      1.0  0.16225  0.77552  0.41666  1.0000
  S   S138      1.0  0.35611  0.97171  0.40395  1.0000
  C   C329      1.0  0.19955  0.83862  0.41158  1.0000
  H   H513      1.0  0.23749  0.89764  0.34941  1.0000
  N   N32       1.0  0.08774  0.76741  0.28810  1.0000
  H   H514      1.0  0.21362  0.92305  0.33401  1.0000
  H   H515      1.0  0.20502  0.94915  0.37939  1.0000
  C   C330      1.0  0.21221  0.82075  0.41781  1.0000
  C   C331      1.0  0.16819  0.82467  0.40775  1.0000
  H   H516      1.0  0.23625  0.83117  0.42089  1.0000
  C   C332      1.0  0.22221  0.94111  0.37831  1.0000
  C   C333      1.0  0.14965  0.79326  0.41014  1.0000
  S   S139      1.0  0.28659  0.95791  0.40933  1.0000
  H   H517      1.0  0.18673  0.72150  0.37538  1.0000
  C   C334      1.0  0.45657  0.95749  0.39327  1.0000
  C   C335      1.0  0.17204  0.71210  0.38718  1.0000
  H   H518      1.0  0.16397  0.92878  0.25715  1.0000
  H   H519      1.0  0.41329  0.95748  0.39236  1.0000
  H   H520      1.0  0.41247  0.87767  0.41356  1.0000
  H   H521      1.0  0.18469  0.88119  0.37672  1.0000
  Fe  Fe69      1.0  0.32589  0.96582  0.42737  1.0000
  H   H522      1.0  0.20358  0.77597  0.42562  1.0000
  S   S140      1.0  0.30070  0.91054  0.38559  1.0000
  C   C336      1.0  0.18590  0.89392  0.36432  1.0000
  H   H523      1.0  0.23773  0.89590  0.37330  1.0000
  N   N33       1.0  0.16355  0.67979  0.38982  1.0000
  Fe  Fe70      1.0  0.31556  0.96065  0.38603  1.0000
  C   C337      1.0  0.28333  0.95351  0.31513  1.0000
  S   S141      1.0  0.13972  0.73627  0.42099  1.0000
  H   H524      1.0  0.15811  0.83829  0.40302  1.0000
  C   C338      1.0  0.40894  0.91607  0.40336  1.0000
  C   C339      1.0  0.14675  0.66184  0.37388  1.0000
  H   H525      1.0  0.29921  0.94175  0.33929  1.0000
  C   C340      1.0  0.42512  0.94501  0.39612  1.0000
  C   C341      1.0  0.10411  0.74642  0.48709  1.0000
  C   C342      1.0  0.30183  0.98583  0.34177  1.0000
  H   H526      1.0  0.00852  0.66062  0.30668  1.0000
  H   H527      1.0  0.12866  0.76318  0.48808  1.0000
  S   S142      1.0  0.02896  0.75286  0.24323  1.0000
  H   H528      1.0  0.37381  0.94655  0.55543  1.0000
  H   H529      1.0  0.20974  0.90839  0.67224  1.0000
  H   H530      1.0  0.33850  0.97201  0.52020  1.0000
  C   C343      1.0  0.22229  0.90951  0.68481  1.0000
  H   H531      1.0  0.37624  0.93900  0.52271  1.0000
  H   H532      1.0  0.27254  0.92544  0.70482  1.0000
  H   H533      1.0  0.33209  0.94231  0.53557  1.0000
  C   C344      1.0  0.04205  0.87207  0.73294  1.0000
  H   H534      1.0  0.24672  0.93419  0.71682  1.0000
  S   S143      1.0  0.99213  0.77328  0.72203  1.0000
  H   H535      1.0  0.23130  0.89309  0.68355  1.0000
  H   H536      1.0  0.98727  0.83420  0.71838  1.0000
  C   C345      1.0  0.23372  0.96144  0.69006  1.0000
  N   N34       1.0  0.24687  0.94062  0.68848  1.0000
  H   H537      1.0  0.25806  0.95126  0.66087  1.0000
  H   H538      1.0  0.04105  0.85065  0.72775  1.0000
  C   C346      1.0  0.26886  0.95056  0.67380  1.0000
  H   H539      1.0  0.22312  0.96307  0.67727  1.0000
  H   H540      1.0  0.28886  0.98085  0.50297  1.0000
  H   H541      1.0  0.28787  0.97382  0.67645  1.0000
  C   C347      1.0  0.26259  0.94112  0.70539  1.0000
  H   H542      1.0  0.21594  0.95380  0.70041  1.0000
  H   H543      1.0  0.20551  0.90157  0.69582  1.0000
  H   H544      1.0  0.38234  0.96912  0.50770  1.0000
  H   H545      1.0  0.33686  0.97828  0.54360  1.0000
  H   H546      1.0  0.09920  0.72939  0.49775  1.0000
  H   H547      1.0  0.09346  0.82702  0.72566  1.0000
  C   C348      1.0  0.10597  0.84696  0.73402  1.0000
  H   H548      1.0  0.14384  0.86751  0.71618  1.0000
  C   C349      1.0  0.38778  0.96412  0.52134  1.0000
  C   C350      1.0  0.38547  0.97140  0.55309  1.0000
  H   H549      1.0  0.28143  0.96431  0.70849  1.0000
  C   C351      1.0  0.13460  0.87004  0.72867  1.0000
  S   S144      1.0  0.18806  0.92391  0.73221  1.0000
  H   H550      1.0  0.27902  0.93518  0.67206  1.0000
  H   H551      1.0  0.41032  0.97988  0.55487  1.0000
  C   C352      1.0  0.34494  0.96723  0.53359  1.0000
  H   H552      1.0  0.37865  0.98231  0.56386  1.0000
  C   C353      1.0  0.99016  0.85617  0.72391  1.0000
  H   H553      1.0  0.02265  0.91363  0.73610  1.0000
  H   H554      1.0  0.25133  0.98468  0.69397  1.0000
  H   H555      1.0  0.05086  0.88909  0.72215  1.0000
  H   H556      1.0  0.41269  0.97237  0.52214  1.0000
  H   H557      1.0  0.98412  0.66613  0.73271  1.0000
  Fe  Fe71      1.0  0.22032  0.97278  0.74178  1.0000
  H   H558      1.0  0.99755  0.87279  0.71289  1.0000
  N   N35       1.0  0.37804  0.97865  0.53523  1.0000
  C   C354      1.0  0.15145  0.89617  0.73938  1.0000
  N   N36       1.0  0.01205  0.86697  0.73907  1.0000
  H   H559      1.0  0.03091  0.90422  0.75786  1.0000
  H   H560      1.0  0.33328  0.95671  0.87388  1.0000
  H   H561      1.0  0.99943  0.82217  0.74799  1.0000
  C   C355      1.0  0.09400  0.84944  0.75037  1.0000
  C   C356      1.0  0.34411  0.98146  0.87128  1.0000
  H   H562      1.0  0.99229  0.89241  0.75117  1.0000
  S   S145      1.0  0.00681  0.72798  0.74692  1.0000
  H   H563      1.0  0.01732  0.85089  0.76479  1.0000
  Fe  Fe72      1.0  0.01701  0.77718  0.74796  1.0000
  S   S146      1.0  0.27065  0.98755  0.74292  1.0000
  C   C357      1.0  0.11076  0.87566  0.76101  1.0000
  H   H564      1.0  0.40072  0.98630  0.84465  1.0000
  S   S147      1.0  0.05823  0.82101  0.75817  1.0000
  H   H565      1.0  0.10182  0.87788  0.77370  1.0000
  H   H566      1.0  0.15178  0.91873  0.76399  1.0000
  C   C358      1.0  0.13914  0.89895  0.75553  1.0000
  H   H567      1.0  0.98999  0.71667  0.80886  1.0000
  H   H568      1.0  0.31544  0.96378  0.98416  1.0000
  C   C359      1.0  0.37702  0.97748  0.84929  1.0000
  H   H569      1.0  0.38458  0.96441  0.88327  1.0000
  C   C360      1.0  0.00133  0.84385  0.75313  1.0000
  H   H570      1.0  0.36751  0.95268  0.85148  1.0000
  H   H571      1.0  0.99561  0.71099  0.84141  1.0000
  C   C361      1.0  0.01459  0.89563  0.74636  1.0000
  H   H572      1.0  0.36362  0.98048  0.83824  1.0000
  H   H573      1.0  0.33021  0.98531  0.86090  1.0000
  C   C362      1.0  0.32833  0.98732  0.98830  1.0000
  H   H574      1.0  0.05910  0.88033  0.74407  1.0000
  H   H575      1.0  0.79676  0.06690  0.17190  1.0000
  C   C363      1.0  0.92266  0.26809  0.17427  1.0000
  H   H576      1.0  0.77990  0.06659  0.15052  1.0000
  S   S148      1.0  0.72508  0.00113  0.21647  1.0000
  H   H577      1.0  0.74245  0.09668  0.16340  1.0000
  S   S149      1.0  0.80218  0.06953  0.23479  1.0000
  H   H578      1.0  0.64109  0.03972  0.16398  1.0000
  H   H579      1.0  0.76906  0.06380  0.19966  1.0000
  H   H580      1.0  0.90616  0.22535  0.19954  1.0000
  S   S150      1.0  0.62915  0.01970  0.03316  1.0000
  H   H581      1.0  0.87764  0.28275  0.17264  1.0000
  H   H582      1.0  0.75131  0.01910  0.17889  1.0000
  H   H583      1.0  0.86822  0.21895  0.20186  1.0000
  C   C364      1.0  0.62655  0.02226  0.00948  1.0000
  N   N37       1.0  0.75150  0.06123  0.17295  1.0000
  H   H584      1.0  0.66801  0.06463  0.00839  1.0000
  H   H585      1.0  0.73290  0.01903  0.15807  1.0000
  C   C365      1.0  0.75496  0.07147  0.19181  1.0000
  C   C366      1.0  0.73709  0.02773  0.17210  1.0000
  C   C367      1.0  0.73225  0.07153  0.16320  1.0000
  C   C368      1.0  0.78167  0.07411  0.16471  1.0000
  C   C369      1.0  0.81500  0.13028  0.23860  1.0000
  H   H586      1.0  0.91680  0.25315  0.16222  1.0000
  H   H587      1.0  0.72850  0.06359  0.14902  1.0000
  C   C370      1.0  0.64937  0.04732  0.00066  1.0000
  H   H588      1.0  0.70944  0.06248  0.16925  1.0000
  H   H589      1.0  0.94259  0.26798  0.18096  1.0000
  H   H590      1.0  0.71475  0.01732  0.17876  1.0000
  S   S151      1.0  0.96845  0.25231  0.21359  1.0000
  H   H591      1.0  0.76595  0.09663  0.19303  1.0000
  H   H592      1.0  0.79315  0.09936  0.16504  1.0000
  H   H593      1.0  0.73254  0.06234  0.19838  1.0000
  H   H594      1.0  0.62248  0.01463  0.13428  1.0000
  S   S152      1.0  0.71562  0.05315  0.23857  1.0000
  Fe  Fe73      1.0  0.94272  0.24495  0.23915  1.0000
  C   C371      1.0  0.65268  0.00611  0.17392  1.0000
  C   C372      1.0  0.88738  0.22691  0.19236  1.0000
  H   H595      1.0  0.85134  0.25219  0.18608  1.0000
  H   H596      1.0  0.86366  0.24414  0.16518  1.0000
  H   H597      1.0  0.86699  0.10558  0.23324  1.0000
  C   C373      1.0  0.64162  0.01881  0.16094  1.0000
  S   S153      1.0  0.66692  0.02577  0.19477  1.0000
  N   N38       1.0  0.89678  0.25824  0.18649  1.0000
  C   C374      1.0  0.63103  0.00463  0.14404  1.0000
  Fe  Fe74      1.0  0.68844  0.01480  0.21899  1.0000
  H   H598      1.0  0.88027  0.21066  0.18089  1.0000
  C   C375      1.0  0.90596  0.27877  0.20224  1.0000
  C   C376      1.0  0.87116  0.25933  0.17717  1.0000
  H   H599      1.0  0.92559  0.27884  0.20926  1.0000
  C   C377      1.0  0.60254  0.00019  0.99928  1.0000
  Fe  Fe75      1.0  0.75095  0.03783  0.23724  1.0000
  H   H600      1.0  0.88740  0.27173  0.21207  1.0000
  H   H601      1.0  0.93046  0.29176  0.16972  1.0000
  H   H602      1.0  0.91320  0.30269  0.19843  1.0000
  C   C378      1.0  0.86678  0.17334  0.23845  1.0000
  C   C379      1.0  0.82628  0.10968  0.23627  1.0000
  H   H603      1.0  0.90221  0.16104  0.23515  1.0000
  C   C380      1.0  0.87801  0.15272  0.23611  1.0000
  C   C381      1.0  0.85790  0.12119  0.23503  1.0000
  H   H604      1.0  0.79080  0.12196  0.23948  1.0000
  C   C382      1.0  0.83512  0.16183  0.23966  1.0000
  S   S154      1.0  0.89092  0.21354  0.23964  1.0000
  H   H605      1.0  0.82609  0.17748  0.24145  1.0000
  S   S155      1.0  0.95583  0.29481  0.24234  1.0000
  H   H606      1.0  0.96995  0.29822  0.33878  1.0000
  S   S156      1.0  0.68260  0.03370  0.28714  1.0000
  C   C383      1.0  0.65633  0.04116  0.47924  1.0000
  H   H607      1.0  0.89733  0.29278  0.48014  1.0000
  S   S157      1.0  0.63898  0.01244  0.44626  1.0000
  H   H608      1.0  0.66454  0.04793  0.32080  1.0000
  Fe  Fe76      1.0  0.69493  0.01892  0.26067  1.0000
  C   C384      1.0  0.66057  0.02475  0.32153  1.0000
  H   H609      1.0  0.64409  0.01884  0.34863  1.0000
  N   N39       1.0  0.77792  0.08303  0.29390  1.0000
  C   C385      1.0  0.63229  0.01887  0.46891  1.0000
  H   H610      1.0  0.77088  0.05006  0.31415  1.0000
  H   H611      1.0  0.67807  0.05469  0.47312  1.0000
  C   C386      1.0  0.66733  0.01161  0.30669  1.0000
  H   H612      1.0  0.74251  0.09475  0.28826  1.0000
  C   C387      1.0  0.91400  0.29770  0.49125  1.0000
  H   H613      1.0  0.74082  0.06003  0.31188  1.0000
  H   H614      1.0  0.78779  0.05715  0.27444  1.0000
  H   H615      1.0  0.81403  0.07116  0.29295  1.0000
  C   C388      1.0  0.79965  0.07668  0.28387  1.0000
  H   H616      1.0  0.74461  0.03593  0.29562  1.0000
  H   H617      1.0  0.81007  0.12995  0.29852  1.0000
  H   H618      1.0  0.81502  0.09643  0.27571  1.0000
  H   H619      1.0  0.77366  0.11000  0.27292  1.0000
  H   H620      1.0  0.74624  0.07055  0.27205  1.0000
  C   C389      1.0  0.75783  0.05616  0.30439  1.0000
  C   C390      1.0  0.75938  0.09006  0.28123  1.0000
  C   C391      1.0  0.79476  0.10930  0.30606  1.0000
  H   H621      1.0  0.77900  0.11472  0.31377  1.0000
  H   H622      1.0  0.80902  0.10478  0.31582  1.0000
  C   C392      1.0  0.60431  0.00170  0.47707  1.0000
  S   S158      1.0  0.73188  0.00551  0.26023  1.0000
  C   C393      1.0  0.64882  0.00823  0.33734  1.0000
  H   H623      1.0  0.92941  0.28840  0.48733  1.0000
  H   H624      1.0  0.57750  0.01034  0.34827  1.0000
  H   H625      1.0  0.97523  0.29389  0.30605  1.0000
  H   H626      1.0  0.52682  0.98970  0.33285  1.0000
  H   H627      1.0  0.57130  0.98885  0.31808  1.0000
  S   S159      1.0  0.59469  0.98843  0.39831  1.0000
  H   H628      1.0  0.71223  0.03475  0.64057  1.0000
  S   S160      1.0  0.86122  0.25607  0.55885  1.0000
  H   H629      1.0  0.86810  0.24129  0.51895  1.0000
  Fe  Fe77      1.0  0.61611  0.09246  0.57967  1.0000
  S   S161      1.0  0.61448  0.04679  0.57787  1.0000
  S   S162      1.0  0.58005  0.10729  0.58409  1.0000
  Fe  Fe78      1.0  0.68435  0.12642  0.57133  1.0000
  S   S163      1.0  0.68676  0.08279  0.56775  1.0000
  S   S164      1.0  0.72007  0.17627  0.57395  1.0000
  Fe  Fe79      1.0  0.64181  0.06476  0.55275  1.0000
  S   S165      1.0  0.61883  0.03227  0.52881  1.0000
  Fe  Fe80      1.0  0.65935  0.06827  0.59302  1.0000
  S   S166      1.0  0.67927  0.04938  0.61426  1.0000
  S   S167      1.0  0.64190  0.10979  0.55439  1.0000
  S   S168      1.0  0.65841  0.11223  0.59681  1.0000
  Fe  Fe81      1.0  0.70439  0.03618  0.71976  1.0000
  C   C394      1.0  0.92802  0.30592  0.66110  1.0000
  S   S169      1.0  0.73643  0.01859  0.71245  1.0000
  Fe  Fe82      1.0  0.77039  0.05577  0.73033  1.0000
  S   S170      1.0  0.94152  0.31999  0.56651  1.0000
  H   H630      1.0  0.93496  0.31652  0.52515  1.0000
  C   C395      1.0  0.60079  0.00620  0.49535  1.0000
  H   H631      1.0  0.50984  0.04692  0.52316  1.0000
  C   C396      1.0  0.67816  0.04935  0.63806  1.0000
  C   C397      1.0  0.69713  0.04077  0.64772  1.0000
  C   C398      1.0  0.69679  0.03990  0.66656  1.0000
  C   C399      1.0  0.67698  0.04705  0.67602  1.0000
  S   S171      1.0  0.67406  0.04432  0.69973  1.0000
  C   C400      1.0  0.65887  0.05717  0.64752  1.0000
  H   H632      1.0  0.90458  0.29441  0.66512  1.0000
  H   H633      1.0  0.86112  0.29323  0.50270  1.0000
  C   C401      1.0  0.86313  0.14552  0.72028  1.0000
  C   C402      1.0  0.92177  0.29168  0.52248  1.0000
  C   C403      1.0  0.62490  0.02833  0.50571  1.0000
  C   C404      1.0  0.95090  0.30950  0.67352  1.0000
  H   H634      1.0  0.58173  0.10445  0.54418  1.0000
  H   H635      1.0  0.67145  0.06315  0.50519  1.0000
  C   C405      1.0  0.87907  0.29829  0.51303  1.0000
  C   C406      1.0  0.49219  0.04088  0.57780  1.0000
  C   C407      1.0  0.52406  0.05567  0.57978  1.0000
  C   C408      1.0  0.53998  0.08721  0.58200  1.0000
  C   C409      1.0  0.52375  0.10372  0.58229  1.0000
  C   C410      1.0  0.49192  0.08895  0.58037  1.0000
  H   H636      1.0  0.53625  0.04269  0.57993  1.0000
  H   H637      1.0  0.53589  0.12813  0.58406  1.0000
  C   C411      1.0  0.84782  0.11659  0.72784  1.0000
  H   H638      1.0  0.53719  0.03644  0.54719  1.0000
  C   C412      1.0  0.55735  0.04452  0.53854  1.0000
  H   H639      1.0  0.86747  0.28927  0.52591  1.0000
  H   H640      1.0  0.91720  0.31316  0.63408  1.0000
  C   C413      1.0  0.82222  0.23384  0.56369  1.0000
  C   C414      1.0  0.80587  0.24631  0.57218  1.0000
  C   C415      1.0  0.77464  0.22823  0.57516  1.0000
  C   C416      1.0  0.75945  0.19750  0.56983  1.0000
  C   C417      1.0  0.77589  0.18483  0.56161  1.0000
  C   C418      1.0  0.80712  0.20300  0.55849  1.0000
  H   H641      1.0  0.81714  0.26998  0.57621  1.0000
  H   H642      1.0  0.76209  0.23820  0.58154  1.0000
  H   H643      1.0  0.76447  0.16126  0.55738  1.0000
  H   H644      1.0  0.81960  0.19316  0.55191  1.0000
  S   S172      1.0  0.81457  0.08842  0.71720  1.0000
  H   H645      1.0  0.91109  0.28076  0.53522  1.0000
  C   C419      1.0  0.56107  0.09415  0.53542  1.0000
  Fe  Fe83      1.0  0.96562  0.28875  0.71956  1.0000
  H   H646      1.0  0.54136  0.08826  0.54426  1.0000
  C   C420      1.0  0.53015  0.05376  0.51470  1.0000
  H   H647      1.0  0.64267  0.06130  0.67349  1.0000
  H   H648      1.0  0.57916  0.99242  0.50151  1.0000
  H   H649      1.0  0.71166  0.03346  0.67375  1.0000
  C   C421      1.0  0.58469  0.07607  0.51389  1.0000
  H   H650      1.0  0.58321  0.05622  0.50623  1.0000
  N   N40       1.0  0.75292  0.13987  0.61686  1.0000
  C   C422      1.0  0.77750  0.17148  0.61566  1.0000
  C   C423      1.0  0.76139  0.12313  0.62997  1.0000
  C   C424      1.0  0.74780  0.12482  0.59918  1.0000
  C   C425      1.0  0.72480  0.13996  0.62258  1.0000
  H   H651      1.0  0.77148  0.18458  0.60591  1.0000
  H   H652      1.0  0.64406  0.06373  0.64035  1.0000
  H   H653      1.0  0.78209  0.18357  0.62877  1.0000
  H   H654      1.0  0.78250  0.12253  0.62610  1.0000
  H   H655      1.0  0.79902  0.17237  0.61114  1.0000
  H   H656      1.0  0.74313  0.09916  0.63104  1.0000
  H   H657      1.0  0.74043  0.13627  0.58909  1.0000
  C   C426      1.0  0.65812  0.05575  0.66636  1.0000
  H   H658      1.0  0.76872  0.12499  0.59419  1.0000
  H   H659      1.0  0.70564  0.11643  0.62338  1.0000
  H   H660      1.0  0.71792  0.15270  0.61306  1.0000
  H   H661      1.0  0.72763  0.15076  0.63598  1.0000
  Fe  Fe84      1.0  0.72107  0.99030  0.73726  1.0000
  H   H662      1.0  0.89416  0.24049  0.50291  1.0000
  H   H663      1.0  0.56245  0.11202  0.52619  1.0000
  S   S173      1.0  0.73891  0.07472  0.73640  1.0000
  H   H664      1.0  0.60631  0.08557  0.52173  1.0000
  H   H665      1.0  0.57779  0.05421  0.54744  1.0000
  H   H666      1.0  0.72983  0.10073  0.59967  1.0000
  H   H667      1.0  0.55662  0.02436  0.53167  1.0000
  H   H668      1.0  0.93812  0.28337  0.51893  1.0000
  H   H669      1.0  0.85401  0.15040  0.70832  1.0000
  H   H670      1.0  0.76515  0.13363  0.64354  1.0000
  C   C427      1.0  0.89015  0.16824  0.72812  1.0000
  N   N41       1.0  0.55834  0.06716  0.52564  1.0000
  Fe  Fe85      1.0  0.89138  0.30490  0.56828  1.0000
  S   S174      1.0  0.94039  0.29610  0.69575  1.0000
  H   H671      1.0  0.48449  0.28466  0.54410  1.0000
  C   C428      1.0  0.65266  0.04602  0.49747  1.0000
  N   N42       1.0  0.89871  0.28478  0.50823  1.0000
  H   H672      1.0  0.90164  0.19050  0.72223  1.0000
  H   H673      1.0  0.52735  0.03321  0.50725  1.0000
  C   C429      1.0  0.88002  0.25150  0.50629  1.0000
  H   H674      1.0  0.86234  0.24534  0.49564  1.0000
  H   H675      1.0  0.53021  0.07018  0.50474  1.0000
  C   C430      1.0  0.93512  0.31666  0.64347  1.0000
  H   H676      1.0  0.58655  0.09349  0.50415  1.0000
  H   H677      1.0  0.67190  0.98824  0.69619  1.0000
  H   H678      1.0  0.60526  0.10059  0.98121  1.0000
  H   H679      1.0  0.67062  0.01532  0.79948  1.0000
  H   H680      1.0  0.80259  0.27823  0.85961  1.0000
  Fe  Fe86      1.0  0.72411  0.04352  0.76004  1.0000
  S   S175      1.0  0.72509  0.06872  0.78629  1.0000
  S   S176      1.0  0.75803  0.02634  0.75477  1.0000
  H   H681      1.0  0.60065  0.05407  0.86472  1.0000
  C   C431      1.0  0.81837  0.23640  0.84815  1.0000
  Fe  Fe87      1.0  0.65924  0.07171  0.88522  1.0000
  S   S177      1.0  0.67345  0.12164  0.88604  1.0000
  S   S178      1.0  0.65145  0.04342  0.85944  1.0000
  Fe  Fe88      1.0  0.64773  0.06563  0.92659  1.0000
  S   S179      1.0  0.66249  0.11548  0.92968  1.0000
  S   S180      1.0  0.62190  0.03012  0.94802  1.0000
  Fe  Fe89      1.0  0.63437  0.10932  0.90477  1.0000
  S   S181      1.0  0.60199  0.12943  0.90384  1.0000
  Fe  Fe90      1.0  0.70024  0.12316  0.91076  1.0000
  S   S182      1.0  0.75109  0.15570  0.91411  1.0000
  S   S183      1.0  0.61824  0.05958  0.90228  1.0000
  S   S184      1.0  0.68740  0.07317  0.90927  1.0000
  H   H682      1.0  0.86910  0.27727  0.88086  1.0000
  S   S185      1.0  0.82543  0.30048  0.91607  1.0000
  H   H683      1.0  0.78316  0.12246  0.79710  1.0000
  C   C432      1.0  0.62467  0.02787  0.97170  1.0000
  C   C433      1.0  0.64846  0.05017  0.98193  1.0000
  H   H684      1.0  0.53084  0.07526  0.95756  1.0000
  H   H685      1.0  0.66630  0.06951  0.97542  1.0000
  H   H686      1.0  0.84906  0.08777  0.74863  1.0000
  C   C434      1.0  0.51425  0.06305  0.89629  1.0000
  C   C435      1.0  0.54619  0.07811  0.89782  1.0000
  C   C436      1.0  0.56176  0.10908  0.90220  1.0000
  C   C437      1.0  0.54503  0.12463  0.90522  1.0000
  C   C438      1.0  0.51309  0.10951  0.90391  1.0000
  H   H687      1.0  0.55871  0.06580  0.89545  1.0000
  H   H688      1.0  0.55682  0.14862  0.90856  1.0000
  S   S186      1.0  0.93053  0.31054  0.86294  1.0000
  C   C439      1.0  0.77109  0.19599  0.91442  1.0000
  C   C440      1.0  0.80303  0.21065  0.91474  1.0000
  C   C441      1.0  0.81998  0.24258  0.91519  1.0000
  C   C442      1.0  0.80513  0.26023  0.91551  1.0000
  C   C443      1.0  0.77323  0.24563  0.91523  1.0000
  C   C444      1.0  0.75626  0.21368  0.91458  1.0000
  H   H689      1.0  0.81467  0.19711  0.91463  1.0000
  H   H690      1.0  0.84447  0.25346  0.91536  1.0000
  H   H691      1.0  0.76152  0.25909  0.91549  1.0000
  H   H692      1.0  0.73173  0.20274  0.91441  1.0000
  H   H693      1.0  0.87181  0.25160  0.86519  1.0000
  H   H694      1.0  0.78562  0.16373  0.76658  1.0000
  H   H695      1.0  0.87150  0.30989  0.85541  1.0000
  H   H696      1.0  0.59235  0.13233  0.96138  1.0000
  H   H697      1.0  0.58833  0.03630  0.84334  1.0000
  H   H698      1.0  0.80408  0.24053  0.83822  1.0000
  C   C445      1.0  0.87863  0.30201  0.95701  1.0000
  H   H699      1.0  0.57165  0.11662  0.94087  1.0000
  H   H700      1.0  0.53955  0.05171  0.97194  1.0000
  C   C446      1.0  0.88738  0.13284  0.75074  1.0000
  C   C447      1.0  0.67264  0.05077  0.83935  1.0000
  C   C448      1.0  0.69829  0.07859  0.83625  1.0000
  C   C449      1.0  0.71386  0.08355  0.81996  1.0000
  C   C450      1.0  0.70419  0.06082  0.80654  1.0000
  C   C451      1.0  0.67844  0.03306  0.80961  1.0000
  C   C452      1.0  0.66278  0.02816  0.82586  1.0000
  H   H701      1.0  0.70622  0.09624  0.84643  1.0000
  H   H702      1.0  0.73368  0.10513  0.81781  1.0000
  C   C453      1.0  0.58704  0.05309  0.85267  1.0000
  H   H703      1.0  0.60676  0.12815  0.85213  1.0000
  C   C454      1.0  0.59779  0.10497  0.85767  1.0000
  H   H704      1.0  0.80289  0.21712  0.85659  1.0000
  H   H705      1.0  0.55563  0.07310  0.83255  1.0000
  C   C455      1.0  0.81677  0.27278  0.86888  1.0000
  H   H706      1.0  0.56529  0.03993  0.94708  1.0000
  H   H707      1.0  0.64298  0.00653  0.82805  1.0000
  N   N43       1.0  0.57740  0.08462  0.95737  1.0000
  S   S187      1.0  0.68654  0.00610  0.74381  1.0000
  C   C456      1.0  0.60024  0.08427  0.96991  1.0000
  C   C457      1.0  0.60171  0.00294  0.98054  1.0000
  H   H708      1.0  0.60996  0.12345  0.94318  1.0000
  H   H709      1.0  0.59240  0.06134  0.97565  1.0000
  C   C458      1.0  0.80450  0.10688  0.76845  1.0000
  H   H710      1.0  0.84159  0.18404  0.76996  1.0000
  H   H711      1.0  0.50055  0.12185  0.90621  1.0000
  H   H712      1.0  0.82335  0.13678  0.79960  1.0000
  N   N44       1.0  0.83690  0.26385  0.85913  1.0000
  H   H713      1.0  0.83002  0.29323  0.87750  1.0000
  C   C459      1.0  0.94549  0.31783  0.84088  1.0000
  C   C460      1.0  0.57250  0.06339  0.94235  1.0000
  N   N45       1.0  0.88151  0.27611  0.96428  1.0000
  H   H714      1.0  0.61169  0.10689  0.86978  1.0000
  C   C461      1.0  0.58830  0.11560  0.95046  1.0000
  H   H715      1.0  0.80115  0.25435  0.87774  1.0000
  H   H716      1.0  0.64540  0.09618  0.85041  1.0000
  H   H717      1.0  0.63982  0.11642  0.83236  1.0000
  H   H718      1.0  0.94860  0.27819  0.80397  1.0000
  H   H719      1.0  0.84396  0.29460  0.83755  1.0000
  C   C462      1.0  0.49750  0.07865  0.89932  1.0000
  H   H720      1.0  0.56310  0.04407  0.85689  1.0000
  H   H721      1.0  0.84109  0.23792  0.88073  1.0000
  C   C463      1.0  0.95229  0.29749  0.81225  1.0000
  H   H722      1.0  0.62201  0.09026  0.96311  1.0000
  C   C464      1.0  0.85545  0.25727  0.87205  1.0000
  C   C465      1.0  0.85705  0.28890  0.84749  1.0000
  H   H723      1.0  0.55139  0.09056  0.97817  1.0000
  H   H724      1.0  0.86663  0.30994  0.96635  1.0000
  H   H725      1.0  0.85683  0.15829  0.77320  1.0000
  H   H726      1.0  0.58783  0.10347  0.82226  1.0000
  H   H727      1.0  0.50240  0.03917  0.89275  1.0000
  H   H728      1.0  0.83295  0.22902  0.84071  1.0000
  C   C466      1.0  0.80563  0.14000  0.79228  1.0000
  H   H729      1.0  0.89695  0.12767  0.76239  1.0000
  H   H730      1.0  0.83710  0.24332  0.95478  1.0000
  C   C467      1.0  0.54850  0.07511  0.96669  1.0000
  S   S188      1.0  0.90855  0.31104  0.91114  1.0000
  C   C468      1.0  0.94087  0.29308  0.82977  1.0000
  N   N46       1.0  0.59870  0.08328  0.84449  1.0000
  H   H731      1.0  0.88808  0.29364  0.99123  1.0000
  H   H732      1.0  0.80384  0.10305  0.75379  1.0000
  H   H733      1.0  0.55494  0.06250  0.93278  1.0000
  C   C469      1.0  0.63032  0.09392  0.83885  1.0000
  H   H734      1.0  0.78505  0.13915  0.74879  1.0000
  H   H735      1.0  0.82337  0.10372  0.77421  1.0000
  H   H736      1.0  0.57990  0.06483  0.81859  1.0000
  C   C470      1.0  0.85093  0.25062  0.96737  1.0000
  C   C471      1.0  0.57965  0.08107  0.82877  1.0000
  H   H737      1.0  0.63203  0.07763  0.82928  1.0000
  H   H738      1.0  0.92854  0.27027  0.83480  1.0000
  S   S189      1.0  0.93654  0.18945  0.75345  1.0000
  H   H739      1.0  0.57429  0.09780  0.86223  1.0000
  H   H740      1.0  0.59370  0.07036  0.93480  1.0000
  H   H741      1.0  0.87286  0.28310  0.84008  1.0000
  C   C472      1.0  0.83795  0.16079  0.76681  1.0000
  N   N47       1.0  0.80800  0.13724  0.77278  1.0000
  H   H742      1.0  0.76091  0.12356  0.76759  1.0000
  H   H743      1.0  0.86558  0.29586  0.94416  1.0000
  H   H744      1.0  0.80818  0.16261  0.79610  1.0000
  H   H745      1.0  0.88493  0.25901  0.93845  1.0000
  H   H746      1.0  0.78306  0.08855  0.77373  1.0000
  C   C473      1.0  0.78386  0.14116  0.76356  1.0000
  Fe  Fe91      1.0  0.95941  0.23854  0.74484  1.0000
  C   C474      1.0  0.89756  0.26647  0.95139  1.0000
  H   H747      1.0  0.90055  0.24723  0.95655  1.0000
  H   H748      1.0  0.84020  0.15934  0.75212  1.0000
  H   H749      1.0  0.83824  0.25708  0.97710  1.0000
  S   S190      1.0  0.93855  0.26963  0.74474  1.0000
  H   H750      1.0  0.92061  0.28535  0.94857  1.0000
  H   H751      1.0  0.85213  0.23050  0.97269  1.0000
  C   C475      1.0  0.90242  0.16190  0.74334  1.0000
  H   H752      1.0  0.92242  0.30426  0.97925  1.0000
  C   C476      1.0  0.89901  0.28544  0.98128  1.0000
  H   H753      1.0  0.90129  0.26636  0.98734  1.0000
  Fe  Fe92      1.0  0.98036  0.30214  0.76030  1.0000
  C   C477      1.0  0.86014  0.11028  0.74306  1.0000
  H   H754      1.0  0.52918  0.60505  0.03914  1.0000
  H   H755      1.0  0.95705  0.53772  0.12466  1.0000
  S   S191      1.0  0.51206  0.59015  0.07597  1.0000
  H   H756      1.0  0.56129  0.62764  0.02561  1.0000
  H   H757      1.0  0.56286  0.59150  0.05749  1.0000
  H   H758      1.0  0.94267  0.38912  0.00564  1.0000
  C   C478      1.0  0.96853  0.59318  0.11383  1.0000
  C   C479      1.0  0.54209  0.60441  0.02729  1.0000
  H   H759      1.0  0.59402  0.61347  0.04322  1.0000
  C   C480      1.0  0.95833  0.38278  0.99946  1.0000
  H   H760      1.0  0.58914  0.60335  0.01083  1.0000
  C   C481      1.0  0.52688  0.55173  0.03252  1.0000
  H   H761      1.0  0.96800  0.60355  0.12696  1.0000
  C   C482      1.0  0.56899  0.58095  0.01318  1.0000
  H   H762      1.0  0.58307  0.57427  0.04698  1.0000
  C   C483      1.0  0.57417  0.59062  0.04496  1.0000
  N   N48       1.0  0.55303  0.58189  0.02947  1.0000
  H   H763      1.0  0.51450  0.55199  0.04478  1.0000
  Fe  Fe93      1.0  0.54340  0.64151  0.07488  1.0000
  H   H764      1.0  0.55408  0.57533  0.00110  1.0000
  H   H765      1.0  0.97529  0.61151  0.10385  1.0000
  H   H766      1.0  0.53420  0.53411  0.03434  1.0000
  H   H767      1.0  0.57724  0.56391  0.01421  1.0000
  S   S192      1.0  0.59290  0.65341  0.07509  1.0000
  H   H768      1.0  0.51033  0.54452  0.02116  1.0000
  H   H769      1.0  0.94503  0.57554  0.11040  1.0000
  H   H770      1.0  0.52686  0.59922  0.01540  1.0000
  H   H771      1.0  0.96709  0.55035  0.09204  1.0000
  H   H772      1.0  0.84529  0.62625  0.99968  1.0000
  C   C484      1.0  0.98017  0.55652  0.12778  1.0000
  H   H773      1.0  0.97973  0.56565  0.14132  1.0000
  Fe  Fe94      1.0  0.54759  0.63675  0.40099  1.0000
  H   H774      1.0  0.52505  0.56982  0.33167  1.0000
  S   S193      1.0  0.51427  0.58938  0.39017  1.0000
  H   H775      1.0  0.83270  0.59714  0.49070  1.0000
  S   S194      1.0  0.59493  0.64407  0.40602  1.0000
  H   H776      1.0  0.65001  0.64129  0.47786  1.0000
  H   H777      1.0  0.55506  0.56568  0.34262  1.0000
  H   H778      1.0  0.86241  0.63468  0.48611  1.0000
  C   C485      1.0  0.96562  0.38890  0.33910  1.0000
  H   H779      1.0  0.94484  0.42612  0.35201  1.0000
  H   H780      1.0  0.94035  0.38406  0.37124  1.0000
  H   H781      1.0  0.56310  0.61276  0.31391  1.0000
  H   H782      1.0  0.52904  0.62098  0.35612  1.0000
  H   H783      1.0  0.52810  0.57125  0.35558  1.0000
  H   H784      1.0  0.97140  0.37572  0.37310  1.0000
  H   H785      1.0  0.59296  0.60816  0.32465  1.0000
  C   C486      1.0  0.54223  0.62658  0.34355  1.0000
  C   C487      1.0  0.96987  0.43514  0.35235  1.0000
  C   C488      1.0  0.96550  0.39436  0.37112  1.0000
  C   C489      1.0  0.54151  0.57801  0.34309  1.0000
  H   H786      1.0  0.59784  0.61047  0.35755  1.0000
  N   N49       1.0  0.56120  0.61123  0.34259  1.0000
  C   C490      1.0  0.58258  0.62094  0.35797  1.0000
  C   C491      1.0  0.57846  0.61942  0.32583  1.0000
  H   H787      1.0  0.52564  0.61965  0.33223  1.0000
  H   H788      1.0  0.57033  0.61450  0.37082  1.0000
  H   H789      1.0  0.97453  0.41001  0.38290  1.0000
  H   H790      1.0  0.94047  0.37848  0.33822  1.0000
  H   H791      1.0  0.97143  0.37003  0.34042  1.0000
  C   C492      1.0  0.63883  0.65085  0.48601  1.0000
  H   H792      1.0  0.97494  0.40016  0.32620  1.0000
  H   H793      1.0  0.89372  0.64868  0.28916  1.0000
  N   N50       1.0  0.97805  0.41052  0.35433  1.0000
  H   H794      1.0  0.59722  0.64596  0.35833  1.0000
  H   H795      1.0  0.59380  0.64433  0.32517  1.0000
  H   H796      1.0  0.55632  0.65169  0.34324  1.0000
  C   C493      1.0  0.97859  0.62016  0.48606  1.0000
  H   H797      1.0  0.97870  0.41205  0.49123  1.0000
  H   H798      1.0  0.97912  0.44797  0.33987  1.0000
  H   H799      1.0  0.97916  0.45174  0.36374  1.0000
  H   H800      1.0  0.97929  0.59941  0.48273  1.0000
  H   H801      1.0  0.85533  0.64264  0.29008  1.0000
  H   H802      1.0  0.92811  0.32283  0.49235  1.0000
  C   C494      1.0  0.82032  0.63337  0.63325  1.0000
  S   S195      1.0  0.65362  0.59847  0.54862  1.0000
  C   C495      1.0  0.55872  0.58134  0.50048  1.0000
  S   S196      1.0  0.65630  0.58109  0.59060  1.0000
  Fe  Fe95      1.0  0.68893  0.61367  0.57082  1.0000
  S   S197      1.0  0.90302  0.63646  0.57023  1.0000
  Fe  Fe96      1.0  0.61996  0.56934  0.56928  1.0000
  S   S198      1.0  0.57705  0.52711  0.55929  1.0000
  S   S199      1.0  0.60936  0.60611  0.57824  1.0000
  Fe  Fe97      1.0  0.94494  0.36101  0.55229  1.0000
  S   S200      1.0  0.89469  0.34470  0.55296  1.0000
  H   H803      1.0  0.91368  0.42694  0.55178  1.0000
  H   H804      1.0  0.54897  0.59840  0.54314  1.0000
  C   C496      1.0  0.88416  0.60634  0.50744  1.0000
  H   H805      1.0  0.53118  0.49621  0.62189  1.0000
  Fe  Fe98      1.0  0.90356  0.36908  0.57942  1.0000
  S   S201      1.0  0.88101  0.39802  0.58634  1.0000
  S   S202      1.0  0.95387  0.38781  0.57811  1.0000
  Fe  Fe99      1.0  0.64755  0.62002  0.59839  1.0000
  S   S203      1.0  0.90300  0.57579  0.55334  1.0000
  H   H806      1.0  0.92784  0.39782  0.61096  1.0000
  S   S204      1.0  0.89469  0.58119  0.59691  1.0000
  Fe  Fe100     1.0  0.92707  0.57495  0.57877  1.0000
  S   S205      1.0  0.94696  0.54263  0.58310  1.0000
  Fe  Fe101     1.0  0.87334  0.58633  0.57146  1.0000
  S   S206      1.0  0.82189  0.56280  0.56829  1.0000
  S   S207      1.0  0.68122  0.65298  0.57932  1.0000
  H   H807      1.0  0.87381  0.61075  0.62683  1.0000
  S   S208      1.0  0.89517  0.32741  0.59503  1.0000
  H   H808      1.0  0.93126  0.43995  0.64099  1.0000
  C   C497      1.0  0.89949  0.43828  0.58592  1.0000
  C   C498      1.0  0.88218  0.45344  0.58362  1.0000
  C   C499      1.0  0.89622  0.48541  0.58292  1.0000
  C   C500      1.0  0.92774  0.50253  0.58481  1.0000
  C   C501      1.0  0.94497  0.48733  0.58748  1.0000
  C   C502      1.0  0.93097  0.45540  0.58796  1.0000
  H   H809      1.0  0.85777  0.44041  0.58216  1.0000
  H   H810      1.0  0.88268  0.49679  0.58087  1.0000
  H   H811      1.0  0.95523  0.62483  0.71123  1.0000
  H   H812      1.0  0.94457  0.44412  0.58998  1.0000
  H   H813      1.0  0.92416  0.40815  0.53501  1.0000
  H   H814      1.0  0.64338  0.62331  0.66701  1.0000
  C   C503      1.0  0.76172  0.60962  0.56832  1.0000
  H   H815      1.0  0.88841  0.34348  0.63447  1.0000
  C   C504      1.0  0.81218  0.61298  0.56756  1.0000
  C   C505      1.0  0.79924  0.58137  0.56820  1.0000
  C   C506      1.0  0.76750  0.56398  0.56893  1.0000
  C   C507      1.0  0.74879  0.57800  0.56907  1.0000
  H   H816      1.0  0.97481  0.47806  0.51076  1.0000
  C   C508      1.0  0.58547  0.58049  0.52723  1.0000
  H   H817      1.0  0.75727  0.53949  0.56940  1.0000
  H   H818      1.0  0.72439  0.56438  0.56959  1.0000
  C   C509      1.0  0.54967  0.49320  0.56933  1.0000
  C   C510      1.0  0.55651  0.48057  0.58415  1.0000
  C   C511      1.0  0.53417  0.45310  0.59125  1.0000
  C   C512      1.0  0.50484  0.43784  0.58358  1.0000
  H   H819      1.0  0.57743  0.59272  0.61648  1.0000
  C   C513      1.0  0.52037  0.47788  0.56165  1.0000
  H   H820      1.0  0.57925  0.49138  0.58977  1.0000
  H   H821      1.0  0.53979  0.44330  0.60257  1.0000
  H   H822      1.0  0.51488  0.48713  0.55004  1.0000
  H   H823      1.0  0.53630  0.52854  0.51815  1.0000
  H   H824      1.0  0.58438  0.56985  0.64408  1.0000
  H   H825      1.0  0.80375  0.63654  0.62464  1.0000
  H   H826      1.0  0.60485  0.60235  0.52345  1.0000
  H   H827      1.0  0.86822  0.63731  0.60048  1.0000
  N   N51       1.0  0.94681  0.45681  0.53334  1.0000
  C   C514      1.0  0.93998  0.48214  0.53657  1.0000
  H   H828      1.0  0.51007  0.51694  0.62260  1.0000
  H   H829      1.0  0.92452  0.58975  0.71857  1.0000
  H   H830      1.0  0.96936  0.50042  0.58902  1.0000
  H   H831      1.0  0.53723  0.57345  0.61987  1.0000
  H   H832      1.0  0.83010  0.58467  0.60552  1.0000
  H   H833      1.0  0.80365  0.65144  0.56693  1.0000
  C   C515      1.0  0.95521  0.65395  0.64911  1.0000
  H   H834      1.0  0.89707  0.60475  0.51920  1.0000
  H   H835      1.0  0.89350  0.41702  0.64911  1.0000
  H   H836      1.0  0.90125  0.62085  0.49755  1.0000
  Fe  Fe102     1.0  0.93464  0.62612  0.55372  1.0000
  H   H837      1.0  0.50957  0.54310  0.51916  1.0000
  H   H838      1.0  0.58549  0.58004  0.54203  1.0000
  C   C516      1.0  0.85982  0.61864  0.63449  1.0000
  H   H839      1.0  0.84805  0.60178  0.64505  1.0000
  H   H840      1.0  0.87122  0.58313  0.50154  1.0000
  H   H841      1.0  0.96309  0.59963  0.72456  1.0000
  Fe  Fe103     1.0  0.64387  0.63547  0.55819  1.0000
  H   H842      1.0  0.87598  0.64045  0.64116  1.0000
  H   H843      1.0  0.83653  0.62666  0.56693  1.0000
  N   N52       1.0  0.94469  0.62437  0.73898  1.0000
  S   S209      1.0  0.97577  0.34704  0.61621  1.0000
  S   S210      1.0  0.96056  0.62526  0.57840  1.0000
  C   C517      1.0  0.51200  0.33891  0.56062  1.0000
  C   C518      1.0  0.65573  0.65342  0.64460  1.0000
  H   H844      1.0  0.83134  0.62965  0.50001  1.0000
  H   H845      1.0  0.82852  0.57589  0.52121  1.0000
  N   N53       1.0  0.55846  0.54481  0.62100  1.0000
  C   C519      1.0  0.56323  0.54854  0.64056  1.0000
  C   C520      1.0  0.58439  0.54315  0.61288  1.0000
  C   C521      1.0  0.55619  0.57109  0.61379  1.0000
  C   C522      1.0  0.53022  0.51657  0.61674  1.0000
  H   H846      1.0  0.54409  0.54983  0.64720  1.0000
  H   H847      1.0  0.90023  0.61813  0.73206  1.0000
  H   H848      1.0  0.56547  0.52933  0.64644  1.0000
  C   C523      1.0  0.49803  0.45046  0.56876  1.0000
  Fe  Fe104     1.0  0.92631  0.63135  0.59503  1.0000
  H   H849      1.0  0.60619  0.56343  0.61645  1.0000
  H   H850      1.0  0.83943  0.64905  0.59986  1.0000
  H   H851      1.0  0.56443  0.56479  0.49381  1.0000
  C   C524      1.0  0.97271  0.46084  0.54482  1.0000
  S   S211      1.0  0.73963  0.62881  0.56811  1.0000
  H   H852      1.0  0.80044  0.59518  0.60513  1.0000
  H   H853      1.0  0.52479  0.33775  0.54884  1.0000
  Fe  Fe105     1.0  0.94535  0.34488  0.59252  1.0000
  H   H854      1.0  0.96005  0.50456  0.53417  1.0000
  H   H855      1.0  0.55228  0.56890  0.59907  1.0000
  S   S212      1.0  0.64097  0.62284  0.62864  1.0000
  H   H856      1.0  0.52805  0.59831  0.52337  1.0000
  H   H857      1.0  0.52619  0.51312  0.60204  1.0000
  H   H858      1.0  0.90005  0.42108  0.62553  1.0000
  H   H859      1.0  0.95885  0.41536  0.62671  1.0000
  C   C525      1.0  0.81743  0.59317  0.61396  1.0000
  H   H860      1.0  0.96770  0.46134  0.55918  1.0000
  H   H861      1.0  0.58615  0.52293  0.61745  1.0000
  C   C526      1.0  0.79349  0.62697  0.56758  1.0000
  N   N54       1.0  0.55649  0.57716  0.52002  1.0000
  H   H862      1.0  0.52053  0.33186  0.57251  1.0000
  H   H863      1.0  0.80471  0.57540  0.62391  1.0000
  C   C527      1.0  0.92707  0.38900  0.65583  1.0000
  H   H864      1.0  0.86842  0.36099  0.64497  1.0000
  H   H865      1.0  0.94012  0.37505  0.62346  1.0000
  H   H866      1.0  0.58243  0.54197  0.59806  1.0000
  H   H867      1.0  0.92106  0.48027  0.52782  1.0000
  N   N55       1.0  0.91463  0.39178  0.63836  1.0000
  H   H868      1.0  0.59021  0.56208  0.52239  1.0000
  H   H869      1.0  0.93304  0.48247  0.55058  1.0000
  H   H870      1.0  0.93147  0.36913  0.65595  1.0000
  N   N56       1.0  0.86395  0.61904  0.51254  1.0000
  C   C528      1.0  0.91993  0.42776  0.53753  1.0000
  H   H871      1.0  0.85479  0.59859  0.53838  1.0000
  C   C529      1.0  0.85496  0.64505  0.60887  1.0000
  H   H872      1.0  0.89978  0.42414  0.52935  1.0000
  H   H873      1.0  0.82673  0.60833  0.53027  1.0000
  S   S213      1.0  0.96475  0.38434  0.52569  1.0000
  H   H874      1.0  0.56789  0.62364  0.52538  1.0000
  H   H875      1.0  0.91116  0.38593  0.66683  1.0000
  H   H876      1.0  0.57686  0.60448  0.49705  1.0000
  H   H877      1.0  0.53036  0.54275  0.53885  1.0000
  H   H878      1.0  0.80728  0.61693  0.64378  1.0000
  C   C530      1.0  0.54993  0.60029  0.52834  1.0000
  H   H879      1.0  0.87568  0.36545  0.62146  1.0000
  N   N57       1.0  0.83812  0.62254  0.62265  1.0000
  C   C531      1.0  0.88550  0.36422  0.63467  1.0000
  C   C532      1.0  0.93633  0.39520  0.62425  1.0000
  C   C533      1.0  0.96814  0.62337  0.50301  1.0000
  H   H880      1.0  0.53718  0.57875  0.49450  1.0000
  C   C534      1.0  0.90966  0.41866  0.63856  1.0000
  H   H881      1.0  0.94904  0.40944  0.65906  1.0000
  H   H882      1.0  0.65531  0.64181  0.51089  1.0000
  C   C535      1.0  0.53198  0.54654  0.52417  1.0000
  H   H883      1.0  0.51775  0.36314  0.56277  1.0000
  C   C536      1.0  0.95466  0.45644  0.51442  1.0000
  C   C537      1.0  0.84684  0.62018  0.49662  1.0000
  C   C538      1.0  0.84254  0.59964  0.52614  1.0000
  C   C539      1.0  0.94693  0.60884  0.72264  1.0000
  C   C540      1.0  0.88229  0.65005  0.51997  1.0000
  C   C541      1.0  0.96736  0.65015  0.50765  1.0000
  C   C542      1.0  0.92331  0.63646  0.73567  1.0000
  C   C543      1.0  0.65330  0.64671  0.66294  1.0000
  H   H884      1.0  0.89488  0.64991  0.53227  1.0000
  C   C544      1.0  0.96535  0.33171  0.63806  1.0000
  C   C545      1.0  0.64188  0.65111  0.50479  1.0000
  H   H885      1.0  0.96095  0.60520  0.51253  1.0000
  H   H886      1.0  0.93558  0.45312  0.50533  1.0000
  H   H887      1.0  0.95680  0.63606  0.64177  1.0000
  H   H888      1.0  0.97830  0.44197  0.54280  1.0000
  H   H889      1.0  0.96014  0.43768  0.51164  1.0000
  H   H890      1.0  0.93098  0.65289  0.72452  1.0000
  H   H891      1.0  0.97410  0.64664  0.67352  1.0000
  H   H892      1.0  0.89246  0.32342  0.51454  1.0000
  C   C546      1.0  0.97332  0.35159  0.81668  1.0000
  S   S214      1.0  0.64616  0.59446  0.87898  1.0000
  Fe  Fe106     1.0  0.62933  0.62829  0.92155  1.0000
  S   S215      1.0  0.62181  0.58014  0.92012  1.0000
  Fe  Fe107     1.0  0.66694  0.59958  0.90628  1.0000
  S   S216      1.0  0.69713  0.57674  0.90659  1.0000
  Fe  Fe108     1.0  0.60180  0.57835  0.89295  1.0000
  S   S217      1.0  0.56095  0.53720  0.88066  1.0000
  S   S218      1.0  0.60701  0.62557  0.89459  1.0000
  H   H893      1.0  0.78411  0.64628  0.86051  1.0000
  S   S219      1.0  0.89276  0.35600  0.88609  1.0000
  H   H894      1.0  0.74155  0.55801  0.89794  1.0000
  Fe  Fe109     1.0  0.93954  0.35255  0.92744  1.0000
  S   S220      1.0  0.90549  0.36949  0.92949  1.0000
  H   H895      1.0  0.73996  0.63361  0.92448  1.0000
  Fe  Fe110     1.0  0.92556  0.39420  0.90408  1.0000
  S   S221      1.0  0.94446  0.44565  0.90323  1.0000
  S   S222      1.0  0.96140  0.37884  0.90270  1.0000
  Fe  Fe111     1.0  0.92902  0.63769  0.88987  1.0000
  S   S223      1.0  0.87970  0.60336  0.88703  1.0000
  Fe  Fe112     1.0  0.93108  0.62415  0.93056  1.0000
  S   S224      1.0  0.88198  0.58858  0.92965  1.0000
  Fe  Fe113     1.0  0.89246  0.57330  0.90359  1.0000
  S   S225      1.0  0.87394  0.52332  0.89604  1.0000
  Fe  Fe114     1.0  0.87388  0.62181  0.91340  1.0000
  C   C547      1.0  0.97578  0.59462  0.86767  1.0000
  S   S226      1.0  0.94194  0.60665  0.90524  1.0000
  H   H896      1.0  0.52060  0.47358  0.93373  1.0000
  S   S227      1.0  0.95807  0.62702  0.95625  1.0000
  H   H897      1.0  0.93446  0.37143  0.97395  1.0000
  C   C548      1.0  0.92407  0.46657  0.90172  1.0000
  C   C549      1.0  0.89298  0.45263  0.89778  1.0000
  C   C550      1.0  0.87797  0.47032  0.89618  1.0000
  C   C551      1.0  0.89369  0.50199  0.89881  1.0000
  C   C552      1.0  0.92473  0.51589  0.90296  1.0000
  C   C553      1.0  0.93985  0.49828  0.90426  1.0000
  H   H898      1.0  0.88055  0.42830  0.89572  1.0000
  H   H899      1.0  0.85397  0.45937  0.89293  1.0000
  H   H900      1.0  0.93710  0.54019  0.90510  1.0000
  H   H901      1.0  0.90407  0.63567  0.80869  1.0000
  H   H902      1.0  0.84196  0.59931  0.95292  1.0000
  S   S228      1.0  0.83986  0.63777  0.92173  1.0000
  C   C554      1.0  0.73691  0.59443  0.91060  1.0000
  C   C555      1.0  0.75238  0.62234  0.91961  1.0000
  H   H903      1.0  0.91565  0.56600  0.87263  1.0000
  C   C556      1.0  0.80033  0.62061  0.91699  1.0000
  H   H904      1.0  0.89051  0.64700  0.94975  1.0000
  C   C557      1.0  0.78391  0.63531  0.92279  1.0000
  H   H905      1.0  0.92855  0.53639  0.84033  1.0000
  C   C558      1.0  0.78488  0.59276  0.90791  1.0000
  C   C559      1.0  0.53424  0.50547  0.89259  1.0000
  C   C560      1.0  0.53756  0.50257  0.91092  1.0000
  C   C561      1.0  0.51749  0.47580  0.91961  1.0000
  S   S229      1.0  0.67634  0.64809  0.90968  1.0000
  H   H906      1.0  0.82314  0.59034  0.97398  1.0000
  C   C562      1.0  0.51004  0.48170  0.88321  1.0000
  H   H907      1.0  0.55575  0.52083  0.91838  1.0000
  Fe  Fe115     1.0  0.87591  0.32971  0.91147  1.0000
  H   H908      1.0  0.50727  0.48376  0.86903  1.0000
  H   H909      1.0  0.93873  0.53461  0.86313  1.0000
  C   C563      1.0  0.48958  0.45511  0.89199  1.0000
  C   C564      1.0  0.97351  0.36416  0.97334  1.0000
  H   H910      1.0  0.96973  0.58170  0.88033  1.0000
  H   H911      1.0  0.98056  0.43312  0.92871  1.0000
  H   H912      1.0  0.71996  0.61782  0.87632  1.0000
  C   C565      1.0  0.96128  0.59705  0.83719  1.0000
  C   C566      1.0  0.75331  0.57971  0.90482  1.0000
  H   H913      1.0  0.72903  0.62225  0.85302  1.0000
  H   H914      1.0  0.79720  0.58114  0.90342  1.0000
  Fe  Fe116     1.0  0.65322  0.64182  0.88260  1.0000
  C   C567      1.0  0.94645  0.54829  0.85074  1.0000
  H   H915      1.0  0.96746  0.54793  0.84638  1.0000
  C   C568      1.0  0.85900  0.64424  0.99004  1.0000
  H   H916      1.0  0.77484  0.64084  0.88369  1.0000
  C   C569      1.0  0.94994  0.44278  0.95515  1.0000
  H   H917      1.0  0.82389  0.62045  0.96061  1.0000
  H   H918      1.0  0.94362  0.45742  0.96344  1.0000
  H   H919      1.0  0.96392  0.50931  0.90727  1.0000
  N   N58       1.0  0.61557  0.49417  0.88968  1.0000
  C   C570      1.0  0.61268  0.50979  0.90576  1.0000
  C   C571      1.0  0.62867  0.51628  0.87516  1.0000
  C   C572      1.0  0.58525  0.46994  0.88404  1.0000
  C   C573      1.0  0.63573  0.48091  0.89381  1.0000
  H   H920      1.0  0.59863  0.52103  0.90285  1.0000
  H   H921      1.0  0.63520  0.52770  0.91070  1.0000
  H   H922      1.0  0.60176  0.49375  0.91684  1.0000
  H   H923      1.0  0.61382  0.52656  0.87167  1.0000
  H   H924      1.0  0.65134  0.53519  0.87911  1.0000
  H   H925      1.0  0.63146  0.50544  0.86281  1.0000
  H   H926      1.0  0.58655  0.45726  0.87212  1.0000
  H   H927      1.0  0.56987  0.47953  0.88048  1.0000
  H   H928      1.0  0.57415  0.45336  0.89488  1.0000
  H   H929      1.0  0.63856  0.46898  0.88197  1.0000
  H   H930      1.0  0.62656  0.46427  0.90480  1.0000
  H   H931      1.0  0.65875  0.49886  0.89812  1.0000
  C   C574      1.0  0.95368  0.37285  0.98143  1.0000
  C   C575      1.0  0.96170  0.34717  0.83416  1.0000
  H   H932      1.0  0.65377  0.64686  0.97117  1.0000
  C   C576      1.0  0.63738  0.65175  0.97771  1.0000
  H   H933      1.0  0.94006  0.42005  0.96139  1.0000
  C   C577      1.0  0.88359  0.61570  0.97961  1.0000
  N   N59       1.0  0.86607  0.63127  0.97411  1.0000
  N   N60       1.0  0.95174  0.57965  0.85388  1.0000
  H   H934      1.0  0.93870  0.43990  0.94183  1.0000
  S   S230      1.0  0.96787  0.34987  0.95094  1.0000
  H   H935      1.0  0.93188  0.61434  0.76634  1.0000
  Fe  Fe117     1.0  0.92718  0.33895  0.88634  1.0000
  H   H936      1.0  0.89070  0.60690  0.96790  1.0000
  H   H937      1.0  0.90461  0.56748  0.85002  1.0000
  H   H938      1.0  0.90471  0.63132  0.98706  1.0000
  H   H939      1.0  0.92647  0.60197  0.86250  1.0000
  C   C578      1.0  0.93363  0.60285  0.75390  1.0000
  C   C579      1.0  0.49350  0.45191  0.91020  1.0000
  H   H940      1.0  0.96627  0.62105  0.83944  1.0000
  H   H941      1.0  0.87022  0.59615  0.98839  1.0000
  C   C580      1.0  0.92338  0.57874  0.86000  1.0000
  H   H942      1.0  0.91073  0.58362  0.75087  1.0000
  H   H943      1.0  0.90907  0.63071  0.84141  1.0000
  H   H944      1.0  0.94324  0.58722  0.82666  1.0000
  H   H945      1.0  0.96553  0.36648  0.84246  1.0000
  C   C581      1.0  0.83750  0.60934  0.96509  1.0000
  C   C582      1.0  0.96968  0.64668  0.97728  1.0000
  S   S231      1.0  0.60911  0.64424  0.94417  1.0000
  H   H946      1.0  0.62611  0.64768  0.83779  1.0000
  H   H947      1.0  0.92116  0.64847  0.74771  1.0000
  H   H948      1.0  0.70615  0.63756  0.86220  1.0000
  C   C583      1.0  0.72599  0.63378  0.86497  1.0000
  C   C584      1.0  0.96870  0.32684  0.80557  1.0000
  C   C585      1.0  0.92404  0.65229  0.81581  1.0000
  C   C586      1.0  0.92682  0.64938  0.83442  1.0000
  H   H949      1.0  0.94924  0.59331  0.75684  1.0000
  H   H950      1.0  0.90131  0.32160  0.95455  1.0000
  C   C587      1.0  0.61363  0.65178  0.96768  1.0000
  C   C588      1.0  0.97495  0.64955  0.74373  1.0000
  H   H951      1.0  0.97962  0.61804  0.87080  1.0000
  H   H952      1.0  0.59091  0.73548  0.11732  1.0000
  C   C589      1.0  0.65310  0.97900  0.16972  1.0000
  H   H953      1.0  0.70385  0.81847  0.21333  1.0000
  H   H954      1.0  0.68413  0.85530  0.21138  1.0000
  Fe  Fe118     1.0  0.68520  0.73651  0.22094  1.0000
  S   S232      1.0  0.64714  0.71960  0.19944  1.0000
  S   S233      1.0  0.73523  0.76627  0.21789  1.0000
  Fe  Fe119     1.0  0.60205  0.69458  0.09181  1.0000
  S   S234      1.0  0.55235  0.68051  0.09363  1.0000
  S   S235      1.0  0.63876  0.71854  0.11375  1.0000
  Fe  Fe120     1.0  0.59617  0.68033  0.05051  1.0000
  H   H955      1.0  0.50078  0.97122  0.08715  1.0000
  Fe  Fe121     1.0  0.70264  0.97065  0.23965  1.0000
  Fe  Fe122     1.0  0.55970  0.70788  0.06859  1.0000
  S   S236      1.0  0.53912  0.73990  0.07008  1.0000
  S   S237      1.0  0.60954  0.72279  0.06714  1.0000
  Fe  Fe123     1.0  0.59660  0.95733  0.09128  1.0000
  S   S238      1.0  0.55784  0.91137  0.08344  1.0000
  H   H956      1.0  0.63755  0.80538  0.09157  1.0000
  S   S239      1.0  0.56381  0.93584  0.04233  1.0000
  Fe  Fe124     1.0  0.53957  0.93733  0.06728  1.0000
  H   H957      1.0  0.63755  0.77155  0.21640  1.0000
  Fe  Fe125     1.0  0.58496  0.91377  0.05934  1.0000
  S   S240      1.0  0.59817  0.87909  0.04824  1.0000
  S   S241      1.0  0.62434  0.95845  0.06755  1.0000
  S   S242      1.0  0.68186  0.76674  0.24220  1.0000
  H   H958      1.0  0.63498  0.93672  0.03304  1.0000
  S   S243      1.0  0.54652  0.66760  0.04994  1.0000
  C   C590      1.0  0.55603  0.77853  0.06379  1.0000
  C   C591      1.0  0.58286  0.79215  0.05411  1.0000
  C   C592      1.0  0.59557  0.82300  0.04955  1.0000
  C   C593      1.0  0.58184  0.84064  0.05481  1.0000
  C   C594      1.0  0.55526  0.82713  0.06471  1.0000
  C   C595      1.0  0.54230  0.79617  0.06902  1.0000
  H   H959      1.0  0.59355  0.77880  0.04989  1.0000
  H   H960      1.0  0.61606  0.83321  0.04183  1.0000
  H   H961      1.0  0.54438  0.84039  0.06875  1.0000
  H   H962      1.0  0.52148  0.78582  0.07646  1.0000
  H   H963      1.0  0.60944  0.82669  0.10741  1.0000
  C   C596      1.0  0.84938  0.86018  0.22957  1.0000
  H   H964      1.0  0.63491  0.96842  0.02217  1.0000
  C   C597      1.0  0.64563  0.71876  0.17557  1.0000
  C   C598      1.0  0.67146  0.73430  0.16521  1.0000
  C   C599      1.0  0.66883  0.73386  0.14638  1.0000
  C   C600      1.0  0.64046  0.71770  0.13758  1.0000
  C   C601      1.0  0.61460  0.70243  0.14795  1.0000
  C   C602      1.0  0.61719  0.70312  0.16679  1.0000
  H   H965      1.0  0.69349  0.74651  0.17167  1.0000
  H   H966      1.0  0.68902  0.74578  0.13853  1.0000
  H   H967      1.0  0.68555  0.78341  0.20098  1.0000
  H   H968      1.0  0.70560  0.81853  0.18945  1.0000
  H   H969      1.0  0.87917  0.73071  0.22826  1.0000
  H   H970      1.0  0.80089  0.79453  0.20808  1.0000
  H   H971      1.0  0.65595  0.80729  0.22825  1.0000
  Fe  Fe126     1.0  0.74223  0.73931  0.23975  1.0000
  H   H972      1.0  0.63906  0.77797  0.12831  1.0000
  H   H973      1.0  0.68391  0.85410  0.18752  1.0000
  S   S244      1.0  0.75872  0.84534  0.23616  1.0000
  H   H974      1.0  0.87010  0.82622  0.21272  1.0000
  S   S245      1.0  0.77831  0.72430  0.23391  1.0000
  H   H975      1.0  0.88008  0.66090  0.99716  1.0000
  C   C603      1.0  0.62018  0.78224  0.09542  1.0000
  H   H976      1.0  0.58830  0.90295  0.01548  1.0000
  H   H977      1.0  0.66129  0.96874  0.17953  1.0000
  H   H978      1.0  0.65901  0.80398  0.17137  1.0000
  C   C604      1.0  0.59544  0.66507  0.99503  1.0000
  H   H979      1.0  0.61850  0.79384  0.13996  1.0000
  H   H980      1.0  0.86375  0.87191  0.21798  1.0000
  N   N61       1.0  0.66248  0.81030  0.19987  1.0000
  C   C605      1.0  0.86547  0.73765  0.23614  1.0000
  H   H981      1.0  0.63824  0.76997  0.18378  1.0000
  H   H982      1.0  0.84331  0.79043  0.22161  1.0000
  H   H983      1.0  0.62416  0.79682  0.18207  1.0000
  C   C606      1.0  0.75305  0.89725  0.23337  1.0000
  C   C607      1.0  0.63146  0.97751  0.13984  1.0000
  C   C608      1.0  0.64521  0.79468  0.18350  1.0000
  S   S246      1.0  0.68596  0.91998  0.24170  1.0000
  C   C609      1.0  0.64373  0.79607  0.21563  1.0000
  C   C610      1.0  0.97403  0.68563  0.99872  1.0000
  H   H984      1.0  0.62225  0.79755  0.21526  1.0000
  C   C611      1.0  0.73956  0.86699  0.23902  1.0000
  C   C612      1.0  0.64267  0.96493  0.15281  1.0000
  Fe  Fe127     1.0  0.73218  0.79452  0.24038  1.0000
  C   C613      1.0  0.64172  0.90954  0.00401  1.0000
  H   H985      1.0  0.58447  0.98116  0.00585  1.0000
  C   C614      1.0  0.69060  0.80759  0.20093  1.0000
  C   C615      1.0  0.67034  0.84276  0.19944  1.0000
  H   H986      1.0  0.57016  0.75099  0.12905  1.0000
  H   H987      1.0  0.64731  0.81652  0.12432  1.0000
  N   N62       1.0  0.60565  0.78266  0.11239  1.0000
  N   N63       1.0  0.83307  0.82693  0.22672  1.0000
  H   H988      1.0  0.97035  0.70474  0.00194  1.0000
  H   H989      1.0  0.60319  0.77298  0.08432  1.0000
  H   H990      1.0  0.63158  0.76781  0.09633  1.0000
  H   H991      1.0  0.56377  0.74297  0.10557  1.0000
  C   C616      1.0  0.62868  0.79331  0.12694  1.0000
  C   C617      1.0  0.58158  0.75169  0.11629  1.0000
  C   C618      1.0  0.85509  0.81539  0.22423  1.0000
  C   C619      1.0  0.59216  0.80323  0.11084  1.0000
  C   C620      1.0  0.64032  0.65872  0.99619  1.0000
  S   S247      1.0  0.95488  0.71836  0.23995  1.0000
  C   C621      1.0  0.64297  0.95124  0.02106  1.0000
  H   H992      1.0  0.83316  0.86938  0.23148  1.0000
  H   H993      1.0  0.82519  0.71309  0.21966  1.0000
  H   H994      1.0  0.63270  0.89398  0.01556  1.0000
  C   C622      1.0  0.73739  0.91432  0.23465  1.0000
  H   H995      1.0  0.86980  0.81958  0.23630  1.0000
  H   H996      1.0  0.80039  0.78765  0.24033  1.0000
  H   H997      1.0  0.66688  0.91989  0.00469  1.0000
  S   S248      1.0  0.48872  0.92049  0.06274  1.0000
  H   H998      1.0  0.57436  0.79527  0.10012  1.0000
  H   H999      1.0  0.74769  0.93744  0.23001  1.0000
  H   H1000     1.0  0.59260  0.68992  0.14149  1.0000
  H   H1001     1.0  0.58123  0.80446  0.12344  1.0000
  C   C623      1.0  0.83479  0.72769  0.23129  1.0000
  C   C624      1.0  0.81326  0.81951  0.21068  1.0000
  H   H1002     1.0  0.64304  0.94393  0.14977  1.0000
  N   N64       1.0  0.63168  0.93298  0.00444  1.0000
  H   H1003     1.0  0.82650  0.83032  0.19857  1.0000
  S   S249      1.0  0.61877  0.95844  0.11872  1.0000
  H   H1004     1.0  0.64972  0.84584  0.19928  1.0000
  H   H1005     1.0  0.59700  0.69109  0.17462  1.0000
  H   H1006     1.0  0.65902  0.65900  0.00371  1.0000
  H   H1007     1.0  0.66818  0.96358  0.02180  1.0000
  H   H1008     1.0  0.86436  0.86648  0.24166  1.0000
  Fe  Fe128     1.0  0.60124  0.98040  0.05208  1.0000
  H   H1009     1.0  0.77552  0.90742  0.22779  1.0000
  H   H1010     1.0  0.57930  0.67044  0.00148  1.0000
  H   H1011     1.0  0.79592  0.82733  0.21228  1.0000
  S   S250      1.0  0.62423  0.67358  0.02844  1.0000
  C   C625      1.0  0.61947  0.66554  0.00499  1.0000
  C   C626      1.0  0.59817  0.91811  0.00386  1.0000
  S   S251      1.0  0.66439  0.98244  0.24120  1.0000
  H   H1012     1.0  0.58976  0.93508  0.00424  1.0000
  C   C627      1.0  0.70809  0.90108  0.24152  1.0000
  C   C628      1.0  0.81653  0.73669  0.24117  1.0000
  S   S252      1.0  0.57636  0.98338  0.07657  1.0000
  S   S253      1.0  0.69169  0.70690  0.24132  1.0000
  C   C629      1.0  0.81434  0.81254  0.24243  1.0000
  H   H1013     1.0  0.68175  0.79365  0.37680  1.0000
  C   C630      1.0  0.62546  0.90144  0.47835  1.0000
  S   S254      1.0  0.62834  0.95568  0.35795  1.0000
  C   C631      1.0  0.66216  0.98165  0.30792  1.0000
  H   H1014     1.0  0.65249  0.75649  0.38223  1.0000
  H   H1015     1.0  0.50455  0.94942  0.32906  1.0000
  H   H1016     1.0  0.66183  0.76623  0.35938  1.0000
  H   H1017     1.0  0.61652  0.80608  0.38880  1.0000
  H   H1018     1.0  0.84522  0.68690  0.28688  1.0000
  Fe  Fe129     1.0  0.69106  0.73901  0.26257  1.0000
  S   S255      1.0  0.65628  0.72443  0.28522  1.0000
  S   S256      1.0  0.74197  0.76953  0.26225  1.0000
  Fe  Fe130     1.0  0.61145  0.68603  0.38949  1.0000
  H   H1019     1.0  0.61282  0.88294  0.46830  1.0000
  S   S257      1.0  0.64969  0.69952  0.36930  1.0000
  H   H1020     1.0  0.55810  0.98653  0.36664  1.0000
  H   H1021     1.0  0.50903  0.96498  0.35124  1.0000
  C   C632      1.0  0.82929  0.75543  0.25623  1.0000
  Fe  Fe131     1.0  0.56851  0.70474  0.40760  1.0000
  S   S258      1.0  0.55369  0.73997  0.39992  1.0000
  S   S259      1.0  0.61686  0.71555  0.41355  1.0000
  Fe  Fe132     1.0  0.60774  0.95564  0.38537  1.0000
  S   S260      1.0  0.56195  0.91483  0.38910  1.0000
  H   H1022     1.0  0.87633  0.72404  0.28372  1.0000
  S   S261      1.0  0.56245  0.93874  0.43023  1.0000
  Fe  Fe133     1.0  0.57955  0.90976  0.41595  1.0000
  S   S262      1.0  0.58148  0.87046  0.43036  1.0000
  Fe  Fe134     1.0  0.54919  0.94744  0.40281  1.0000
  H   H1023     1.0  0.63722  0.92007  0.44449  1.0000
  S   S263      1.0  0.62604  0.94848  0.41150  1.0000
  C   C633      1.0  0.65911  0.77521  0.37250  1.0000
  H   H1024     1.0  0.67232  0.86074  0.25289  1.0000
  H   H1025     1.0  0.64899  0.80343  0.34500  1.0000
  C   C634      1.0  0.56261  0.77650  0.40853  1.0000
  C   C635      1.0  0.57769  0.78751  0.42491  1.0000
  C   C636      1.0  0.58354  0.81644  0.43130  1.0000
  C   C637      1.0  0.57496  0.83490  0.42124  1.0000
  C   C638      1.0  0.56069  0.82423  0.40463  1.0000
  C   C639      1.0  0.55433  0.79509  0.39841  1.0000
  H   H1026     1.0  0.58414  0.77347  0.43286  1.0000
  H   H1027     1.0  0.59448  0.82440  0.44419  1.0000
  H   H1028     1.0  0.55380  0.83806  0.39679  1.0000
  H   H1029     1.0  0.54261  0.78679  0.38573  1.0000
  H   H1030     1.0  0.60818  0.75229  0.35193  1.0000
  C   C640      1.0  0.64933  0.93774  0.45500  1.0000
  H   H1031     1.0  0.67011  0.95635  0.48858  1.0000
  N   N65       1.0  0.54837  0.96344  0.34123  1.0000
  H   H1032     1.0  0.92818  0.73185  0.28260  1.0000
  C   C641      1.0  0.65541  0.71824  0.30868  1.0000
  C   C642      1.0  0.62864  0.71149  0.31796  1.0000
  C   C643      1.0  0.62650  0.70588  0.33648  1.0000
  C   C644      1.0  0.65110  0.70670  0.34596  1.0000
  C   C645      1.0  0.67792  0.71365  0.33674  1.0000
  C   C646      1.0  0.68012  0.71942  0.31823  1.0000
  H   H1033     1.0  0.60942  0.71063  0.31072  1.0000
  H   H1034     1.0  0.60582  0.70084  0.34336  1.0000
  C   C647      1.0  0.64610  0.81096  0.35854  1.0000
  H   H1035     1.0  0.70085  0.72455  0.31134  1.0000
  H   H1036     1.0  0.93605  0.70039  0.28382  1.0000
  C   C648      1.0  0.63297  0.79698  0.38924  1.0000
  C   C649      1.0  0.64368  0.97823  0.33856  1.0000
  C   C650      1.0  0.65047  0.96517  0.32373  1.0000
  H   H1037     1.0  0.86952  0.77998  0.27269  1.0000
  C   C651      1.0  0.60756  0.67546  0.48841  1.0000
  C   C652      1.0  0.88503  0.68308  0.26472  1.0000
  C   C653      1.0  0.53950  0.93326  0.34879  1.0000
  H   H1038     1.0  0.54849  0.94867  0.31419  1.0000
  H   H1039     1.0  0.89255  0.70476  0.25748  1.0000
  H   H1040     1.0  0.65491  0.81538  0.39449  1.0000
  H   H1041     1.0  0.58867  0.76763  0.36525  1.0000
  H   H1042     1.0  0.66814  0.83055  0.36270  1.0000
  H   H1043     1.0  0.62432  0.77834  0.39913  1.0000
  H   H1044     1.0  0.87174  0.70613  0.30491  1.0000
  H   H1045     1.0  0.81543  0.76190  0.26429  1.0000
  N   N66       1.0  0.63123  0.93123  0.47139  1.0000
  C   C654      1.0  0.60683  0.76072  0.36550  1.0000
  C   C655      1.0  0.52099  0.96707  0.33841  1.0000
  H   H1046     1.0  0.52801  0.93055  0.36183  1.0000
  N   N67       1.0  0.88868  0.68833  0.28425  1.0000
  H   H1047     1.0  0.58535  0.98488  0.46933  1.0000
  S   S264      1.0  0.51166  0.95781  0.39293  1.0000
  H   H1048     1.0  0.70030  0.83111  0.25109  1.0000
  C   C656      1.0  0.71061  0.85410  0.24630  1.0000
  H   H1049     1.0  0.64660  0.94201  0.32443  1.0000
  H   H1050     1.0  0.55968  0.92977  0.35109  1.0000
  H   H1051     1.0  0.59922  0.74126  0.37472  1.0000
  H   H1052     1.0  0.62915  0.81937  0.35732  1.0000
  C   C657      1.0  0.87832  0.75677  0.25102  1.0000
  S   S265      1.0  0.61818  0.66101  0.45384  1.0000
  S   S266      1.0  0.91679  0.77004  0.25803  1.0000
  H   H1053     1.0  0.58788  0.91148  0.45785  1.0000
  C   C658      1.0  0.85997  0.76547  0.26104  1.0000
  H   H1054     1.0  0.86094  0.66802  0.26077  1.0000
  H   H1055     1.0  0.67158  0.93849  0.45761  1.0000
  C   C659      1.0  0.92080  0.70930  0.28872  1.0000
  N   N68       1.0  0.63628  0.78599  0.37145  1.0000
  Fe  Fe135     1.0  0.60851  0.97751  0.42495  1.0000
  H   H1056     1.0  0.60558  0.95175  0.46068  1.0000
  H   H1057     1.0  0.92469  0.71310  0.30338  1.0000
  S   S267      1.0  0.56431  0.67688  0.38285  1.0000
  C   C660      1.0  0.60199  0.93049  0.46720  1.0000
  C   C661      1.0  0.62161  0.66291  0.47764  1.0000
  Fe  Fe136     1.0  0.59629  0.67252  0.42986  1.0000
  H   H1058     1.0  0.52357  0.91467  0.33975  1.0000
  H   H1059     1.0  0.88173  0.66228  0.30806  1.0000
  H   H1060     1.0  0.79841  0.82170  0.24519  1.0000
  C   C662      1.0  0.87939  0.65916  0.29329  1.0000
  Fe  Fe137     1.0  0.95654  0.76232  0.24903  1.0000
  H   H1061     1.0  0.64699  0.90106  0.48165  1.0000
  H   H1062     1.0  0.69716  0.71447  0.34393  1.0000
  C   C663      1.0  0.69490  0.87102  0.24744  1.0000
  H   H1063     1.0  0.58959  0.98436  0.35688  1.0000
  S   S268      1.0  0.54772  0.66336  0.42544  1.0000
  H   H1064     1.0  0.89872  0.67243  0.25975  1.0000
  H   H1065     1.0  0.66718  0.97111  0.29670  1.0000
  H   H1066     1.0  0.59439  0.68499  0.48225  1.0000
  H   H1067     1.0  0.58847  0.92768  0.47938  1.0000
  C   C664      1.0  0.86961  0.70186  0.29024  1.0000
  H   H1068     1.0  0.65305  0.97805  0.47980  1.0000
  C   C665      1.0  0.56369  0.96614  0.32406  1.0000
  H   H1069     1.0  0.61157  0.89568  0.49061  1.0000
  H   H1070     1.0  0.58420  0.96306  0.32586  1.0000
  H   H1071     1.0  0.65392  0.96003  0.44933  1.0000
  H   H1072     1.0  0.82852  0.81632  0.25467  1.0000
  C   C666      1.0  0.64805  0.95531  0.48490  1.0000
  C   C667      1.0  0.56933  0.98725  0.35378  1.0000
  H   H1073     1.0  0.89962  0.66509  0.51037  1.0000
  C   C668      1.0  0.83801  0.72373  0.74078  1.0000
  C   C669      1.0  0.96358  0.68346  0.67703  1.0000
  H   H1074     1.0  0.86789  0.66066  0.52359  1.0000
  H   H1075     1.0  0.63559  0.95740  0.70128  1.0000
  C   C670      1.0  0.94397  0.67141  0.64052  1.0000
  H   H1076     1.0  0.95064  0.71873  0.67578  1.0000
  H   H1077     1.0  0.66146  0.97319  0.66429  1.0000
  H   H1078     1.0  0.69398  0.83642  0.73188  1.0000
  Fe  Fe138     1.0  0.69900  0.73729  0.71708  1.0000
  S   S269      1.0  0.68720  0.73083  0.68703  1.0000
  S   S270      1.0  0.74730  0.77369  0.72174  1.0000
  C   C671      1.0  0.66328  0.66998  0.67612  1.0000
  C   C672      1.0  0.87056  0.78626  0.73599  1.0000
  Fe  Fe139     1.0  0.95154  0.76070  0.73940  1.0000
  H   H1079     1.0  0.75229  0.69051  0.70286  1.0000
  C   C673      1.0  0.77808  0.70885  0.67033  1.0000
  H   H1080     1.0  0.96724  0.85206  0.72811  1.0000
  H   H1081     1.0  0.79246  0.75749  0.70543  1.0000
  N   N69       1.0  0.66387  0.94528  0.68528  1.0000
  C   C674      1.0  0.74556  0.70500  0.69475  1.0000
  H   H1082     1.0  0.70741  0.95339  0.69553  1.0000
  H   H1083     1.0  0.78494  0.69321  0.67702  1.0000
  C   C675      1.0  0.83873  0.77210  0.73733  1.0000
  H   H1084     1.0  0.63480  0.95167  0.49731  1.0000
  C   C676      1.0  0.79757  0.74467  0.69500  1.0000
  H   H1085     1.0  0.81689  0.76142  0.68715  1.0000
  H   H1086     1.0  0.59977  0.68565  0.51535  1.0000
  H   H1087     1.0  0.79704  0.72419  0.66171  1.0000
  H   H1088     1.0  0.88153  0.72455  0.74059  1.0000
  C   C677      1.0  0.95188  0.70059  0.66851  1.0000
  C   C678      1.0  0.67533  0.70036  0.67112  1.0000
  C   C679      1.0  0.66847  0.68385  0.63962  1.0000
  H   H1089     1.0  0.67707  0.87485  0.72553  1.0000
  H   H1090     1.0  0.62586  0.94139  0.66964  1.0000
  C   C680      1.0  0.94223  0.69462  0.65041  1.0000
  H   H1091     1.0  0.73845  0.71742  0.70426  1.0000
  H   H1092     1.0  0.68699  0.73042  0.64871  1.0000
  H   H1093     1.0  0.72517  0.68994  0.68656  1.0000
  C   C681      1.0  0.86977  0.73789  0.73963  1.0000
  H   H1094     1.0  0.93369  0.70839  0.64398  1.0000
  H   H1095     1.0  0.77961  0.76296  0.66565  1.0000
  C   C682      1.0  0.62765  0.66342  0.51558  1.0000
  C   C683      1.0  0.65988  0.96375  0.69943  1.0000
  H   H1096     1.0  0.66092  0.66435  0.69012  1.0000
  H   H1097     1.0  0.66902  0.96107  0.71250  1.0000
  C   C684      1.0  0.76127  0.74645  0.67417  1.0000
  H   H1098     1.0  0.67032  0.68947  0.62561  1.0000
  C   C685      1.0  0.61073  0.67584  0.50722  1.0000
  S   S271      1.0  0.93137  0.66518  0.61764  1.0000
  C   C686      1.0  0.64857  0.91304  0.69047  1.0000
  H   H1099     1.0  0.82690  0.78539  0.73646  1.0000
  H   H1100     1.0  0.65105  0.89835  0.68011  1.0000
  N   N70       1.0  0.77064  0.72627  0.68356  1.0000
  C   C687      1.0  0.67789  0.70706  0.65279  1.0000
  C   C688      1.0  0.69817  0.88161  0.73274  1.0000
  S   S272      1.0  0.62874  0.66228  0.53946  1.0000
  H   H1101     1.0  0.74091  0.73326  0.66549  1.0000
  H   H1102     1.0  0.70885  0.97973  0.67895  1.0000
  H   H1103     1.0  0.62392  0.90464  0.69258  1.0000
  H   H1104     1.0  0.75817  0.69487  0.66145  1.0000
  S   S273      1.0  0.68081  0.75621  0.73866  1.0000
  S   S274      1.0  0.97674  0.69018  0.69981  1.0000
  S   S275      1.0  0.93593  0.71071  0.73765  1.0000
  C   C689      1.0  0.70769  0.85968  0.73636  1.0000
  H   H1105     1.0  0.65839  0.90976  0.70319  1.0000
  H   H1106     1.0  0.75506  0.75967  0.68375  1.0000
  C   C690      1.0  0.65054  0.94895  0.66836  1.0000
  C   C691      1.0  0.97681  0.67340  0.49495  1.0000
  C   C692      1.0  0.88617  0.76920  0.73718  1.0000
  H   H1107     1.0  0.65339  0.93563  0.65727  1.0000
  H   H1108     1.0  0.70046  0.94184  0.67249  1.0000
  C   C693      1.0  0.71570  0.91213  0.73832  1.0000
  S   S276      1.0  0.70225  0.93865  0.73332  1.0000
  S   S277      1.0  0.70276  0.70446  0.73584  1.0000
  C   C694      1.0  0.69657  0.95551  0.68293  1.0000
  H   H1109     1.0  0.80540  0.73015  0.70217  1.0000
  S   S278      1.0  0.92605  0.78751  0.73521  1.0000
  S   S279      1.0  0.78238  0.72127  0.74033  1.0000
  H   H1110     1.0  0.88313  0.81051  0.73411  1.0000
  C   C695      1.0  0.96499  0.66001  0.66719  1.0000
  Fe  Fe140     1.0  0.97830  0.72320  0.72207  1.0000
  H   H1111     1.0  0.97605  0.69413  0.49826  1.0000
  C   C696      1.0  0.82239  0.74073  0.73971  1.0000
  Fe  Fe141     1.0  0.75032  0.74150  0.74128  1.0000
  H   H1112     1.0  0.87155  0.66727  0.61494  1.0000
  H   H1113     1.0  0.82548  0.69945  0.74260  1.0000
  S   S280      1.0  0.95430  0.65569  0.52882  1.0000
  H   H1114     1.0  0.83534  0.65556  0.63992  1.0000
  H   H1115     1.0  0.77335  0.90511  0.75869  1.0000
  H   H1116     1.0  0.97847  0.83885  0.75795  1.0000
  H   H1117     1.0  0.68853  0.80285  0.76537  1.0000
  C   C697      1.0  0.72247  0.81980  0.79542  1.0000
  S   S281      1.0  0.95924  0.66627  0.86699  1.0000
  H   H1118     1.0  0.74242  0.66162  0.89679  1.0000
  Fe  Fe142     1.0  0.68951  0.72630  0.75801  1.0000
  S   S282      1.0  0.65579  0.69814  0.77956  1.0000
  S   S283      1.0  0.73728  0.76132  0.76458  1.0000
  H   H1119     1.0  0.68391  0.76513  0.80859  1.0000
  H   H1120     1.0  0.65217  0.75836  0.79434  1.0000
  C   C698      1.0  0.94664  0.67662  0.80635  1.0000
  C   C699      1.0  0.95274  0.67041  0.84385  1.0000
  C   C700      1.0  0.75230  0.89838  0.75141  1.0000
  H   H1121     1.0  0.68503  0.84009  0.80766  1.0000
  H   H1122     1.0  0.87132  0.66752  0.95678  1.0000
  H   H1123     1.0  0.78075  0.70548  0.85648  1.0000
  H   H1124     1.0  0.73048  0.81610  0.80861  1.0000
  H   H1125     1.0  0.73221  0.84470  0.79343  1.0000
  C   C701      1.0  0.64457  0.66467  0.83025  1.0000
  H   H1126     1.0  0.65136  0.80384  0.80776  1.0000
  C   C702      1.0  0.59267  0.65838  0.97653  1.0000
  H   H1127     1.0  0.76895  0.69849  0.88892  1.0000
  H   H1128     1.0  0.65442  0.79939  0.77493  1.0000
  H   H1129     1.0  0.57430  0.65865  0.96893  1.0000
  H   H1130     1.0  0.75666  0.94365  0.75210  1.0000
  H   H1131     1.0  0.80050  0.67794  0.87589  1.0000
  N   N71       1.0  0.68898  0.80423  0.79401  1.0000
  H   H1132     1.0  0.68641  0.76227  0.78491  1.0000
  H   H1133     1.0  0.95576  0.68036  0.97177  1.0000
  H   H1134     1.0  0.68828  0.83563  0.77475  1.0000
  H   H1135     1.0  0.79561  0.65677  0.92993  1.0000
  S   S284      1.0  0.68014  0.67765  0.86151  1.0000
  H   H1136     1.0  0.63527  0.94018  0.97609  1.0000
  S   S285      1.0  0.97649  0.76615  0.76536  1.0000
  C   C703      1.0  0.76020  0.68334  0.85383  1.0000
  Fe  Fe143     1.0  0.72947  0.79048  0.74429  1.0000
  C   C704      1.0  0.66344  0.69177  0.80208  1.0000
  C   C705      1.0  0.69191  0.70881  0.81031  1.0000
  C   C706      1.0  0.69648  0.70414  0.82844  1.0000
  C   C707      1.0  0.67291  0.68200  0.83855  1.0000
  S   S286      1.0  0.92282  0.65838  0.91544  1.0000
  C   C708      1.0  0.74289  0.92037  0.74769  1.0000
  H   H1137     1.0  0.71034  0.72582  0.80278  1.0000
  H   H1138     1.0  0.71845  0.71791  0.83466  1.0000
  C   C709      1.0  0.96543  0.67168  0.98162  1.0000
  S   S287      1.0  0.94272  0.67791  0.78261  1.0000
  H   H1139     1.0  0.68320  0.81043  0.82185  1.0000
  C   C710      1.0  0.67735  0.77114  0.79558  1.0000
  C   C711      1.0  0.67659  0.81516  0.80847  1.0000
  H   H1140     1.0  0.73247  0.81134  0.78503  1.0000
  Fe  Fe144     1.0  0.96458  0.71704  0.76251  1.0000
  C   C712      1.0  0.67953  0.81081  0.77655  1.0000
  C   C713      1.0  0.63984  0.66975  0.81221  1.0000
  C   C714      1.0  0.97225  0.69792  0.81584  1.0000
  S   S288      1.0  0.74770  0.84112  0.75126  1.0000
  H   H1141     1.0  0.72950  0.68234  0.88297  1.0000
  H   H1142     1.0  0.61767  0.65648  0.80607  1.0000
  H   H1143     1.0  0.58302  0.98566  0.97283  1.0000
  N   N72       1.0  0.75354  0.66269  0.86909  1.0000
  H   H1144     1.0  0.63715  0.97134  0.98909  1.0000
  H   H1145     1.0  0.66904  0.96432  0.98881  1.0000
  C   C715      1.0  0.74845  0.67693  0.88515  1.0000
  H   H1146     1.0  0.74099  0.68816  0.85102  1.0000
  H   H1147     1.0  0.90556  0.67334  0.96814  1.0000
  C   C716      1.0  0.97539  0.69460  0.83436  1.0000
  H   H1148     1.0  0.97407  0.66213  0.75584  1.0000
  C   C717      1.0  0.73488  0.86793  0.74574  1.0000
  H   H1149     1.0  0.76400  0.67332  0.84142  1.0000
  C   C718      1.0  0.64381  0.95302  0.98891  1.0000
  H   H1150     1.0  0.63365  0.89531  0.99165  1.0000
  H   H1151     1.0  0.58877  0.90397  0.99156  1.0000
  H   H1152     1.0  0.84587  0.65624  0.98633  1.0000
  C   C719      1.0  0.88420  0.65592  0.96171  1.0000
  C   C720      1.0  0.77939  0.65671  0.87242  1.0000
