data_image0
_chemical_formula_structural       FeC2FeS2HNSC2H2CH2C2HCHSCSHC4HSHFeHSHSCHC4H3C2H2NC2SC6H5CHCHCSNSH2C6H2SHSH2C7H7C2NH3S2HCH2NHSCH3CH3C2S2CH3CH2CHCNH3Fe2H2CN2CH3CHSH3CHCSH4CH3CS2CHSHFeSHCH2FeH4C2H7C2H3FeCH3SH8C2H3CH2CH4CHSH2C2FeHC5H3NH2CFeHSCFeS2FeSFeCS2FeS2FeS2FeSFeS3H3SHCSH2CSHSHFeHCHSCH2S4HSNH3SH2Fe2HCHCH4C6SFeH2C6H4C6H4C4H2C6H4C5NC4H12CHSCH2CH2C2H3SH2CH2NH5FeHCNCH4CH9NC2HSCSC2H6C2FeHNC4H12CH2CNCH5CH6CHCH2FeH3FeC3HCH3CFeSFeSFeHSC2FeS2FeH5FeS2FeS2FeHFeS3FeSHFeS2FeSFeS3C2FeSH2S2C3HCH3CHC2H4C6H4C6H9C6H4C3HC2HCH2C2FeC2HC4H3SCSCHC2SH4NH2SHNH2CH2CHCHC2H3CHNC4H12SHSCH2CFeH3C2H6CNH2C2HSH2CH4SHC2H3CH4CH2SHSH2CNC3SHNCH4SNH5CSH3CH2CFeSCH4CH3NCHC2H3NH2CH2C2H4CH4CHSCFeH7NH3C4H2C3H4CH7CHFeSCNH3FeHSFeHS3FeCHFeS2NCHS2FeS2FeS2FeSFeHS2FeS2FeSCFeSFeS3C3H2C6H5CH3C6H6FeNC2H3C6H5CH3SFeH3SC6H2CHC4H2SCSH3NC4H7CH6C3H2C2H3NC4H13C2H2SCHSH2CH3CNHC2H3SCH3CH4SNCSC3HC2NH2FeCSFeC2H4CH2NH3CFeCSH2CH2SHCH2C2H2FeC4HCHSFeS3FeSHNHFeHSC2FeCSFeHSH3S2FeSCFeS2FeSFeS3C2HCHSH3C6H4CHC6H3C2H2SHC6HCH2SCH3CFeHCH3CHC2H3CHFeH3SH2CNHCHCH8CFeSHFeHSCSH2SH2CHCH3NC4H4NH7NCHC3H4NH2C3H2CH2CH3SHCNHCH2FeHC2HCH3C2SH5SH4SC2NFeSH7CH7FeHCH3S2HFeC3S2HC2FeHS2CSNSHFeSFeSHSFeS2FeSFeSFeS2FeS2FeSFeHS2FeS2FeS2FeSFeS3FeS2FeSHFeSFeS3C6H4CHCHCSHCNH6CH2CHC2NCH2C2HCHFeHSHNHC6H4C6H4CH2CH2C8H5CHCHNH3CHCHCHC2HSCSH2NHFeH3CHCHCHC2HSHCHCHC2HC3HCNH2CH6CH9C2HCHSHCHCH2CHCHNC4H8CSHNH6C2HC2H6C2SH6CHCHCHCH6Fe2HCH3C2NH2CH3CH8CH2CHCSFeS2FeS2HSHCSHCHCS2CSCH2SHCHFeNSH3FeSHS2CHFeHFeHSHC3SHSH2CH4CH2FeHCH6C3FeCH3S2CHS2H5C4H2FeC6H4C6H4C2H5CFeC6H7FeHC3HS2HNC4FeHCH2CFeH4SNC4SCFeHC3HCH3CFeHC2H5CSCH9C2FeH3CNH4C3HN2HFeH4SC2HNHCHCHSCHCH2CHSHSHCH2CH5C3HS2C2SFeSHSFeS2FeS2FeSFeS3CFeSH2SCSHSH3CSH2CHCH3C4HSCHNHC6H4C4HCH3SC6H4CFeCNC6H5NCSH6C2SH6SC2FeSH4CSHC2SHFeCHCNC4H12NC4H13FeHCH5NHCH2FeHFeH6CHS2C2SHFeSFeS2HFeS2FeS2FeSFeS3HFeSH2CH3SFeS2CFeSFeNS3CSFeH4SCHCSHCH2C3HCH3FeCHFeCSC2H3CSHC6H4C6H5CH2C2HC2H4CHCH3C6H4CH3CH2NCH2CH2NHC2H2CHNH2C2H2SCH2CNCHCH5SHFeH2CNC4H12NC4H8CH2NC4H4CH11CSH3CHCHC2H5SFeH2SH2CHC3HFeHSCHFeS3H4FeHS2HCSHC2FeHFeS2FeSHFeSFeS3FeS2FeS2FeSFeS4FeS2FeSFeSFeSC7H5CH3C2HCH2C6H4C3H8CSC6H4C2H3CH4C7H6CHC3SNH8SHCHSH2FeH4CH5FeSHCHCHNC3H2CSCHSH4NH8NC3NCHSH2C3H3CH5NHCH2C2HCHCHCH4CHNFeH2CH2CNH2CH3NCNC4H3CH6C3HFeH3CHC3H2CHSHNHC3H6CHC2H2CH2C2H3CH4NHCHCH3FeHSCHCSH2CSC2SHFeSFeSHCFeS2FeS2FeSFeS3H2CHCHC2H3C2HCH2CHC7H4C7H2CSHC6H5CNH2FeHNCH3CHCHSH2SH5SHCH3CH3FeHCHCHC2H3CH2CHCH4CHCHNH2NH3NH2CSH3CH3CHFeHCS2H4FeCSH2NFeSCSH2C2SH4FeS2FeS2FeSFeS3FeS2FeS2FeSFeS3FeS2FeS2FeHFeHS2HNHCHSC2H2CHCFeH3C2HCH3C6H8C6H5C2HC6H4C2H2SC6H4CNH2C3H6NC4H12SCSHCHC5HN2H2CHCH2CH4SHCNCHCHCH2C2SH2C2H2CH2SCH3CH7CH2CH2CHC3SC2H2CHCSCH2SHFeHC2HFeHNH2CH3SHCHCH9C2H4CH2CH2CHFeH3SHSH4CNSH2C3S2CH2FeS2FeS2FeSFeS3FeS2FeS2FeSFeS3FeHSFeHSH3S2HCHC4H4NHCHCHCHC2HCH2C6H4C6H4C6H8CHC8H6SH3NCH2CH6CH2C2HNC4H3CHFeH7CH3CH3C2H3CH3CHCH5CH2CHNHC4H3CH2SCFeCHCH12CH3NC5H5CH3C3H2CSH2CH4FeSH2CHNCH3CH3SCH2FeSHFeSCFeSFeS3HFeS2FeS2FeSFeS3HCFeCNH2C7H4CH4CHC6H6C2HCH3C2H2CH3C7H4SHCNH2CH2C2H9NHCSCHC2HCSH2C2H2C2HC3HCHC2NH5CFeH2C3H13CSNCSH4CH3CH4NCH2SH8NFeNH2CHCH4C2H4CHC3SNCH2FeS3CNCH3FeS3FeS2HFeS2FeS2FeSFeS3FeS2FeS2FeSFeS3FeS2FeS2FeSFeS3CH2C4H2C6H4C6H5NH2CH3C2HC6H2C6H6SCH2NH2C2HNC6H10CH2C3SH2NC4H12SHCH2C2HC2SH3CH6CNC4H12NC4H13C2SC2HC2H4FeH2FeHCHC2SCHCHNH2CH2S2H2SFeHFeHCHCHC2HC2FeCH3CHSCFeCH3C2HCHCH5CH4C2HCHNCFeSFeH2SCH2FeS3FeSFeSFeS2FeS2FeSFeCS2FeSHFeSHFeSFeS3HCSCH5SC4H3SC2H4NHFeHCHC11H6C6H4CHC6H5SHC2HFeCNHCH3C5H2NC4H12NC2H8CH5CH2CSHCSHCHCH5CHSC2H2C2H3CHS3C2H2FeCH2CHSHCH3NC4H4CH7SHCFeHCN2HC3NH2SCHCH6SH2CH2FeH2C2SHSC2H8CHCHSCHCSH4FeCSHSC2SCFeS2FeS2FeSFeS3CHCSH2FeS2H2SHFeS2FeSHS2CHNH2FeH4NH3C6H4C6H2NHC6H3C7H7C7H7C2H7FeH2CFeSH3C2SCHSHNC3H2C2H8CHSCH5CH2CH3C4NC4H15CHNFeH3CHFeHNC2HCH7CH3Fe2HCHSNC3H4CSHCSHSH2Fe2H4SHCSHS2HCH3SCHFeS3H2CNHSHCSH2SHC3H4C2HCHC2HC6H4C2H3CH3FeHC6H6SNH3CSHFeSHFeHC3SCHC6H8CFeH2CH3CH3CHC2HFeHC2H4CH3NCFeSH3C2FeCH2CH2SHNCH6CHCHCSHCNC3H4CSC2HCNC2HC2HCFeSHCHCHCH4FeH2CH3FeH4NSH3SCFeS3FeSHFeHFeS2FeS2FeSFeHS2FeS2FeSHFeCS2FeS2FeS2FeSFeS3FeS2FeS2FeSFeS3C3H3C6H4C4H3CH2NH5C2H4CH3C2HSC6H4C6H4CHSCH2C2HC7H4NC3HFeNCNH5SCHCFe2H6CHS2H7CHFeCHNCNC4H17C2FeC2SHC2H2CH2CH5C3HS2CSCH3C2H2CH4CH2CH6FeHCHNHCH3C2H4C3NH2CHS2FeS2H2Fe2SHFe2SCFeS2FeSFeCSHSHFe2SFeHSH3S2CHC6H4C3HC2H4FeCH3NHC3HC2HSHCHSC7H6SC3SH5FeCH2CH4CH2NCH3C3HSCH2CH4S2FeH3CFeNHSH3CH2SCH3C2HS2FeNSCHCH2SCH4C2HCHCH2CHS2H2CSH2CH3CH2CSCHFeSFeHS2HS2H4FeSC2H3FeCSFeS2FeH3S2FeS2FeS2FeSFeS3FeSCFeSH2FeSCSHFeH2SC2H2C6H4C6H6C2H3CH4CHCH2SCH2C6H4CH2C2HCH3C6H5NH2FeH3C2NCSH6CNCH2CH5CH5NHNH4SCH4CH3CH3C4HSH2SH4C2H2CH3CH2CH4FeH2NHC2NFeH2NC2H3SH5CH2C2SNH4NC3H5C2SC2HCHC3NH2CHCHC2HCHSC8HSHCFeH2SFeSFeSHFeSFeS2H2FeSHFeHSCH2CH5FeS2FeS2FeSFeS3FeSCFeSCFeSHSHC2H3C6H4CH2C7H6CHCH6CHC2HCHCNH8C6H4C5H2C2HC3HC3FeH2FeH2SH4SHSCHNHC3H12NCH2CHC2H2C2H2CS2NHC3H2SHCH3SHCNHCHCH5CNHCH2CHSHCH6SHCH2NCSHC2H2FeH4CHNHCH3SHSH2CH3C2H2CS2CH2SH3CHSCSCH2C2H2S2H2SH2NCFeS2H3FeSFeS2FeS2FeSFeS3HS2H3FeS2FeSFeS3C2H5SHCHC6H5C3H2C6H4C6H6C3H2C6H4FeCHSHSFeC3H5CH3FeCNC4H12NHSH2FeH5CSC3NHC2H3C2NC4H12NFeHCFeHFeCSCH2CSC2H3FeCHCH5SHC3NSHSH2FeCHC3SH4CHFeC2SHCH3CSHNH4CHSHNH2SCSH2SCHCH4FeSHS3HS2H2C2H4CHCHS2CHFeCSC2H2SHCHSC6H4CSH4C7H4CHCH2CHC2HC2H2NC6H4C3H2NCHCHSCHC3HNHNC4H13C2FeH3C3HC2H2NC3HCSFeH6CH3SH6FeCFe2H5SC2HCH8SHCH
_chemical_formula_sum              "Fe384 C1920 S768 H3072 N192"
_cell_length_a       72.2034
_cell_length_b       72.1241
_cell_length_c       72.5282
_cell_angle_alpha    78.197
_cell_angle_beta     78.4007
_cell_angle_gamma    78.3332

_space_group_name_H-M_alt    "P 1"
_space_group_IT_number       1

loop_
  _space_group_symop_operation_xyz
  'x, y, z'

loop_
  _atom_site_type_symbol
  _atom_site_label
  _atom_site_symmetry_multiplicity
  _atom_site_fract_x
  _atom_site_fract_y
  _atom_site_fract_z
  _atom_site_occupancy
  Fe  Fe1       1.0  0.07394  0.24186  0.97682  1.0000
  C   C1        1.0  0.06660  0.04122  0.20747  1.0000
  C   C2        1.0  0.14341  0.47890  0.14738  1.0000
  Fe  Fe2       1.0  0.07227  0.45278  0.23734  1.0000
  S   S1        1.0  0.05771  0.42622  0.24551  1.0000
  S   S2        1.0  0.10395  0.44622  0.22662  1.0000
  H   H1        1.0  0.23095  0.38865  0.09193  1.0000
  N   N1        1.0  0.18521  0.08288  0.03289  1.0000
  S   S3        1.0  0.06181  0.00871  0.26000  1.0000
  C   C3        1.0  0.19220  0.07623  0.01439  1.0000
  C   C4        1.0  0.98746  0.06506  0.28653  1.0000
  H   H2        1.0  0.05282  0.30697  0.03491  1.0000
  H   H3        1.0  0.13312  0.14457  0.98116  1.0000
  C   C5        1.0  0.09554  0.02235  0.19324  1.0000
  H   H4        1.0  0.05039  0.43954  0.15792  1.0000
  H   H5        1.0  0.08016  0.45244  0.14177  1.0000
  C   C6        1.0  0.13866  0.98485  0.18716  1.0000
  C   C7        1.0  0.98779  0.28093  0.11896  1.0000
  H   H6        1.0  0.20089  0.10643  0.02545  1.0000
  C   C8        1.0  0.06691  0.00835  0.20498  1.0000
  H   H7        1.0  0.99010  0.29486  0.14968  1.0000
  S   S4        1.0  0.00167  0.25502  0.07416  1.0000
  C   C9        1.0  0.05866  0.29373  0.99147  1.0000
  S   S5        1.0  0.19208  0.39419  0.01921  1.0000
  H   H8        1.0  0.20181  0.37507  0.11049  1.0000
  C   C10       1.0  0.99621  0.27934  0.14991  1.0000
  C   C11       1.0  0.04886  0.30157  0.02316  1.0000
  C   C12       1.0  0.20535  0.40886  0.02655  1.0000
  C   C13       1.0  0.06844  0.03250  0.17660  1.0000
  H   H9        1.0  0.00774  0.27563  0.15881  1.0000
  S   S6        1.0  0.09931  0.24780  0.98704  1.0000
  H   H10       1.0  0.09686  0.45551  0.15572  1.0000
  Fe  Fe3       1.0  0.10717  0.46305  0.24831  1.0000
  H   H11       1.0  0.99890  0.24573  0.13908  1.0000
  S   S7        1.0  0.04347  0.23864  0.99132  1.0000
  H   H12       1.0  0.07300  0.99637  0.19680  1.0000
  S   S8        1.0  0.23375  0.98979  0.11311  1.0000
  C   C14       1.0  0.15544  0.29222  0.98431  1.0000
  H   H13       1.0  0.17725  0.47583  0.24741  1.0000
  C   C15       1.0  0.06866  0.32087  0.99907  1.0000
  C   C16       1.0  0.19322  0.38971  0.10769  1.0000
  C   C17       1.0  0.01036  0.25413  0.13144  1.0000
  C   C18       1.0  0.14700  0.45628  0.17658  1.0000
  H   H14       1.0  0.07060  0.00360  0.21957  1.0000
  H   H15       1.0  0.05252  0.03552  0.17787  1.0000
  H   H16       1.0  0.10179  0.03544  0.18623  1.0000
  C   C19       1.0  0.16241  0.47216  0.13934  1.0000
  C   C20       1.0  0.19613  0.42040  0.04034  1.0000
  H   H17       1.0  0.02494  0.28270  0.10645  1.0000
  H   H18       1.0  0.06276  0.43333  0.28474  1.0000
  N   N2        1.0  0.07115  0.44604  0.17216  1.0000
  C   C21       1.0  0.14375  0.15387  0.97843  1.0000
  C   C22       1.0  0.14608  0.45343  0.29621  1.0000
  S   S9        1.0  0.14544  0.21081  0.97284  1.0000
  C   C23       1.0  0.01331  0.24941  0.05148  1.0000
  C   C24       1.0  0.03274  0.25120  0.04536  1.0000
  C   C25       1.0  0.04231  0.24764  0.02713  1.0000
  C   C26       1.0  0.03242  0.24248  0.01474  1.0000
  C   C27       1.0  0.01305  0.24054  0.02092  1.0000
  C   C28       1.0  0.00355  0.24390  0.03922  1.0000
  H   H19       1.0  0.04047  0.25518  0.05486  1.0000
  H   H20       1.0  0.05732  0.24872  0.02273  1.0000
  H   H21       1.0  0.00528  0.23645  0.01152  1.0000
  H   H22       1.0  0.15568  0.08752  0.02945  1.0000
  H   H23       1.0  0.98861  0.24245  0.04373  1.0000
  C   C29       1.0  0.11866  0.47753  0.28917  1.0000
  H   H24       1.0  0.05062  0.04407  0.20990  1.0000
  C   C30       1.0  0.09362  0.42796  0.30209  1.0000
  H   H25       1.0  0.01825  0.16340  0.23955  1.0000
  C   C31       1.0  0.22499  0.27964  0.00368  1.0000
  S   S10       1.0  0.17064  0.12100  0.97687  1.0000
  N   N3        1.0  0.07437  0.02614  0.19555  1.0000
  S   S11       1.0  0.98997  0.30571  0.24566  1.0000
  H   H26       1.0  0.22960  0.41427  0.08618  1.0000
  H   H27       1.0  0.07396  0.04583  0.16897  1.0000
  C   C32       1.0  0.04076  0.02207  0.25191  1.0000
  C   C33       1.0  0.03565  0.04159  0.25363  1.0000
  C   C34       1.0  0.01889  0.05272  0.24753  1.0000
  C   C35       1.0  0.00690  0.04428  0.24002  1.0000
  C   C36       1.0  0.01220  0.02486  0.23800  1.0000
  C   C37       1.0  0.02906  0.01378  0.24392  1.0000
  H   H28       1.0  0.04475  0.04813  0.25967  1.0000
  H   H29       1.0  0.01522  0.06777  0.24872  1.0000
  S   S12       1.0  0.17997  0.37257  0.97827  1.0000
  H   H30       1.0  0.03278  0.99873  0.24265  1.0000
  S   S13       1.0  0.07580  0.46803  0.26034  1.0000
  H   H31       1.0  0.06909  0.43798  0.20268  1.0000
  H   H32       1.0  0.20171  0.43555  0.09947  1.0000
  C   C38       1.0  0.19310  0.42388  0.10167  1.0000
  C   C39       1.0  0.03958  0.42036  0.23534  1.0000
  C   C40       1.0  0.03487  0.40177  0.24074  1.0000
  C   C41       1.0  0.02087  0.39637  0.23277  1.0000
  C   C42       1.0  0.01141  0.40951  0.21922  1.0000
  C   C43       1.0  0.01596  0.42818  0.21401  1.0000
  C   C44       1.0  0.02989  0.43362  0.22205  1.0000
  H   H33       1.0  0.04217  0.39140  0.25109  1.0000
  H   H34       1.0  0.01754  0.38196  0.23693  1.0000
  H   H35       1.0  0.07397  0.02126  0.16741  1.0000
  H   H36       1.0  0.03298  0.44810  0.21809  1.0000
  H   H37       1.0  0.06456  0.41885  0.16992  1.0000
  H   H38       1.0  0.20038  0.27667  0.98154  1.0000
  H   H39       1.0  0.18035  0.10931  0.04389  1.0000
  C   C45       1.0  0.01930  0.28563  0.12123  1.0000
  C   C46       1.0  0.13951  0.28884  0.97779  1.0000
  N   N4        1.0  0.06453  0.30119  0.00655  1.0000
  H   H40       1.0  0.18109  0.39104  0.11982  1.0000
  H   H41       1.0  0.09308  0.40315  0.26708  1.0000
  H   H42       1.0  0.17442  0.43758  0.17650  1.0000
  S   S14       1.0  0.21413  0.34482  0.00017  1.0000
  S   S15       1.0  0.20522  0.47753  0.08623  1.0000
  H   H43       1.0  0.17727  0.11215  0.01936  1.0000
  C   C47       1.0  0.13133  0.46080  0.28541  1.0000
  H   H44       1.0  0.00299  0.01824  0.23218  1.0000
  H   H45       1.0  0.01447  0.30143  0.12030  1.0000
  N   N5        1.0  0.99066  0.17491  0.25425  1.0000
  H   H46       1.0  0.09440  0.43177  0.15374  1.0000
  S   S16       1.0  0.12941  0.44903  0.26705  1.0000
  C   C48       1.0  0.15680  0.98994  0.17987  1.0000
  H   H47       1.0  0.19812  0.05623  0.04848  1.0000
  H   H48       1.0  0.08746  0.42298  0.18924  1.0000
  H   H49       1.0  0.09075  0.44663  0.19060  1.0000
  C   C49       1.0  0.22099  0.40247  0.08917  1.0000
  H   H50       1.0  0.03141  0.28150  0.12943  1.0000
  H   H51       1.0  0.04582  0.43333  0.18342  1.0000
  H   H52       1.0  0.06121  0.40859  0.28698  1.0000
  C   C50       1.0  0.22573  0.43194  0.03975  1.0000
  C   C51       1.0  0.09766  0.41350  0.27402  1.0000
  S   S17       1.0  0.98963  0.34933  0.20340  1.0000
  S   S18       1.0  0.18047  0.31413  0.98929  1.0000
  C   C52       1.0  0.05741  0.43392  0.17074  1.0000
  H   H53       1.0  0.18644  0.42560  0.08874  1.0000
  H   H54       1.0  0.01118  0.19255  0.25488  1.0000
  H   H55       1.0  0.22200  0.38865  0.12656  1.0000
  C   C53       1.0  0.08629  0.44642  0.15507  1.0000
  H   H56       1.0  0.07314  0.32699  0.01004  1.0000
  H   H57       1.0  0.14116  0.45008  0.19093  1.0000
  C   C54       1.0  0.16583  0.44921  0.16837  1.0000
  H   H58       1.0  0.18137  0.42638  0.11394  1.0000
  C   C55       1.0  0.15170  0.18578  0.97431  1.0000
  N   N6        1.0  0.20510  0.40475  0.10540  1.0000
  H   H59       1.0  0.00855  0.43853  0.20372  1.0000
  H   H60       1.0  0.05401  0.47232  0.16072  1.0000
  H   H61       1.0  0.00290  0.06583  0.28534  1.0000
  Fe  Fe4       1.0  0.23417  0.35143  0.97264  1.0000
  Fe  Fe5       1.0  0.19375  0.34142  0.98163  1.0000
  H   H62       1.0  0.09407  0.28801  0.00022  1.0000
  H   H63       1.0  0.18700  0.39071  0.09458  1.0000
  C   C56       1.0  0.21300  0.40294  0.12310  1.0000
  N   N7        1.0  0.22984  0.27460  0.98431  1.0000
  N   N8        1.0  0.00343  0.27501  0.13040  1.0000
  C   C57       1.0  0.16036  0.31069  0.98056  1.0000
  H   H64       1.0  0.99902  0.15121  0.23891  1.0000
  H   H65       1.0  0.15942  0.08454  0.05375  1.0000
  H   H66       1.0  0.06996  0.29375  0.97856  1.0000
  C   C58       1.0  0.08197  0.28862  0.01245  1.0000
  H   H67       1.0  0.22305  0.26678  0.01486  1.0000
  S   S19       1.0  0.19097  0.98889  0.15570  1.0000
  H   H68       1.0  0.19178  0.06068  0.01565  1.0000
  H   H69       1.0  0.08053  0.32105  0.98657  1.0000
  H   H70       1.0  0.18223  0.46260  0.28029  1.0000
  C   C59       1.0  0.16739  0.98426  0.16294  1.0000
  H   H71       1.0  0.07170  0.05498  0.20075  1.0000
  C   C60       1.0  0.17363  0.45715  0.14976  1.0000
  S   S20       1.0  0.22265  0.11805  0.98628  1.0000
  H   H72       1.0  0.18346  0.08431  0.00335  1.0000
  H   H73       1.0  0.99138  0.02968  0.27775  1.0000
  H   H74       1.0  0.04529  0.28697  0.02900  1.0000
  H   H75       1.0  0.08692  0.29388  0.02371  1.0000
  C   C61       1.0  0.07999  0.43804  0.18942  1.0000
  H   H76       1.0  0.19887  0.44111  0.05707  1.0000
  H   H77       1.0  0.00896  0.15994  0.27457  1.0000
  H   H78       1.0  0.13594  0.27454  0.98075  1.0000
  C   C62       1.0  0.22478  0.40908  0.01927  1.0000
  S   S21       1.0  0.19696  0.44713  0.13963  1.0000
  S   S22       1.0  0.06827  0.48012  0.21612  1.0000
  C   C63       1.0  0.19754  0.07205  0.04688  1.0000
  H   H79       1.0  0.16431  0.06407  0.04190  1.0000
  S   S23       1.0  0.22086  0.99386  0.05950  1.0000
  H   H80       1.0  0.20139  0.40499  0.13557  1.0000
  Fe  Fe6       1.0  0.10035  0.47455  0.20708  1.0000
  S   S24       1.0  0.11140  0.47919  0.17520  1.0000
  H   H81       1.0  0.08684  0.38337  0.29933  1.0000
  C   C64       1.0  0.18591  0.10361  0.03033  1.0000
  H   H82       1.0  0.10182  0.01097  0.18435  1.0000
  H   H83       1.0  0.21579  0.01401  0.02212  1.0000
  Fe  Fe7       1.0  0.20183  0.37647  0.99502  1.0000
  H   H84       1.0  0.07944  0.27363  0.01815  1.0000
  H   H85       1.0  0.20637  0.46727  0.27551  1.0000
  H   H86       1.0  0.04959  0.46613  0.18632  1.0000
  H   H87       1.0  0.21557  0.40263  0.07581  1.0000
  C   C65       1.0  0.21409  0.26626  0.98069  1.0000
  C   C66       1.0  0.99364  0.16273  0.27280  1.0000
  H   H88       1.0  0.16291  0.99784  0.18766  1.0000
  H   H89       1.0  0.04533  0.30262  0.98692  1.0000
  H   H90       1.0  0.05591  0.27870  0.99638  1.0000
  H   H91       1.0  0.07105  0.03683  0.22182  1.0000
  H   H92       1.0  0.11347  0.40982  0.27354  1.0000
  H   H93       1.0  0.01493  0.25019  0.11691  1.0000
  H   H94       1.0  0.05592  0.33074  0.99424  1.0000
  C   C67       1.0  0.99410  0.03038  0.29215  1.0000
  C   C68       1.0  0.16525  0.07961  0.03983  1.0000
  H   H95       1.0  0.21258  0.07476  0.04231  1.0000
  H   H96       1.0  0.16393  0.28045  0.99235  1.0000
  H   H97       1.0  0.15580  0.44038  0.29348  1.0000
  Fe  Fe8       1.0  0.21440  0.46367  0.11447  1.0000
  C   C69       1.0  0.20621  0.43202  0.04680  1.0000
  H   H98       1.0  0.98946  0.26904  0.27009  1.0000
  H   H99       1.0  0.19236  0.07615  0.06123  1.0000
  H   H100      1.0  0.22644  0.04361  0.00229  1.0000
  S   S25       1.0  0.99451  0.40326  0.20772  1.0000
  H   H101      1.0  0.03550  0.31097  0.01921  1.0000
  H   H102      1.0  0.99366  0.20353  0.23966  1.0000
  H   H103      1.0  0.18105  0.42048  0.04589  1.0000
  H   H104      1.0  0.16823  0.47834  0.12499  1.0000
  H   H105      1.0  0.00973  0.03050  0.29080  1.0000
  H   H106      1.0  0.21144  0.29021  0.00529  1.0000
  H   H107      1.0  0.02273  0.24923  0.13926  1.0000
  H   H108      1.0  0.20730  0.07828  0.00895  1.0000
  C   C70       1.0  0.06097  0.46582  0.17344  1.0000
  C   C71       1.0  0.16333  0.14592  0.97580  1.0000
  H   H109      1.0  0.09483  0.42783  0.26502  1.0000
  H   H110      1.0  0.10048  0.01731  0.20730  1.0000
  H   H111      1.0  0.05101  0.01042  0.20652  1.0000
  C   C72       1.0  0.13565  0.47105  0.16604  1.0000
  H   H112      1.0  0.00068  0.17421  0.22435  1.0000
  H   H113      1.0  0.21155  0.25314  0.99133  1.0000
  C   C73       1.0  0.23005  0.03867  0.01645  1.0000
  H   H114      1.0  0.98903  0.14856  0.27436  1.0000
  H   H115      1.0  0.22207  0.41405  0.12187  1.0000
  H   H116      1.0  0.10935  0.42460  0.30227  1.0000
  H   H117      1.0  0.07101  0.47537  0.17437  1.0000
  C   C74       1.0  0.99589  0.19389  0.25340  1.0000
  H   H118      1.0  0.23206  0.40031  0.00866  1.0000
  S   S26       1.0  0.10712  0.98059  0.23683  1.0000
  H   H119      1.0  0.99264  0.27768  0.10422  1.0000
  H   H120      1.0  0.98700  0.20122  0.26517  1.0000
  C   C75       1.0  0.22891  0.01502  0.04602  1.0000
  C   C76       1.0  0.19108  0.47372  0.27963  1.0000
  Fe  Fe9       1.0  0.23313  0.46102  0.07346  1.0000
  H   H121      1.0  0.13090  0.98888  0.20047  1.0000
  C   C77       1.0  0.00276  0.16554  0.23860  1.0000
  C   C78       1.0  0.06642  0.41891  0.29347  1.0000
  C   C79       1.0  0.22406  0.02188  0.02770  1.0000
  C   C80       1.0  0.23488  0.42056  0.02585  1.0000
  C   C81       1.0  0.13791  0.17383  0.97761  1.0000
  H   H122      1.0  0.20175  0.47966  0.24158  1.0000
  H   H123      1.0  0.18950  0.47681  0.29436  1.0000
  H   H124      1.0  0.09081  0.44267  0.29363  1.0000
  N   N9        1.0  0.08727  0.41371  0.29374  1.0000
  H   H125      1.0  0.12282  0.17991  0.97974  1.0000
  H   H126      1.0  0.99092  0.01684  0.30173  1.0000
  C   C82       1.0  0.17702  0.15794  0.97237  1.0000
  Fe  Fe10      1.0  0.23195  0.98514  0.32931  1.0000
  H   H127      1.0  0.16014  0.45744  0.31843  1.0000
  S   S27       1.0  0.21988  0.10123  0.45364  1.0000
  C   C83       1.0  0.14860  0.46308  0.31030  1.0000
  Fe  Fe11      1.0  0.17362  0.32377  0.49591  1.0000
  S   S28       1.0  0.19395  0.33236  0.46931  1.0000
  S   S29       1.0  0.15873  0.29795  0.50580  1.0000
  Fe  Fe12      1.0  0.18017  0.35462  0.51545  1.0000
  S   S30       1.0  0.16476  0.36362  0.54356  1.0000
  Fe  Fe13      1.0  0.18111  0.36304  0.47197  1.0000
  C   C84       1.0  0.16522  0.37656  0.57634  1.0000
  S   S31       1.0  0.15878  0.35396  0.49700  1.0000
  S   S32       1.0  0.19414  0.32387  0.51530  1.0000
  Fe  Fe14      1.0  0.10014  0.24399  0.46654  1.0000
  S   S33       1.0  0.11264  0.21917  0.48707  1.0000
  S   S34       1.0  0.11218  0.27123  0.45340  1.0000
  Fe  Fe15      1.0  0.06668  0.22487  0.46339  1.0000
  S   S35       1.0  0.07627  0.19831  0.48410  1.0000
  S   S36       1.0  0.04022  0.23531  0.44859  1.0000
  Fe  Fe16      1.0  0.08195  0.21885  0.50136  1.0000
  S   S37       1.0  0.07268  0.21605  0.53352  1.0000
  Fe  Fe17      1.0  0.10637  0.20056  0.46847  1.0000
  S   S38       1.0  0.12968  0.17893  0.45472  1.0000
  S   S39       1.0  0.06998  0.24505  0.48213  1.0000
  S   S40       1.0  0.09628  0.22561  0.44666  1.0000
  H   H128      1.0  0.19099  0.15898  0.45480  1.0000
  H   H129      1.0  0.10197  0.31180  0.54649  1.0000
  H   H130      1.0  0.08382  0.39406  0.32031  1.0000
  S   S41       1.0  0.17485  0.10172  0.49575  1.0000
  H   H131      1.0  0.14975  0.37823  0.57829  1.0000
  C   C85       1.0  0.20400  0.15708  0.46141  1.0000
  S   S42       1.0  0.20260  0.02320  0.38100  1.0000
  H   H132      1.0  0.03853  0.24603  0.59142  1.0000
  H   H133      1.0  0.16517  0.38647  0.60251  1.0000
  C   C86       1.0  0.21777  0.16385  0.48648  1.0000
  S   S43       1.0  0.20312  0.00285  0.33686  1.0000
  H   H134      1.0  0.23062  0.23681  0.50387  1.0000
  S   S44       1.0  0.00493  0.20191  0.39044  1.0000
  H   H135      1.0  0.03794  0.29351  0.55900  1.0000
  Fe  Fe18      1.0  0.21336  0.33507  0.48878  1.0000
  H   H136      1.0  0.15232  0.32512  0.55985  1.0000
  C   C87       1.0  0.19127  0.18612  0.47447  1.0000
  H   H137      1.0  0.23059  0.08595  0.53860  1.0000
  S   S45       1.0  0.09140  0.33359  0.62727  1.0000
  C   C88       1.0  0.11790  0.31002  0.54357  1.0000
  H   H138      1.0  0.19632  0.29031  0.48479  1.0000
  H   H139      1.0  0.10990  0.36593  0.62318  1.0000
  S   S46       1.0  0.09678  0.27245  0.57800  1.0000
  S   S47       1.0  0.20436  0.45794  0.39640  1.0000
  S   S48       1.0  0.06854  0.25573  0.63262  1.0000
  S   S49       1.0  0.17453  0.38166  0.44379  1.0000
  H   H140      1.0  0.99754  0.23975  0.40234  1.0000
  S   S50       1.0  0.20143  0.36630  0.49044  1.0000
  N   N10       1.0  0.19980  0.16563  0.47897  1.0000
  H   H141      1.0  0.01108  0.25179  0.42562  1.0000
  H   H142      1.0  0.05331  0.28400  0.57658  1.0000
  H   H143      1.0  0.18328  0.30785  0.60503  1.0000
  S   S51       1.0  0.19337  0.46489  0.34064  1.0000
  H   H144      1.0  0.00125  0.04795  0.31864  1.0000
  H   H145      1.0  0.22355  0.09488  0.57088  1.0000
  Fe  Fe19      1.0  0.08513  0.27425  0.60916  1.0000
  Fe  Fe20      1.0  0.08188  0.30461  0.63362  1.0000
  H   H146      1.0  0.20119  0.19423  0.46348  1.0000
  C   C89       1.0  0.20893  0.04813  0.40217  1.0000
  H   H147      1.0  0.12245  0.31480  0.52799  1.0000
  C   C90       1.0  0.17392  0.38122  0.59010  1.0000
  H   H148      1.0  0.19860  0.05848  0.39480  1.0000
  H   H149      1.0  0.21451  0.06854  0.41765  1.0000
  H   H150      1.0  0.23113  0.33789  0.43993  1.0000
  H   H151      1.0  0.19063  0.29830  0.62783  1.0000
  C   C91       1.0  0.03129  0.22585  0.43190  1.0000
  C   C92       1.0  0.01653  0.23741  0.42262  1.0000
  C   C93       1.0  0.00872  0.23057  0.40947  1.0000
  C   C94       1.0  0.01532  0.21187  0.40570  1.0000
  C   C95       1.0  0.03013  0.20034  0.41493  1.0000
  C   C96       1.0  0.03819  0.20731  0.42783  1.0000
  S   S52       1.0  0.06383  0.30095  0.61311  1.0000
  Fe  Fe21      1.0  0.20952  0.99644  0.36684  1.0000
  H   H152      1.0  0.03539  0.18586  0.41213  1.0000
  H   H153      1.0  0.04952  0.19822  0.43484  1.0000
  C   C97       1.0  0.07970  0.23163  0.54577  1.0000
  C   C98       1.0  0.07495  0.22935  0.56578  1.0000
  C   C99       1.0  0.08025  0.24164  0.57588  1.0000
  C   C100      1.0  0.09030  0.25635  0.56600  1.0000
  C   C101      1.0  0.09505  0.25863  0.54600  1.0000
  C   C102      1.0  0.08974  0.24635  0.53592  1.0000
  H   H154      1.0  0.06733  0.21788  0.57347  1.0000
  H   H155      1.0  0.07678  0.23959  0.59130  1.0000
  H   H156      1.0  0.10282  0.26995  0.53822  1.0000
  H   H157      1.0  0.09341  0.24826  0.52051  1.0000
  C   C103      1.0  0.14109  0.15699  0.46646  1.0000
  C   C104      1.0  0.13511  0.14973  0.48569  1.0000
  C   C105      1.0  0.14520  0.13240  0.49446  1.0000
  C   C106      1.0  0.16157  0.12260  0.48418  1.0000
  C   C107      1.0  0.16735  0.12978  0.46492  1.0000
  C   C108      1.0  0.15701  0.14676  0.45606  1.0000
  H   H158      1.0  0.12275  0.15743  0.49378  1.0000
  H   H159      1.0  0.14056  0.12686  0.50935  1.0000
  H   H160      1.0  0.17973  0.12225  0.45677  1.0000
  H   H161      1.0  0.16151  0.15220  0.44111  1.0000
  C   C109      1.0  0.17639  0.36989  0.56004  1.0000
  C   C110      1.0  0.19636  0.36792  0.55754  1.0000
  C   C111      1.0  0.20506  0.37260  0.57131  1.0000
  C   C112      1.0  0.19388  0.37924  0.58764  1.0000
  H   H162      1.0  0.20509  0.36280  0.54503  1.0000
  H   H163      1.0  0.22052  0.37104  0.56933  1.0000
  C   C113      1.0  0.12494  0.27888  0.46800  1.0000
  C   C114      1.0  0.13428  0.29482  0.46091  1.0000
  C   C115      1.0  0.14463  0.30096  0.47238  1.0000
  C   C116      1.0  0.14561  0.29117  0.49100  1.0000
  C   C117      1.0  0.13624  0.27530  0.49809  1.0000
  C   C118      1.0  0.12594  0.26918  0.48664  1.0000
  H   H164      1.0  0.13351  0.30241  0.44651  1.0000
  H   H165      1.0  0.15178  0.31326  0.46682  1.0000
  H   H166      1.0  0.13686  0.26771  0.51252  1.0000
  H   H167      1.0  0.11866  0.25702  0.49230  1.0000
  C   C119      1.0  0.19526  0.43717  0.40967  1.0000
  C   C120      1.0  0.18425  0.42760  0.40217  1.0000
  C   C121      1.0  0.17773  0.41086  0.41300  1.0000
  C   C122      1.0  0.18204  0.40355  0.43146  1.0000
  C   C123      1.0  0.19280  0.41331  0.43909  1.0000
  N   N11       1.0  0.17465  0.05731  0.46334  1.0000
  C   C124      1.0  0.15434  0.06677  0.46539  1.0000
  C   C125      1.0  0.18697  0.07180  0.45421  1.0000
  C   C126      1.0  0.17787  0.04227  0.45136  1.0000
  C   C127      1.0  0.17951  0.04854  0.48241  1.0000
  H   H168      1.0  0.14454  0.05631  0.47225  1.0000
  H   H169      1.0  0.15023  0.07370  0.45126  1.0000
  H   H170      1.0  0.15160  0.07821  0.47437  1.0000
  H   H171      1.0  0.18402  0.07849  0.43962  1.0000
  H   H172      1.0  0.18458  0.08356  0.46266  1.0000
  H   H173      1.0  0.20243  0.06528  0.45294  1.0000
  H   H174      1.0  0.19312  0.03493  0.44958  1.0000
  H   H175      1.0  0.17457  0.04841  0.43675  1.0000
  H   H176      1.0  0.16878  0.03106  0.45774  1.0000
  H   H177      1.0  0.17768  0.05961  0.49166  1.0000
  H   H178      1.0  0.19470  0.04108  0.48134  1.0000
  H   H179      1.0  0.17027  0.03776  0.48993  1.0000
  C   C128      1.0  0.22973  0.25048  0.49341  1.0000
  H   H180      1.0  0.12290  0.34693  0.53462  1.0000
  S   S53       1.0  0.22807  0.10588  0.49588  1.0000
  C   C129      1.0  0.20638  0.26652  0.51642  1.0000
  H   H181      1.0  0.20961  0.14141  0.46441  1.0000
  H   H182      1.0  0.00626  0.28274  0.56349  1.0000
  C   C130      1.0  0.01634  0.29199  0.59380  1.0000
  H   H183      1.0  0.19144  0.13970  0.49645  1.0000
  H   H184      1.0  0.10210  0.34482  0.55289  1.0000
  C   C131      1.0  0.03190  0.25886  0.59821  1.0000
  C   C132      1.0  0.01144  0.27049  0.57434  1.0000
  H   H185      1.0  0.18777  0.19303  0.48741  1.0000
  H   H186      1.0  0.04907  0.26873  0.56174  1.0000
  H   H187      1.0  0.12342  0.29431  0.54675  1.0000
  S   S54       1.0  0.22204  0.06412  0.48910  1.0000
  H   H188      1.0  0.19837  0.24976  0.47871  1.0000
  H   H189      1.0  0.21506  0.16374  0.45049  1.0000
  C   C133      1.0  0.11203  0.35699  0.63677  1.0000
  H   H190      1.0  0.18125  0.26146  0.49605  1.0000
  H   H191      1.0  0.01498  0.32015  0.63647  1.0000
  N   N12       1.0  0.17437  0.32689  0.62558  1.0000
  H   H192      1.0  0.04276  0.26208  0.60545  1.0000
  H   H193      1.0  0.22452  0.14852  0.48992  1.0000
  H   H194      1.0  0.98761  0.19238  0.43386  1.0000
  H   H195      1.0  0.12355  0.35012  0.55829  1.0000
  H   H196      1.0  0.00376  0.28852  0.60480  1.0000
  Fe  Fe22      1.0  0.18870  0.39064  0.63361  1.0000
  H   H197      1.0  0.23325  0.24684  0.47879  1.0000
  C   C134      1.0  0.23129  0.04063  0.42474  1.0000
  N   N13       1.0  0.02545  0.27553  0.58401  1.0000
  C   C135      1.0  0.23238  0.38155  0.41152  1.0000
  H   H198      1.0  0.12359  0.29865  0.58004  1.0000
  H   H199      1.0  0.15224  0.30174  0.55453  1.0000
  H   H200      1.0  0.21484  0.37716  0.44863  1.0000
  H   H201      1.0  0.12314  0.32229  0.58489  1.0000
  C   C136      1.0  0.19154  0.33622  0.61924  1.0000
  H   H202      1.0  0.01978  0.25489  0.60957  1.0000
  H   H203      1.0  0.21657  0.38624  0.41278  1.0000
  H   H204      1.0  0.19208  0.27564  0.51934  1.0000
  H   H205      1.0  0.21421  0.27864  0.46799  1.0000
  H   H206      1.0  0.19591  0.40812  0.45341  1.0000
  H   H207      1.0  0.16937  0.40347  0.40697  1.0000
  H   H208      1.0  0.15494  0.35323  0.61919  1.0000
  H   H209      1.0  0.20790  0.43730  0.43416  1.0000
  H   H210      1.0  0.17765  0.18784  0.46875  1.0000
  N   N14       1.0  0.21065  0.26265  0.49662  1.0000
  C   C137      1.0  0.19583  0.25265  0.49358  1.0000
  C   C138      1.0  0.11804  0.34157  0.55003  1.0000
  H   H211      1.0  0.02649  0.29605  0.60137  1.0000
  S   S55       1.0  0.20536  0.38404  0.60506  1.0000
  C   C139      1.0  0.15856  0.33838  0.61589  1.0000
  S   S56       1.0  0.10403  0.27871  0.62845  1.0000
  C   C140      1.0  0.21779  0.05383  0.41526  1.0000
  C   C141      1.0  0.19949  0.42993  0.42818  1.0000
  H   H212      1.0  0.99869  0.26645  0.58473  1.0000
  H   H213      1.0  0.20642  0.25300  0.52705  1.0000
  H   H214      1.0  0.21713  0.27424  0.51919  1.0000
  H   H215      1.0  0.21187  0.35408  0.42987  1.0000
  H   H216      1.0  0.22857  0.17113  0.47580  1.0000
  H   H217      1.0  0.23238  0.34377  0.41443  1.0000
  C   C142      1.0  0.21364  0.02927  0.39821  1.0000
  C   C143      1.0  0.18608  0.15545  0.49347  1.0000
  Fe  Fe23      1.0  0.20659  0.09463  0.48452  1.0000
  H   H218      1.0  0.15181  0.32242  0.53599  1.0000
  N   N15       1.0  0.07120  0.27545  0.41370  1.0000
  C   C144      1.0  0.06345  0.27547  0.43417  1.0000
  C   C145      1.0  0.06652  0.25872  0.40780  1.0000
  C   C146      1.0  0.09225  0.27431  0.41058  1.0000
  C   C147      1.0  0.06253  0.29334  0.40232  1.0000
  H   H219      1.0  0.06956  0.26209  0.44306  1.0000
  H   H220      1.0  0.04759  0.27621  0.43719  1.0000
  H   H221      1.0  0.06699  0.28765  0.43931  1.0000
  H   H222      1.0  0.07228  0.25804  0.39249  1.0000
  H   H223      1.0  0.07250  0.24494  0.41636  1.0000
  H   H224      1.0  0.05073  0.25914  0.40997  1.0000
  H   H225      1.0  0.09868  0.27435  0.39531  1.0000
  H   H226      1.0  0.09922  0.26096  0.41899  1.0000
  H   H227      1.0  0.09630  0.28651  0.41528  1.0000
  H   H228      1.0  0.06800  0.29378  0.38678  1.0000
  H   H229      1.0  0.06576  0.30623  0.40646  1.0000
  H   H230      1.0  0.04663  0.29458  0.40446  1.0000
  C   C148      1.0  0.14632  0.31731  0.55130  1.0000
  H   H231      1.0  0.18086  0.43300  0.38797  1.0000
  H   H232      1.0  0.10237  0.31631  0.57900  1.0000
  C   C149      1.0  0.04214  0.28070  0.56972  1.0000
  N   N16       1.0  0.12513  0.32079  0.55516  1.0000
  C   C150      1.0  0.11832  0.31425  0.57567  1.0000
  H   H233      1.0  0.18871  0.35085  0.62303  1.0000
  H   H234      1.0  0.01125  0.30488  0.58360  1.0000
  H   H235      1.0  0.18323  0.16087  0.50724  1.0000
  H   H236      1.0  0.19544  0.23872  0.50354  1.0000
  H   H237      1.0  0.14527  0.33187  0.62044  1.0000
  C   C151      1.0  0.21063  0.28100  0.48307  1.0000
  H   H238      1.0  0.17204  0.15742  0.48861  1.0000
  H   H239      1.0  0.19614  0.33791  0.60346  1.0000
  H   H240      1.0  0.01791  0.25808  0.56682  1.0000
  H   H241      1.0  0.16605  0.29999  0.62530  1.0000
  H   H242      1.0  0.08613  0.42858  0.31699  1.0000
  H   H243      1.0  0.21525  0.17012  0.49974  1.0000
  C   C152      1.0  0.23073  0.37347  0.44572  1.0000
  H   H244      1.0  0.22776  0.04541  0.34478  1.0000
  C   C153      1.0  0.17878  0.30738  0.62071  1.0000
  H   H245      1.0  0.20389  0.32793  0.62606  1.0000
  H   H246      1.0  0.23099  0.00155  0.40471  1.0000
  Fe  Fe24      1.0  0.19704  0.47410  0.36751  1.0000
  H   H247      1.0  0.22124  0.28924  0.48529  1.0000
  H   H248      1.0  0.05802  0.41921  0.30808  1.0000
  H   H249      1.0  0.16245  0.33967  0.60008  1.0000
  Fe  Fe25      1.0  0.04857  0.28294  0.63812  1.0000
  C   C154      1.0  0.13605  0.47992  0.31393  1.0000
  C   C155      1.0  0.22724  0.01611  0.40758  1.0000
  C   C156      1.0  0.22778  0.34973  0.42792  1.0000
  H   H250      1.0  0.23380  0.02068  0.34256  1.0000
  C   C157      1.0  0.09143  0.39443  0.30531  1.0000
  H   H251      1.0  0.10707  0.39008  0.30574  1.0000
  H   H252      1.0  0.23515  0.36255  0.45799  1.0000
  H   H253      1.0  0.23579  0.30275  0.51630  1.0000
  C   C158      1.0  0.23602  0.02180  0.42072  1.0000
  Fe  Fe26      1.0  0.19550  0.39053  0.67414  1.0000
  S   S57       1.0  0.16423  0.39886  0.68506  1.0000
  Fe  Fe27      1.0  0.15952  0.37813  0.66780  1.0000
  S   S58       1.0  0.13882  0.35742  0.68081  1.0000
  Fe  Fe28      1.0  0.16416  0.41982  0.65764  1.0000
  H   H254      1.0  0.17528  0.41018  0.83716  1.0000
  S   S59       1.0  0.19098  0.36756  0.65945  1.0000
  C   C159      1.0  0.17855  0.01179  0.89560  1.0000
  C   C160      1.0  0.19752  0.00539  0.86543  1.0000
  Fe  Fe29      1.0  0.08516  0.26276  0.65261  1.0000
  S   S60       1.0  0.06432  0.28913  0.65937  1.0000
  S   S61       1.0  0.09481  0.23755  0.67491  1.0000
  Fe  Fe30      1.0  0.20296  0.37672  0.95233  1.0000
  H   H255      1.0  0.17761  0.11044  0.72441  1.0000
  H   H256      1.0  0.99028  0.14345  0.80819  1.0000
  H   H257      1.0  0.00265  0.23445  0.69693  1.0000
  H   H258      1.0  0.18015  0.36051  0.82775  1.0000
  H   H259      1.0  0.16810  0.00278  0.89453  1.0000
  Fe  Fe31      1.0  0.06254  0.21020  0.78648  1.0000
  S   S62       1.0  0.04337  0.21620  0.81413  1.0000
  S   S63       1.0  0.06763  0.23659  0.76418  1.0000
  Fe  Fe32      1.0  0.06670  0.16714  0.79912  1.0000
  S   S64       1.0  0.04759  0.17023  0.82701  1.0000
  S   S65       1.0  0.07593  0.13560  0.79774  1.0000
  Fe  Fe33      1.0  0.02868  0.19294  0.81013  1.0000
  H   H260      1.0  0.01472  0.23259  0.96399  1.0000
  Fe  Fe34      1.0  0.06417  0.19286  0.82864  1.0000
  S   S66       1.0  0.07528  0.18686  0.85708  1.0000
  S   S67       1.0  0.04654  0.18826  0.78186  1.0000
  S   S68       1.0  0.08454  0.18850  0.80132  1.0000
  Fe  Fe35      1.0  0.21937  0.06177  0.79265  1.0000
  S   S69       1.0  0.21151  0.04554  0.82222  1.0000
  H   H261      1.0  0.00478  0.14984  0.82256  1.0000
  Fe  Fe36      1.0  0.17899  0.08205  0.79037  1.0000
  S   S70       1.0  0.16722  0.06740  0.81944  1.0000
  S   S71       1.0  0.16360  0.10522  0.77007  1.0000
  Fe  Fe37      1.0  0.19312  0.07325  0.82873  1.0000
  S   S72       1.0  0.18544  0.08337  0.85750  1.0000
  Fe  Fe38      1.0  0.18628  0.04055  0.81124  1.0000
  S   S73       1.0  0.17784  0.01116  0.82232  1.0000
  S   S74       1.0  0.20345  0.09014  0.80006  1.0000
  S   S75       1.0  0.19562  0.05465  0.78114  1.0000
  C   C161      1.0  0.18171  0.08349  0.70187  1.0000
  C   C162      1.0  0.14908  0.32582  0.97031  1.0000
  Fe  Fe39      1.0  0.09365  0.24446  0.93513  1.0000
  S   S76       1.0  0.08829  0.24696  0.90477  1.0000
  H   H262      1.0  0.18006  0.31698  0.65431  1.0000
  H   H263      1.0  0.02816  0.21961  0.91517  1.0000
  S   S77       1.0  0.12055  0.25100  0.94158  1.0000
  S   S78       1.0  0.07515  0.26621  0.95204  1.0000
  C   C163      1.0  0.16856  0.32564  0.64647  1.0000
  C   C164      1.0  0.99303  0.18188  0.78449  1.0000
  C   C165      1.0  0.02892  0.23829  0.71700  1.0000
  H   H264      1.0  0.21590  0.37828  0.81285  1.0000
  C   C166      1.0  0.20210  0.08340  0.87243  1.0000
  H   H265      1.0  0.00737  0.18483  0.77890  1.0000
  H   H266      1.0  0.12275  0.42203  0.66982  1.0000
  H   H267      1.0  0.23054  0.10753  0.72321  1.0000
  C   C167      1.0  0.11408  0.40270  0.70524  1.0000
  H   H268      1.0  0.17262  0.38138  0.86242  1.0000
  C   C168      1.0  0.22473  0.37090  0.90300  1.0000
  C   C169      1.0  0.17586  0.99661  0.80609  1.0000
  H   H269      1.0  0.04078  0.13272  0.78301  1.0000
  H   H270      1.0  0.17327  0.99832  0.75936  1.0000
  H   H271      1.0  0.99470  0.12815  0.83021  1.0000
  H   H272      1.0  0.00686  0.10086  0.81215  1.0000
  C   C170      1.0  0.07833  0.20384  0.87034  1.0000
  C   C171      1.0  0.07611  0.22351  0.86308  1.0000
  C   C172      1.0  0.07927  0.23643  0.87385  1.0000
  C   C173      1.0  0.08450  0.22989  0.89203  1.0000
  C   C174      1.0  0.08652  0.21023  0.89942  1.0000
  C   C175      1.0  0.08354  0.19727  0.88856  1.0000
  H   H273      1.0  0.07216  0.22876  0.84908  1.0000
  H   H274      1.0  0.07768  0.25162  0.86799  1.0000
  H   H275      1.0  0.09053  0.20497  0.91338  1.0000
  H   H276      1.0  0.08524  0.18207  0.89430  1.0000
  C   C176      1.0  0.10033  0.12744  0.78999  1.0000
  C   C177      1.0  0.11181  0.13952  0.77727  1.0000
  C   C178      1.0  0.13118  0.13245  0.77097  1.0000
  C   C179      1.0  0.13925  0.11353  0.77787  1.0000
  C   C180      1.0  0.12783  0.10157  0.79083  1.0000
  C   C181      1.0  0.10832  0.10843  0.79663  1.0000
  H   H277      1.0  0.10569  0.15416  0.77197  1.0000
  H   H278      1.0  0.13998  0.14174  0.76089  1.0000
  H   H279      1.0  0.13392  0.08690  0.79605  1.0000
  H   H280      1.0  0.09944  0.09900  0.80638  1.0000
  H   H281      1.0  0.20896  0.99567  0.87264  1.0000
  H   H282      1.0  0.21290  0.02365  0.88602  1.0000
  H   H283      1.0  0.20212  0.46020  0.77217  1.0000
  H   H284      1.0  0.23081  0.47009  0.73500  1.0000
  H   H285      1.0  0.12420  0.33432  0.95633  1.0000
  C   C182      1.0  0.08703  0.23747  0.69968  1.0000
  C   C183      1.0  0.08730  0.21985  0.71231  1.0000
  C   C184      1.0  0.08117  0.21930  0.73211  1.0000
  C   C185      1.0  0.07503  0.23643  0.73943  1.0000
  C   C186      1.0  0.07475  0.25404  0.72678  1.0000
  C   C187      1.0  0.08059  0.25458  0.70698  1.0000
  H   H286      1.0  0.09233  0.20656  0.70677  1.0000
  H   H287      1.0  0.08151  0.20566  0.74171  1.0000
  H   H288      1.0  0.07013  0.26734  0.73237  1.0000
  H   H289      1.0  0.08058  0.26823  0.69744  1.0000
  C   C188      1.0  0.12540  0.35103  0.66599  1.0000
  C   C189      1.0  0.16128  0.18712  0.90165  1.0000
  C   C190      1.0  0.17090  0.07462  0.73573  1.0000
  H   H290      1.0  0.22558  0.42214  0.66375  1.0000
  C   C191      1.0  0.10701  0.32852  0.66014  1.0000
  C   C192      1.0  0.11737  0.33417  0.67193  1.0000
  H   H291      1.0  0.21326  0.46444  0.64857  1.0000
  C   C193      1.0  0.22759  0.08317  0.89752  1.0000
  H   H292      1.0  0.10101  0.31541  0.66474  1.0000
  H   H293      1.0  0.11936  0.32531  0.68560  1.0000
  C   C194      1.0  0.21206  0.37367  0.82855  1.0000
  C   C195      1.0  0.00075  0.31660  0.64139  1.0000
  Fe  Fe40      1.0  0.11676  0.22786  0.96731  1.0000
  C   C196      1.0  0.13725  0.21570  0.90320  1.0000
  C   C197      1.0  0.20800  0.09003  0.90234  1.0000
  H   H294      1.0  0.03650  0.24761  0.66847  1.0000
  C   C198      1.0  0.15524  0.46238  0.67374  1.0000
  C   C199      1.0  0.16157  0.45198  0.69046  1.0000
  C   C200      1.0  0.16680  0.46153  0.70315  1.0000
  C   C201      1.0  0.03277  0.11883  0.82015  1.0000
  H   H295      1.0  0.16236  0.43659  0.69372  1.0000
  H   H296      1.0  0.17156  0.45337  0.71612  1.0000
  H   H297      1.0  0.12378  0.38883  0.70339  1.0000
  S   S79       1.0  0.22010  0.38750  0.69023  1.0000
  C   C202      1.0  0.13294  0.32250  0.96408  1.0000
  S   S80       1.0  0.99647  0.19349  0.81748  1.0000
  C   C203      1.0  0.99827  0.29736  0.64612  1.0000
  H   H298      1.0  0.20577  0.45175  0.70205  1.0000
  C   C204      1.0  0.18749  0.37515  0.85645  1.0000
  C   C205      1.0  0.12272  0.36241  0.64836  1.0000
  S   S81       1.0  0.15692  0.39982  0.64102  1.0000
  H   H299      1.0  0.19547  0.09754  0.73828  1.0000
  H   H300      1.0  0.14597  0.22466  0.89176  1.0000
  H   H301      1.0  0.15541  0.31900  0.65179  1.0000
  H   H302      1.0  0.22619  0.47421  0.68283  1.0000
  N   N17       1.0  0.14946  0.20027  0.91431  1.0000
  H   H303      1.0  0.01867  0.27650  0.70752  1.0000
  H   H304      1.0  0.19749  0.44867  0.66263  1.0000
  S   S82       1.0  0.10737  0.30049  0.96018  1.0000
  H   H305      1.0  0.19988  0.40813  0.83965  1.0000
  N   N18       1.0  0.02541  0.24916  0.69805  1.0000
  H   H306      1.0  0.12273  0.39737  0.66871  1.0000
  H   H307      1.0  0.12900  0.19856  0.94034  1.0000
  C   C206      1.0  0.03883  0.23996  0.68297  1.0000
  H   H308      1.0  0.07917  0.43193  0.68273  1.0000
  H   H309      1.0  0.16870  0.09465  0.70038  1.0000
  C   C207      1.0  0.02725  0.14006  0.79074  1.0000
  H   H310      1.0  0.07983  0.42584  0.70793  1.0000
  C   C208      1.0  0.08891  0.42707  0.69353  1.0000
  H   H311      1.0  0.22960  0.09245  0.75723  1.0000
  C   C209      1.0  0.19868  0.39630  0.72459  1.0000
  C   C210      1.0  0.17229  0.03298  0.86637  1.0000
  H   H312      1.0  0.20667  0.41704  0.88578  1.0000
  H   H313      1.0  0.03722  0.22475  0.68401  1.0000
  H   H314      1.0  0.99493  0.25616  0.70696  1.0000
  C   C211      1.0  0.04805  0.22101  0.94220  1.0000
  H   H315      1.0  0.04928  0.22128  0.95720  1.0000
  N   N19       1.0  0.12226  0.14254  0.83555  1.0000
  C   C212      1.0  0.13318  0.14322  0.81593  1.0000
  C   C213      1.0  0.13225  0.12695  0.84857  1.0000
  C   C214      1.0  0.10276  0.13886  0.83590  1.0000
  C   C215      1.0  0.12086  0.16115  0.84173  1.0000
  H   H316      1.0  0.13488  0.12924  0.81104  1.0000
  H   H317      1.0  0.14785  0.14632  0.81499  1.0000
  H   H318      1.0  0.12582  0.15446  0.80557  1.0000
  H   H319      1.0  0.12444  0.12598  0.86352  1.0000
  H   H320      1.0  0.13360  0.11272  0.84422  1.0000
  H   H321      1.0  0.14708  0.12918  0.84858  1.0000
  H   H322      1.0  0.09388  0.13888  0.85035  1.0000
  H   H323      1.0  0.10318  0.12480  0.83162  1.0000
  H   H324      1.0  0.09500  0.15008  0.82586  1.0000
  H   H325      1.0  0.11313  0.17315  0.83231  1.0000
  H   H326      1.0  0.13526  0.16457  0.84145  1.0000
  H   H327      1.0  0.11270  0.16116  0.85650  1.0000
  S   S83       1.0  0.21612  0.08213  0.96731  1.0000
  H   H328      1.0  0.02681  0.10893  0.83282  1.0000
  S   S84       1.0  0.23550  0.41682  0.81067  1.0000
  C   C216      1.0  0.01333  0.11114  0.80015  1.0000
  H   H329      1.0  0.18957  0.00241  0.90367  1.0000
  H   H330      1.0  0.12669  0.18358  0.92419  1.0000
  C   C217      1.0  0.03518  0.25486  0.93651  1.0000
  Fe  Fe41      1.0  0.20266  0.11293  0.96864  1.0000
  H   H331      1.0  0.20438  0.01154  0.85092  1.0000
  H   H332      1.0  0.16745  0.06089  0.73374  1.0000
  H   H333      1.0  0.10563  0.40067  0.71992  1.0000
  C   C218      1.0  0.20116  0.03244  0.87858  1.0000
  C   C219      1.0  0.00136  0.13752  0.81750  1.0000
  H   H334      1.0  0.17080  0.17543  0.90963  1.0000
  H   H335      1.0  0.06187  0.22377  0.93305  1.0000
  H   H336      1.0  0.15371  0.21918  0.93193  1.0000
  H   H337      1.0  0.20792  0.03957  0.86445  1.0000
  H   H338      1.0  0.20207  0.10477  0.71289  1.0000
  H   H339      1.0  0.21913  0.30305  0.97077  1.0000
  C   C220      1.0  0.20430  0.06606  0.72235  1.0000
  N   N20       1.0  0.01867  0.12687  0.80714  1.0000
  H   H340      1.0  0.09749  0.43865  0.69224  1.0000
  H   H341      1.0  0.20552  0.47029  0.73684  1.0000
  C   C221      1.0  0.21350  0.46874  0.77167  1.0000
  C   C222      1.0  0.21317  0.39777  0.75185  1.0000
  H   H342      1.0  0.20378  0.43060  0.69356  1.0000
  S   S85       1.0  0.19575  0.41285  0.64755  1.0000
  H   H343      1.0  0.19355  0.08816  0.69049  1.0000
  H   H344      1.0  0.08024  0.39749  0.68101  1.0000
  C   C223      1.0  0.10426  0.33999  0.64255  1.0000
  H   H345      1.0  0.15266  0.34011  0.96740  1.0000
  H   H346      1.0  0.20917  0.06429  0.73635  1.0000
  H   H347      1.0  0.12874  0.37544  0.64362  1.0000
  H   H348      1.0  0.18219  0.38157  0.80982  1.0000
  S   S86       1.0  0.21947  0.12495  0.94083  1.0000
  H   H349      1.0  0.18746  0.99647  0.86326  1.0000
  C   C224      1.0  0.21636  0.47902  0.73755  1.0000
  C   C225      1.0  0.03038  0.23416  0.91623  1.0000
  H   H350      1.0  0.10440  0.41581  0.65993  1.0000
  H   H351      1.0  0.18875  0.35922  0.85969  1.0000
  H   H352      1.0  0.12328  0.41362  0.70443  1.0000
  C   C226      1.0  0.19684  0.39944  0.74347  1.0000
  H   H353      1.0  0.17748  0.01886  0.78133  1.0000
  H   H354      1.0  0.19830  0.47063  0.67012  1.0000
  H   H355      1.0  0.21427  0.35770  0.83137  1.0000
  H   H356      1.0  0.15766  0.08565  0.73549  1.0000
  C   C227      1.0  0.08969  0.39367  0.69208  1.0000
  H   H357      1.0  0.20260  0.09522  0.91572  1.0000
  H   H358      1.0  0.22709  0.07134  0.85421  1.0000
  S   S87       1.0  0.21058  0.40143  0.77567  1.0000
  H   H359      1.0  0.21171  0.47316  0.78585  1.0000
  S   S88       1.0  0.09131  0.21965  0.95933  1.0000
  H   H360      1.0  0.02327  0.26615  0.93187  1.0000
  H   H361      1.0  0.16538  0.34014  0.65059  1.0000
  C   C228      1.0  0.21689  0.39135  0.71404  1.0000
  N   N21       1.0  0.19215  0.38212  0.83569  1.0000
  C   C229      1.0  0.19019  0.40330  0.83212  1.0000
  C   C230      1.0  0.23317  0.38988  0.72238  1.0000
  C   C231      1.0  0.19533  0.09009  0.88986  1.0000
  S   S89       1.0  0.22345  0.38323  0.96873  1.0000
  H   H362      1.0  0.19382  0.40900  0.81657  1.0000
  N   N22       1.0  0.03185  0.23544  0.93596  1.0000
  C   C232      1.0  0.21389  0.44025  0.69399  1.0000
  H   H363      1.0  0.18019  0.09533  0.89378  1.0000
  H   H364      1.0  0.17850  0.03970  0.85189  1.0000
  H   H365      1.0  0.17060  0.19488  0.88968  1.0000
  H   H366      1.0  0.16452  0.04490  0.87407  1.0000
  S   S90       1.0  0.14916  0.45047  0.65741  1.0000
  N   N23       1.0  0.18740  0.02064  0.87650  1.0000
  H   H367      1.0  0.03088  0.15241  0.79549  1.0000
  H   H368      1.0  0.17872  0.06992  0.69896  1.0000
  H   H369      1.0  0.03727  0.13044  0.82540  1.0000
  H   H370      1.0  0.09888  0.37957  0.69005  1.0000
  H   H371      1.0  0.18603  0.39756  0.71829  1.0000
  C   C233      1.0  0.02847  0.26914  0.69632  1.0000
  S   S91       1.0  0.19880  0.39569  0.92382  1.0000
  H   H372      1.0  0.12782  0.20981  0.89626  1.0000
  H   H373      1.0  0.14594  0.17698  0.93782  1.0000
  H   H374      1.0  0.18273  0.40310  0.75162  1.0000
  C   C234      1.0  0.17894  0.37641  0.82554  1.0000
  H   H375      1.0  0.16374  0.38251  0.83052  1.0000
  H   H376      1.0  0.04869  0.25811  0.92691  1.0000
  C   C235      1.0  0.21371  0.38920  0.90288  1.0000
  Fe  Fe42      1.0  0.23462  0.09462  0.94065  1.0000
  S   S92       1.0  0.21508  0.34539  0.95460  1.0000
  C   C236      1.0  0.17356  0.99236  0.77426  1.0000
  H   H377      1.0  0.01935  0.24498  0.72880  1.0000
  H   H378      1.0  0.01730  0.14595  0.78027  1.0000
  H   H379      1.0  0.04604  0.11072  0.81278  1.0000
  H   H380      1.0  0.22248  0.37811  0.83546  1.0000
  C   C237      1.0  0.22168  0.07652  0.86759  1.0000
  H   H381      1.0  0.17099  0.19761  0.93181  1.0000
  H   H382      1.0  0.12767  0.22551  0.91245  1.0000
  H   H383      1.0  0.17445  0.07241  0.75032  1.0000
  N   N24       1.0  0.18690  0.08083  0.72106  1.0000
  C   C238      1.0  0.17595  0.00403  0.78668  1.0000
  H   H384      1.0  0.22962  0.40908  0.85678  1.0000
  C   C239      1.0  0.23135  0.39310  0.74118  1.0000
  C   C240      1.0  0.11335  0.41110  0.67142  1.0000
  H   H385      1.0  0.22355  0.36021  0.91575  1.0000
  H   H386      1.0  0.01099  0.21714  0.94902  1.0000
  H   H387      1.0  0.04370  0.23709  0.90610  1.0000
  N   N25       1.0  0.10147  0.40864  0.69058  1.0000
  H   H388      1.0  0.99042  0.17129  0.75954  1.0000
  H   H389      1.0  0.21642  0.06997  0.71099  1.0000
  C   C241      1.0  0.19070  0.09921  0.72425  1.0000
  H   H390      1.0  0.19738  0.37911  0.86444  1.0000
  H   H391      1.0  0.20177  0.05180  0.72078  1.0000
  C   C242      1.0  0.00547  0.24927  0.69586  1.0000
  C   C243      1.0  0.21515  0.40281  0.88596  1.0000
  H   H392      1.0  0.16166  0.02460  0.86441  1.0000
  H   H393      1.0  0.15217  0.18019  0.89534  1.0000
  H   H394      1.0  0.22753  0.45896  0.76970  1.0000
  H   H395      1.0  0.17202  0.21668  0.91145  1.0000
  C   C244      1.0  0.13720  0.18937  0.92980  1.0000
  H   H396      1.0  0.04395  0.23777  0.71892  1.0000
  H   H397      1.0  0.02588  0.27776  0.68219  1.0000
  H   H398      1.0  0.02665  0.22316  0.71890  1.0000
  H   H399      1.0  0.22494  0.43154  0.70240  1.0000
  C   C245      1.0  0.01391  0.23172  0.94898  1.0000
  H   H400      1.0  0.08044  0.39145  0.70633  1.0000
  S   S93       1.0  0.01775  0.27836  0.64376  1.0000
  C   C246      1.0  0.16213  0.20880  0.92267  1.0000
  Fe  Fe43      1.0  0.10196  0.27042  0.96076  1.0000
  H   H401      1.0  0.00135  0.24237  0.94479  1.0000
  H   H402      1.0  0.00264  0.11681  0.79034  1.0000
  H   H403      1.0  0.04342  0.26960  0.69777  1.0000
  H   H404      1.0  0.17074  0.02293  0.90428  1.0000
  H   H405      1.0  0.00242  0.25746  0.68168  1.0000
  H   H406      1.0  0.19397  0.04410  0.88685  1.0000
  H   H407      1.0  0.05399  0.23998  0.68393  1.0000
  N   N26       1.0  0.22259  0.44838  0.67453  1.0000
  H   H408      1.0  0.21723  0.26225  0.96622  1.0000
  H   H409      1.0  0.01824  0.24477  0.91105  1.0000
  H   H410      1.0  0.04632  0.20620  0.94151  1.0000
  C   C247      1.0  0.22808  0.39831  0.86953  1.0000
  C   C248      1.0  0.20728  0.45847  0.66347  1.0000
  C   C249      1.0  0.23435  0.07639  0.88012  1.0000
  C   C250      1.0  0.23477  0.46213  0.67574  1.0000
  H   H411      1.0  0.02607  0.10292  0.79213  1.0000
  H   H412      1.0  0.03638  0.25628  0.95123  1.0000
  C   C251      1.0  0.23243  0.29210  0.97001  1.0000
  C   C252      1.0  0.12812  0.30400  0.96772  1.0000
  C   C253      1.0  0.23440  0.43268  0.66494  1.0000
  H   H413      1.0  0.23604  0.28891  0.95522  1.0000
  H   H414      1.0  0.19214  0.15196  0.97037  1.0000
  H   H415      1.0  0.18193  0.18694  0.96936  1.0000
  H   H416      1.0  0.98658  0.34619  0.63896  1.0000
  C   C254      1.0  0.17121  0.17777  0.97180  1.0000
  H   H417      1.0  0.98688  0.76643  0.17293  1.0000
  H   H418      1.0  0.17397  0.96538  0.20721  1.0000
  H   H419      1.0  0.01399  0.89603  0.22317  1.0000
  H   H420      1.0  0.18306  0.75986  0.99815  1.0000
  H   H421      1.0  0.21193  0.57288  0.07787  1.0000
  H   H422      1.0  0.00416  0.78483  0.18714  1.0000
  H   H423      1.0  0.02948  0.85359  0.22317  1.0000
  C   C255      1.0  0.10680  0.74621  0.00636  1.0000
  H   H424      1.0  0.17586  0.91975  0.24109  1.0000
  Fe  Fe44      1.0  0.07470  0.49486  0.23818  1.0000
  S   S94       1.0  0.05717  0.52389  0.24286  1.0000
  C   C256      1.0  0.14918  0.80886  0.99160  1.0000
  N   N27       1.0  0.21386  0.51411  0.02704  1.0000
  H   H425      1.0  0.18263  0.49921  0.23638  1.0000
  H   H426      1.0  0.17099  0.88317  0.09958  1.0000
  H   H427      1.0  0.20680  0.90197  0.05547  1.0000
  Fe  Fe45      1.0  0.08072  0.93669  0.25182  1.0000
  H   H428      1.0  0.18428  0.51236  0.03890  1.0000
  S   S95       1.0  0.06541  0.91078  0.26087  1.0000
  Fe  Fe46      1.0  0.11552  0.95288  0.25612  1.0000
  H   H429      1.0  0.22516  0.53873  0.02966  1.0000
  S   S96       1.0  0.10651  0.49103  0.22773  1.0000
  S   S97       1.0  0.08589  0.95302  0.27338  1.0000
  S   S98       1.0  0.11095  0.93470  0.23608  1.0000
  Fe  Fe47      1.0  0.07338  0.60550  0.29515  1.0000
  C   C257      1.0  0.01884  0.89089  0.20923  1.0000
  H   H430      1.0  0.19454  0.51862  0.25476  1.0000
  Fe  Fe48      1.0  0.06946  0.64883  0.27902  1.0000
  S   S99       1.0  0.21391  0.53228  0.07899  1.0000
  S   S100      1.0  0.06398  0.67109  0.25283  1.0000
  N   N28       1.0  0.00858  0.69489  0.28923  1.0000
  C   C258      1.0  0.22965  0.70289  0.06621  1.0000
  H   H431      1.0  0.00684  0.84637  0.22413  1.0000
  S   S101      1.0  0.09478  0.62501  0.28175  1.0000
  S   S102      1.0  0.04808  0.62861  0.28955  1.0000
  Fe  Fe49      1.0  0.19447  0.83315  0.06379  1.0000
  S   S103      1.0  0.20340  0.80776  0.08558  1.0000
  S   S104      1.0  0.20316  0.86272  0.05744  1.0000
  Fe  Fe50      1.0  0.16891  0.81127  0.04965  1.0000
  S   S105      1.0  0.17498  0.78445  0.07119  1.0000
  S   S106      1.0  0.14995  0.81605  0.02712  1.0000
  Fe  Fe51      1.0  0.17216  0.80487  0.09180  1.0000
  S   S107      1.0  0.15897  0.80403  0.12290  1.0000
  Fe  Fe52      1.0  0.20552  0.78957  0.06317  1.0000
  H   H432      1.0  0.18025  0.94610  0.27774  1.0000
  S   S108      1.0  0.16320  0.83122  0.07101  1.0000
  S   S109      1.0  0.19950  0.81541  0.04062  1.0000
  Fe  Fe53      1.0  0.05814  0.82398  0.20894  1.0000
  S   S110      1.0  0.07772  0.79553  0.20757  1.0000
  S   S111      1.0  0.06926  0.85225  0.20455  1.0000
  Fe  Fe54      1.0  0.02289  0.80742  0.20670  1.0000
  S   S112      1.0  0.03950  0.77777  0.20489  1.0000
  C   C259      1.0  0.16818  0.92009  0.22913  1.0000
  Fe  Fe55      1.0  0.05397  0.78245  0.22777  1.0000
  S   S113      1.0  0.06133  0.75959  0.25291  1.0000
  Fe  Fe56      1.0  0.06208  0.79280  0.18479  1.0000
  S   S114      1.0  0.07725  0.78152  0.15789  1.0000
  S   S115      1.0  0.03567  0.81118  0.23135  1.0000
  S   S116      1.0  0.04417  0.82198  0.18450  1.0000
  C   C260      1.0  0.15619  0.80199  0.00889  1.0000
  C   C261      1.0  0.16813  0.78414  0.01129  1.0000
  C   C262      1.0  0.17357  0.77354  0.99626  1.0000
  H   H433      1.0  0.17321  0.77854  0.02474  1.0000
  H   H434      1.0  0.11026  0.75284  0.01757  1.0000
  C   C263      1.0  0.13565  0.79891  0.13143  1.0000
  C   C264      1.0  0.12691  0.78916  0.12168  1.0000
  C   C265      1.0  0.10876  0.78419  0.12970  1.0000
  C   C266      1.0  0.09913  0.78938  0.14721  1.0000
  C   C267      1.0  0.10764  0.79971  0.15657  1.0000
  C   C268      1.0  0.12596  0.80418  0.14886  1.0000
  H   H435      1.0  0.13432  0.78501  0.10824  1.0000
  H   H436      1.0  0.10223  0.77622  0.12237  1.0000
  H   H437      1.0  0.10028  0.80400  0.16993  1.0000
  H   H438      1.0  0.13266  0.81170  0.15648  1.0000
  H   H439      1.0  0.12008  0.96400  0.29629  1.0000
  C   C269      1.0  0.19643  0.51850  0.04117  1.0000
  H   H440      1.0  0.13462  0.96216  0.15179  1.0000
  H   H441      1.0  0.13983  0.82264  0.98974  1.0000
  H   H442      1.0  0.12431  0.77652  0.99191  1.0000
  C   C270      1.0  0.06333  0.69562  0.25307  1.0000
  C   C271      1.0  0.05609  0.70948  0.23848  1.0000
  C   C272      1.0  0.05508  0.72917  0.23844  1.0000
  C   C273      1.0  0.06152  0.73511  0.25287  1.0000
  C   C274      1.0  0.06869  0.72125  0.26748  1.0000
  C   C275      1.0  0.06961  0.70157  0.26759  1.0000
  H   H443      1.0  0.05114  0.70498  0.22724  1.0000
  H   H444      1.0  0.04937  0.73972  0.22723  1.0000
  H   H445      1.0  0.07376  0.72574  0.27866  1.0000
  H   H446      1.0  0.07544  0.69104  0.27876  1.0000
  H   H447      1.0  0.21835  0.77149  0.00184  1.0000
  H   H448      1.0  0.02104  0.66558  0.29828  1.0000
  Fe  Fe57      1.0  0.10020  0.96257  0.21834  1.0000
  N   N29       1.0  0.17339  0.93505  0.21268  1.0000
  C   C276      1.0  0.21426  0.87525  0.10611  1.0000
  C   C277      1.0  0.21408  0.73564  0.06980  1.0000
  H   H449      1.0  0.16644  0.94605  0.18466  1.0000
  H   H450      1.0  0.20189  0.74538  0.07563  1.0000
  H   H451      1.0  0.20138  0.71028  0.08211  1.0000
  C   C278      1.0  0.06859  0.86774  0.22087  1.0000
  C   C279      1.0  0.07675  0.88449  0.21413  1.0000
  C   C280      1.0  0.07601  0.89768  0.22625  1.0000
  C   C281      1.0  0.06695  0.89431  0.24528  1.0000
  C   C282      1.0  0.05868  0.87760  0.25202  1.0000
  C   C283      1.0  0.05955  0.86431  0.23992  1.0000
  H   H452      1.0  0.08370  0.88732  0.19940  1.0000
  H   H453      1.0  0.08237  0.91050  0.22086  1.0000
  H   H454      1.0  0.05170  0.87487  0.26675  1.0000
  H   H455      1.0  0.05331  0.85143  0.24536  1.0000
  H   H456      1.0  0.20359  0.79080  0.01268  1.0000
  C   C284      1.0  0.20890  0.89444  0.06962  1.0000
  H   H457      1.0  0.09213  0.75322  0.00369  1.0000
  H   H458      1.0  0.03295  0.86326  0.18815  1.0000
  H   H459      1.0  0.20672  0.82473  0.99852  1.0000
  S   S117      1.0  0.10808  0.96796  0.18624  1.0000
  Fe  Fe58      1.0  0.22219  0.93873  0.11350  1.0000
  H   H460      1.0  0.11598  0.72369  0.97922  1.0000
  H   H461      1.0  0.23319  0.48906  0.01876  1.0000
  H   H462      1.0  0.14495  0.74615  0.00308  1.0000
  S   S118      1.0  0.23138  0.76760  0.05428  1.0000
  C   C285      1.0  0.06479  0.53789  0.25635  1.0000
  C   C286      1.0  0.05723  0.55760  0.25497  1.0000
  C   C287      1.0  0.06249  0.56893  0.26613  1.0000
  C   C288      1.0  0.07498  0.56045  0.27909  1.0000
  C   C289      1.0  0.08254  0.54077  0.28045  1.0000
  C   C290      1.0  0.07762  0.52957  0.26901  1.0000
  H   H463      1.0  0.04735  0.56412  0.24513  1.0000
  H   H464      1.0  0.05668  0.58409  0.26487  1.0000
  C   C291      1.0  0.16699  0.78064  0.97880  1.0000
  H   H465      1.0  0.08347  0.51441  0.27023  1.0000
  C   C292      1.0  0.21992  0.49305  0.02899  1.0000
  C   C293      1.0  0.14033  0.73910  0.99285  1.0000
  C   C294      1.0  0.98982  0.69308  0.30157  1.0000
  C   C295      1.0  0.23015  0.74282  0.05875  1.0000
  H   H466      1.0  0.00284  0.59463  0.29739  1.0000
  H   H467      1.0  0.14661  0.93933  0.20234  1.0000
  S   S119      1.0  0.14493  0.94635  0.26522  1.0000
  C   C296      1.0  0.20875  0.80095  0.97428  1.0000
  S   S120      1.0  0.99101  0.81760  0.20677  1.0000
  H   H468      1.0  0.19387  0.80631  0.98104  1.0000
  H   H469      1.0  0.03473  0.88662  0.20756  1.0000
  H   H470      1.0  0.10628  0.73078  0.01234  1.0000
  N   N30       1.0  0.15351  0.86338  0.11757  1.0000
  C   C297      1.0  0.14705  0.87571  0.13239  1.0000
  C   C298      1.0  0.16998  0.84868  0.12272  1.0000
  C   C299      1.0  0.15941  0.87531  0.09894  1.0000
  C   C300      1.0  0.13763  0.85381  0.11630  1.0000
  H   H471      1.0  0.13459  0.88694  0.12898  1.0000
  H   H472      1.0  0.15869  0.88320  0.13369  1.0000
  H   H473      1.0  0.14258  0.86713  0.14664  1.0000
  H   H474      1.0  0.17577  0.83965  0.11140  1.0000
  H   H475      1.0  0.18188  0.85532  0.12472  1.0000
  H   H476      1.0  0.16582  0.83873  0.13618  1.0000
  H   H477      1.0  0.16507  0.86640  0.08751  1.0000
  C   C301      1.0  0.22940  0.52289  0.03047  1.0000
  H   H478      1.0  0.14723  0.88618  0.09424  1.0000
  H   H479      1.0  0.14210  0.84411  0.10552  1.0000
  H   H480      1.0  0.12499  0.86439  0.11224  1.0000
  H   H481      1.0  0.13285  0.84470  0.13013  1.0000
  H   H482      1.0  0.15259  0.92290  0.23497  1.0000
  H   H483      1.0  0.19843  0.94185  0.19269  1.0000
  C   C302      1.0  0.02368  0.68041  0.29742  1.0000
  C   C303      1.0  0.21490  0.89505  0.10128  1.0000
  C   C304      1.0  0.21384  0.71574  0.07349  1.0000
  H   H484      1.0  0.09220  0.53411  0.29047  1.0000
  H   H485      1.0  0.01068  0.85528  0.18908  1.0000
  C   C305      1.0  0.16893  0.95399  0.21886  1.0000
  C   C306      1.0  0.01294  0.71431  0.28803  1.0000
  H   H486      1.0  0.15133  0.73997  0.97964  1.0000
  H   H487      1.0  0.00482  0.67704  0.27033  1.0000
  H   H488      1.0  0.02650  0.56670  0.28831  1.0000
  N   N31       1.0  0.10392  0.73670  0.19577  1.0000
  C   C307      1.0  0.11355  0.75248  0.18407  1.0000
  C   C308      1.0  0.11508  0.71806  0.19150  1.0000
  C   C309      1.0  0.08446  0.73894  0.19120  1.0000
  C   C310      1.0  0.10254  0.73734  0.21625  1.0000
  H   H489      1.0  0.10545  0.76673  0.18696  1.0000
  H   H490      1.0  0.11457  0.75263  0.16851  1.0000
  H   H491      1.0  0.12832  0.75134  0.18698  1.0000
  H   H492      1.0  0.10814  0.70585  0.20007  1.0000
  H   H493      1.0  0.11633  0.71717  0.17613  1.0000
  H   H494      1.0  0.12985  0.71589  0.19478  1.0000
  H   H495      1.0  0.07681  0.72716  0.19951  1.0000
  H   H496      1.0  0.08488  0.73909  0.17573  1.0000
  H   H497      1.0  0.07562  0.75276  0.19447  1.0000
  H   H498      1.0  0.09585  0.72529  0.22550  1.0000
  H   H499      1.0  0.09360  0.75096  0.22012  1.0000
  H   H500      1.0  0.11689  0.73636  0.22013  1.0000
  H   H501      1.0  0.20288  0.93052  0.21626  1.0000
  C   C311      1.0  0.12110  0.76907  0.98119  1.0000
  C   C312      1.0  0.16233  0.93538  0.19750  1.0000
  H   H502      1.0  0.01373  0.71712  0.30236  1.0000
  H   H503      1.0  0.19800  0.51564  0.00450  1.0000
  S   S121      1.0  0.22919  0.67794  0.07177  1.0000
  C   C313      1.0  0.22155  0.81906  0.99183  1.0000
  H   H504      1.0  0.10702  0.77647  0.97719  1.0000
  S   S122      1.0  0.08072  0.57343  0.29476  1.0000
  H   H505      1.0  0.00183  0.72568  0.28196  1.0000
  H   H506      1.0  0.14073  0.72362  0.99907  1.0000
  C   C314      1.0  0.13065  0.97475  0.17712  1.0000
  H   H507      1.0  0.00865  0.86342  0.23839  1.0000
  H   H508      1.0  0.03710  0.59094  0.30154  1.0000
  H   H509      1.0  0.15527  0.49015  0.27301  1.0000
  C   C315      1.0  0.21808  0.78609  0.00480  1.0000
  N   N32       1.0  0.00956  0.87464  0.20840  1.0000
  H   H510      1.0  0.01573  0.90324  0.19767  1.0000
  C   C316      1.0  0.18684  0.48630  0.24700  1.0000
  C   C317      1.0  0.19412  0.93078  0.20519  1.0000
  H   H511      1.0  0.19902  0.51252  0.05601  1.0000
  H   H512      1.0  0.21353  0.49902  0.26022  1.0000
  H   H513      1.0  0.16484  0.92117  0.19288  1.0000
  S   S123      1.0  0.22884  0.94737  0.13921  1.0000
  C   C318      1.0  0.14963  0.95438  0.28506  1.0000
  H   H514      1.0  0.15321  0.95834  0.22335  1.0000
  H   H515      1.0  0.21058  0.84985  0.09658  1.0000
  H   H516      1.0  0.19174  0.53428  0.04054  1.0000
  C   C319      1.0  0.20803  0.87470  0.07450  1.0000
  H   H517      1.0  0.19750  0.50920  0.27914  1.0000
  H   H518      1.0  0.17148  0.90556  0.22512  1.0000
  H   H519      1.0  0.17585  0.95386  0.23129  1.0000
  H   H520      1.0  0.19801  0.91661  0.20033  1.0000
  S   S124      1.0  0.20080  0.96569  0.10759  1.0000
  N   N33       1.0  0.12106  0.74841  0.98866  1.0000
  C   C320      1.0  0.16872  0.95230  0.28786  1.0000
  S   S125      1.0  0.06942  0.96336  0.23245  1.0000
  C   C321      1.0  0.21230  0.90459  0.08293  1.0000
  C   C322      1.0  0.01378  0.85882  0.22424  1.0000
  C   C323      1.0  0.19826  0.50519  0.26493  1.0000
  H   H521      1.0  0.21645  0.86772  0.12021  1.0000
  C   C324      1.0  0.21087  0.86510  0.09278  1.0000
  C   C325      1.0  0.01708  0.86784  0.19000  1.0000
  N   N34       1.0  0.18540  0.49130  0.26607  1.0000
  H   H522      1.0  0.20506  0.53786  0.00563  1.0000
  H   H523      1.0  0.21280  0.91982  0.07901  1.0000
  Fe  Fe59      1.0  0.22595  0.97855  0.08933  1.0000
  C   C326      1.0  0.00800  0.69162  0.26990  1.0000
  S   S126      1.0  0.21904  0.90713  0.11864  1.0000
  Fe  Fe60      1.0  0.22270  0.50005  0.08701  1.0000
  C   C327      1.0  0.14082  0.96987  0.15968  1.0000
  C   C328      1.0  0.20967  0.52198  0.00756  1.0000
  H   H524      1.0  0.02206  0.69262  0.26033  1.0000
  H   H525      1.0  0.16082  0.51362  0.26324  1.0000
  H   H526      1.0  0.12126  0.56993  0.30405  1.0000
  H   H527      1.0  0.03801  0.68147  0.28854  1.0000
  C   C329      1.0  0.11605  0.73932  0.97423  1.0000
  H   H528      1.0  0.10721  0.48329  0.28093  1.0000
  H   H529      1.0  0.23306  0.51708  0.04495  1.0000
  N   N35       1.0  0.22266  0.79983  0.98707  1.0000
  H   H530      1.0  0.22842  0.78471  0.01473  1.0000
  H   H531      1.0  0.16733  0.97006  0.13957  1.0000
  H   H532      1.0  0.22253  0.51888  0.99655  1.0000
  C   C330      1.0  0.15464  0.79826  0.97652  1.0000
  Fe  Fe61      1.0  0.20982  0.97531  0.13149  1.0000
  C   C331      1.0  0.16541  0.49996  0.27274  1.0000
  S   S127      1.0  0.22919  0.48764  0.11645  1.0000
  H   H533      1.0  0.20863  0.48582  0.02649  1.0000
  H   H534      1.0  0.02699  0.71612  0.27874  1.0000
  C   C332      1.0  0.15931  0.97435  0.15273  1.0000
  H   H535      1.0  0.16356  0.50312  0.28749  1.0000
  H   H536      1.0  0.01394  0.87928  0.17767  1.0000
  S   S128      1.0  0.22909  0.48302  0.29664  1.0000
  H   H537      1.0  0.22308  0.48665  0.04355  1.0000
  C   C333      1.0  0.98858  0.88087  0.21013  1.0000
  H   H538      1.0  0.22554  0.82968  0.97888  1.0000
  H   H539      1.0  0.99688  0.70236  0.26316  1.0000
  C   C334      1.0  0.22688  0.56662  0.07447  1.0000
  C   C335      1.0  0.13483  0.96236  0.29825  1.0000
  H   H540      1.0  0.23125  0.81865  0.00212  1.0000
  H   H541      1.0  0.13470  0.49031  0.13915  1.0000
  Fe  Fe62      1.0  0.07699  0.97966  0.25243  1.0000
  C   C336      1.0  0.23194  0.54682  0.07406  1.0000
  C   C337      1.0  0.17300  0.95823  0.30365  1.0000
  C   C338      1.0  0.12093  0.48696  0.30352  1.0000
  C   C339      1.0  0.98881  0.78874  0.18784  1.0000
  H   H542      1.0  0.15559  0.57017  0.30479  1.0000
  C   C340      1.0  0.02400  0.55895  0.30329  1.0000
  H   H543      1.0  0.01343  0.54942  0.30403  1.0000
  S   S129      1.0  0.21778  0.65043  0.40207  1.0000
  Fe  Fe63      1.0  0.18921  0.51694  0.35083  1.0000
  S   S130      1.0  0.17814  0.54603  0.35976  1.0000
  S   S131      1.0  0.18533  0.51131  0.32273  1.0000
  S   S132      1.0  0.07204  0.61084  0.32490  1.0000
  Fe  Fe64      1.0  0.21086  0.48781  0.32516  1.0000
  S   S133      1.0  0.23055  0.68523  0.56813  1.0000
  H   H544      1.0  0.21936  0.54742  0.35368  1.0000
  N   N36       1.0  0.20287  0.70919  0.44239  1.0000
  H   H545      1.0  0.11737  0.71409  0.35867  1.0000
  Fe  Fe65      1.0  0.02182  0.72788  0.60901  1.0000
  H   H546      1.0  0.22985  0.91333  0.34811  1.0000
  S   S134      1.0  0.04861  0.71433  0.59104  1.0000
  C   C341      1.0  0.12792  0.57421  0.34803  1.0000
  C   C342      1.0  0.11777  0.57488  0.31811  1.0000
  Fe  Fe66      1.0  0.19264  0.64647  0.42564  1.0000
  C   C343      1.0  0.15519  0.63430  0.54193  1.0000
  S   S135      1.0  0.19973  0.63929  0.45558  1.0000
  Fe  Fe67      1.0  0.16480  0.65273  0.39749  1.0000
  H   H547      1.0  0.18075  0.49510  0.40707  1.0000
  S   S136      1.0  0.13394  0.65624  0.39348  1.0000
  H   H548      1.0  0.13951  0.56903  0.35684  1.0000
  H   H549      1.0  0.03786  0.54962  0.30599  1.0000
  H   H550      1.0  0.09459  0.64843  0.34858  1.0000
  S   S137      1.0  0.18156  0.62617  0.41242  1.0000
  S   S138      1.0  0.17349  0.67260  0.41322  1.0000
  Fe  Fe68      1.0  0.19927  0.68203  0.57198  1.0000
  S   S139      1.0  0.19480  0.66078  0.55499  1.0000
  C   C344      1.0  0.17876  0.51027  0.40931  1.0000
  Fe  Fe69      1.0  0.15668  0.68993  0.58870  1.0000
  S   S140      1.0  0.14934  0.66991  0.57265  1.0000
  S   S141      1.0  0.13269  0.70225  0.61044  1.0000
  Fe  Fe70      1.0  0.17527  0.64996  0.58140  1.0000
  S   S142      1.0  0.17019  0.61945  0.59179  1.0000
  Fe  Fe71      1.0  0.16939  0.68261  0.54769  1.0000
  S   S143      1.0  0.15981  0.69013  0.51880  1.0000
  S   S144      1.0  0.18169  0.66912  0.59915  1.0000
  S   S145      1.0  0.17479  0.70472  0.56297  1.0000
  C   C345      1.0  0.18097  0.60709  0.61149  1.0000
  C   C346      1.0  0.19725  0.61232  0.61530  1.0000
  H   H551      1.0  0.00105  0.55328  0.33759  1.0000
  C   C347      1.0  0.15816  0.96605  0.31693  1.0000
  H   H552      1.0  0.06716  0.74909  0.57678  1.0000
  S   S146      1.0  0.19556  0.97004  0.37388  1.0000
  H   H553      1.0  0.20357  0.62395  0.60593  1.0000
  H   H554      1.0  0.15191  0.69020  0.37588  1.0000
  H   H555      1.0  0.98999  0.69467  0.31649  1.0000
  C   C348      1.0  0.17115  0.67621  0.50113  1.0000
  C   C349      1.0  0.16226  0.67701  0.48540  1.0000
  C   C350      1.0  0.17096  0.66587  0.47119  1.0000
  C   C351      1.0  0.18859  0.65387  0.47270  1.0000
  C   C352      1.0  0.19755  0.65319  0.48833  1.0000
  C   C353      1.0  0.18891  0.66442  0.50245  1.0000
  H   H556      1.0  0.14849  0.68612  0.48433  1.0000
  H   H557      1.0  0.16389  0.66632  0.45925  1.0000
  H   H558      1.0  0.21130  0.64404  0.48945  1.0000
  H   H559      1.0  0.19613  0.66415  0.51420  1.0000
  C   C354      1.0  0.15411  0.70268  0.36424  1.0000
  H   H560      1.0  0.20830  0.73808  0.43896  1.0000
  C   C355      1.0  0.12385  0.63455  0.34181  1.0000
  C   C356      1.0  0.14195  0.62990  0.34744  1.0000
  C   C357      1.0  0.14494  0.63582  0.36373  1.0000
  C   C358      1.0  0.12989  0.64660  0.37442  1.0000
  C   C359      1.0  0.11165  0.65088  0.36906  1.0000
  C   C360      1.0  0.10861  0.64487  0.35278  1.0000
  H   H561      1.0  0.15379  0.62183  0.33908  1.0000
  H   H562      1.0  0.15902  0.63238  0.36776  1.0000
  H   H563      1.0  0.09991  0.65913  0.37735  1.0000
  C   C361      1.0  0.15577  0.68385  0.33984  1.0000
  C   C362      1.0  0.13700  0.54627  0.33256  1.0000
  H   H564      1.0  0.14965  0.68201  0.32754  1.0000
  H   H565      1.0  0.14861  0.54019  0.34119  1.0000
  S   S147      1.0  0.22335  0.60743  0.37381  1.0000
  H   H566      1.0  0.21186  0.71796  0.58701  1.0000
  C   C363      1.0  0.07177  0.70966  0.59727  1.0000
  C   C364      1.0  0.07465  0.70890  0.61597  1.0000
  C   C365      1.0  0.09338  0.70653  0.61994  1.0000
  C   C366      1.0  0.10934  0.70449  0.60536  1.0000
  C   C367      1.0  0.10644  0.70484  0.58680  1.0000
  C   C368      1.0  0.08775  0.70737  0.58280  1.0000
  H   H567      1.0  0.22314  0.69917  0.46177  1.0000
  C   C369      1.0  0.22719  0.71778  0.58415  1.0000
  H   H568      1.0  0.11857  0.70359  0.57538  1.0000
  H   H569      1.0  0.08568  0.70786  0.56833  1.0000
  S   S148      1.0  0.18777  0.65730  0.37202  1.0000
  C   C370      1.0  0.17298  0.59189  0.62362  1.0000
  H   H570      1.0  0.20020  0.69191  0.47032  1.0000
  H   H571      1.0  0.14013  0.63500  0.54009  1.0000
  H   H572      1.0  0.07412  0.77130  0.56383  1.0000
  C   C371      1.0  0.20354  0.50247  0.42887  1.0000
  Fe  Fe72      1.0  0.16823  0.48907  0.33958  1.0000
  H   H573      1.0  0.11874  0.69935  0.34099  1.0000
  C   C372      1.0  0.20939  0.69243  0.43250  1.0000
  H   H574      1.0  0.02446  0.68212  0.31216  1.0000
  H   H575      1.0  0.12397  0.54027  0.34029  1.0000
  H   H576      1.0  0.14174  0.73202  0.33774  1.0000
  C   C373      1.0  0.19133  0.56287  0.36300  1.0000
  H   H577      1.0  0.16312  0.56964  0.32708  1.0000
  C   C374      1.0  0.19091  0.59300  0.37352  1.0000
  C   C375      1.0  0.18116  0.57939  0.37009  1.0000
  H   H578      1.0  0.18292  0.60565  0.37901  1.0000
  H   H579      1.0  0.16565  0.58172  0.37303  1.0000
  H   H580      1.0  0.17673  0.60423  0.51048  1.0000
  C   C376      1.0  0.21139  0.56004  0.35926  1.0000
  H   H581      1.0  0.17078  0.62991  0.50628  1.0000
  Fe  Fe73      1.0  0.19788  0.67533  0.38870  1.0000
  H   H582      1.0  0.18897  0.61767  0.55274  1.0000
  H   H583      1.0  0.00983  0.62903  0.30931  1.0000
  H   H584      1.0  0.17640  0.72761  0.45085  1.0000
  S   S149      1.0  0.00795  0.75731  0.59627  1.0000
  H   H585      1.0  0.06715  0.79415  0.60699  1.0000
  H   H586      1.0  0.16983  0.70275  0.36052  1.0000
  C   C377      1.0  0.23483  0.73233  0.58892  1.0000
  N   N37       1.0  0.13343  0.56753  0.32941  1.0000
  H   H587      1.0  0.00791  0.57151  0.34718  1.0000
  C   C378      1.0  0.18192  0.71514  0.44328  1.0000
  H   H588      1.0  0.17409  0.70328  0.45099  1.0000
  C   C379      1.0  0.18777  0.61724  0.53776  1.0000
  H   H589      1.0  0.05718  0.76390  0.62455  1.0000
  H   H590      1.0  0.17422  0.92669  0.33877  1.0000
  H   H591      1.0  0.22528  0.74366  0.59551  1.0000
  H   H592      1.0  0.23141  0.88040  0.34155  1.0000
  H   H593      1.0  0.14262  0.62473  0.63208  1.0000
  H   H594      1.0  0.16043  0.58775  0.62067  1.0000
  H   H595      1.0  0.09156  0.76417  0.61026  1.0000
  H   H596      1.0  0.19314  0.63005  0.52863  1.0000
  C   C380      1.0  0.21093  0.59032  0.36973  1.0000
  Fe  Fe74      1.0  0.20524  0.63192  0.38785  1.0000
  S   S150      1.0  0.22035  0.95763  0.33291  1.0000
  H   H597      1.0  0.20717  0.53983  0.41597  1.0000
  Fe  Fe75      1.0  0.04862  0.63553  0.31813  1.0000
  H   H598      1.0  0.15080  0.64641  0.61946  1.0000
  S   S151      1.0  0.99408  0.71608  0.61627  1.0000
  C   C381      1.0  0.08843  0.76151  0.59670  1.0000
  S   S152      1.0  0.21645  0.49542  0.35194  1.0000
  H   H599      1.0  0.18281  0.53815  0.42721  1.0000
  H   H600      1.0  0.20270  0.67986  0.44039  1.0000
  S   S153      1.0  0.20219  0.70599  0.37587  1.0000
  H   H601      1.0  0.04932  0.79652  0.59239  1.0000
  H   H602      1.0  0.20799  0.74515  0.37018  1.0000
  C   C382      1.0  0.22073  0.71613  0.38059  1.0000
  H   H603      1.0  0.07387  0.79770  0.58137  1.0000
  C   C383      1.0  0.19370  0.53547  0.41440  1.0000
  H   H604      1.0  0.21844  0.60605  0.63386  1.0000
  H   H605      1.0  0.14133  0.54069  0.31884  1.0000
  H   H606      1.0  0.14872  0.59086  0.31644  1.0000
  N   N38       1.0  0.17296  0.91711  0.36906  1.0000
  C   C384      1.0  0.15798  0.93344  0.37400  1.0000
  C   C385      1.0  0.18377  0.92265  0.34978  1.0000
  C   C386      1.0  0.16391  0.90042  0.36924  1.0000
  C   C387      1.0  0.18619  0.91197  0.38314  1.0000
  H   H607      1.0  0.14920  0.92975  0.38827  1.0000
  H   H608      1.0  0.14812  0.93815  0.36328  1.0000
  H   H609      1.0  0.16439  0.94617  0.37427  1.0000
  H   H610      1.0  0.15426  0.67089  0.35094  1.0000
  N   N39       1.0  0.16780  0.61696  0.53593  1.0000
  H   H611      1.0  0.19053  0.93535  0.34912  1.0000
  H   H612      1.0  0.15381  0.90389  0.35878  1.0000
  H   H613      1.0  0.15571  0.89576  0.38360  1.0000
  H   H614      1.0  0.17488  0.88791  0.36542  1.0000
  H   H615      1.0  0.19718  0.89916  0.38036  1.0000
  H   H616      1.0  0.17844  0.90857  0.39797  1.0000
  H   H617      1.0  0.19403  0.92392  0.38269  1.0000
  N   N40       1.0  0.06830  0.76933  0.59440  1.0000
  C   C388      1.0  0.99911  0.64486  0.33246  1.0000
  H   H618      1.0  0.11114  0.49995  0.30632  1.0000
  C   C389      1.0  0.14895  0.71845  0.33252  1.0000
  C   C390      1.0  0.03234  0.58377  0.31636  1.0000
  C   C391      1.0  0.21158  0.51234  0.39485  1.0000
  H   H619      1.0  0.02737  0.59506  0.32554  1.0000
  H   H620      1.0  0.18773  0.95659  0.30564  1.0000
  H   H621      1.0  0.17804  0.71928  0.42870  1.0000
  H   H622      1.0  0.21728  0.50565  0.43116  1.0000
  N   N41       1.0  0.01719  0.57251  0.31697  1.0000
  H   H623      1.0  0.19280  0.50416  0.44203  1.0000
  H   H624      1.0  0.04947  0.77036  0.57455  1.0000
  C   C392      1.0  0.21268  0.72526  0.43180  1.0000
  C   C393      1.0  0.05537  0.76052  0.61078  1.0000
  C   C394      1.0  0.99732  0.63653  0.31726  1.0000
  H   H625      1.0  0.20683  0.52135  0.38170  1.0000
  H   H626      1.0  0.23094  0.74460  0.52851  1.0000
  C   C395      1.0  0.15101  0.57484  0.31893  1.0000
  H   H627      1.0  0.02548  0.55138  0.34071  1.0000
  H   H628      1.0  0.22536  0.51630  0.39603  1.0000
  C   C396      1.0  0.21974  0.73619  0.37662  1.0000
  H   H629      1.0  0.20268  0.71617  0.46991  1.0000
  H   H630      1.0  0.21458  0.49707  0.39274  1.0000
  H   H631      1.0  0.22821  0.77566  0.53992  1.0000
  S   S154      1.0  0.02169  0.64355  0.33887  1.0000
  H   H632      1.0  0.16006  0.64770  0.53353  1.0000
  C   C397      1.0  0.13909  0.96801  0.31419  1.0000
  N   N42       1.0  0.14600  0.70148  0.34743  1.0000
  H   H633      1.0  0.14735  0.71593  0.37024  1.0000
  C   C398      1.0  0.99977  0.58568  0.31176  1.0000
  H   H634      1.0  0.09866  0.76799  0.58469  1.0000
  H   H635      1.0  0.09163  0.74567  0.59707  1.0000
  Fe  Fe76      1.0  0.22465  0.95403  0.36341  1.0000
  H   H636      1.0  0.18847  0.54531  0.40184  1.0000
  C   C399      1.0  0.22115  0.57379  0.36258  1.0000
  C   C400      1.0  0.16680  0.61666  0.51583  1.0000
  H   H637      1.0  0.09550  0.70627  0.63435  1.0000
  C   C401      1.0  0.12526  0.70088  0.35315  1.0000
  H   H638      1.0  0.17142  0.68389  0.33511  1.0000
  H   H639      1.0  0.98822  0.57766  0.31142  1.0000
  H   H640      1.0  0.19768  0.60430  0.53350  1.0000
  C   C402      1.0  0.20745  0.70392  0.46194  1.0000
  C   C403      1.0  0.01269  0.56168  0.33648  1.0000
  S   S155      1.0  0.13911  0.49270  0.33105  1.0000
  H   H641      1.0  0.16737  0.51200  0.42196  1.0000
  H   H642      1.0  0.12512  0.59021  0.34612  1.0000
  H   H643      1.0  0.11470  0.56903  0.35636  1.0000
  H   H644      1.0  0.14311  0.71791  0.31958  1.0000
  H   H645      1.0  0.12260  0.68847  0.36471  1.0000
  S   S156      1.0  0.12116  0.62766  0.32068  1.0000
  H   H646      1.0  0.20598  0.48705  0.42726  1.0000
  H   H647      1.0  0.05768  0.74472  0.61196  1.0000
  H   H648      1.0  0.04529  0.57443  0.32133  1.0000
  H   H649      1.0  0.15502  0.63456  0.55723  1.0000
  S   S157      1.0  0.17029  0.49615  0.36765  1.0000
  C   C404      1.0  0.06458  0.79037  0.59368  1.0000
  C   C405      1.0  0.06463  0.76489  0.57657  1.0000
  N   N43       1.0  0.19689  0.51516  0.41188  1.0000
  Fe  Fe77      1.0  0.00489  0.76410  0.62590  1.0000
  S   S158      1.0  0.01498  0.79108  0.62927  1.0000
  H   H650      1.0  0.19535  0.91079  0.34558  1.0000
  H   H651      1.0  0.11487  0.59086  0.31518  1.0000
  H   H652      1.0  0.16221  0.59939  0.56353  1.0000
  H   H653      1.0  0.10415  0.56995  0.32569  1.0000
  H   H654      1.0  0.17050  0.58627  0.54409  1.0000
  H   H655      1.0  0.06244  0.71033  0.62731  1.0000
  H   H656      1.0  0.17326  0.51967  0.39667  1.0000
  C   C406      1.0  0.20567  0.60217  0.63109  1.0000
  H   H657      1.0  0.20552  0.69567  0.41795  1.0000
  H   H658      1.0  0.20930  0.72977  0.41707  1.0000
  H   H659      1.0  0.99387  0.59569  0.32217  1.0000
  H   H660      1.0  0.22522  0.68782  0.43097  1.0000
  H   H661      1.0  0.16449  0.71933  0.32803  1.0000
  H   H662      1.0  0.22856  0.72120  0.43049  1.0000
  H   H663      1.0  0.04017  0.76572  0.60915  1.0000
  Fe  Fe78      1.0  0.09239  0.63131  0.31132  1.0000
  H   H664      1.0  0.23257  0.76026  0.37854  1.0000
  C   C407      1.0  0.23364  0.74479  0.38135  1.0000
  H   H665      1.0  0.15363  0.67143  0.63729  1.0000
  H   H666      1.0  0.12752  0.97402  0.32441  1.0000
  H   H667      1.0  0.14627  0.59909  0.54757  1.0000
  S   S159      1.0  0.06890  0.65679  0.30747  1.0000
  S   S160      1.0  0.16264  0.97262  0.33766  1.0000
  H   H668      1.0  0.15206  0.61584  0.51404  1.0000
  Fe  Fe79      1.0  0.19192  0.97507  0.34304  1.0000
  C   C408      1.0  0.16140  0.59964  0.54828  1.0000
  C   C409      1.0  0.23359  0.90090  0.35867  1.0000
  C   C410      1.0  0.23450  0.88226  0.35498  1.0000
  S   S161      1.0  0.02015  0.73514  0.63801  1.0000
  S   S162      1.0  0.23550  0.92633  0.38198  1.0000
  H   H669      1.0  0.12623  0.64723  0.63050  1.0000
  C   C411      1.0  0.14115  0.64036  0.63230  1.0000
  C   C412      1.0  0.23606  0.70467  0.38879  1.0000
  Fe  Fe80      1.0  0.01657  0.58342  0.75748  1.0000
  H   H670      1.0  0.14712  0.66787  0.66282  1.0000
  S   S163      1.0  0.04458  0.56543  0.76463  1.0000
  S   S164      1.0  0.01119  0.61547  0.74879  1.0000
  C   C413      1.0  0.05703  0.56799  0.70603  1.0000
  S   S165      1.0  0.01548  0.69133  0.88094  1.0000
  N   N44       1.0  0.02911  0.59727  0.81200  1.0000
  S   S166      1.0  0.01844  0.72604  0.84461  1.0000
  H   H671      1.0  0.00894  0.95417  0.73729  1.0000
  Fe  Fe81      1.0  0.00725  0.69821  0.85159  1.0000
  S   S167      1.0  0.01766  0.68106  0.82718  1.0000
  Fe  Fe82      1.0  0.02486  0.72038  0.87451  1.0000
  S   S168      1.0  0.05506  0.72677  0.87234  1.0000
  H   H672      1.0  0.00790  0.64764  0.77830  1.0000
  S   S169      1.0  0.01046  0.87344  0.71404  1.0000
  Fe  Fe83      1.0  0.02117  0.83712  0.75990  1.0000
  S   S170      1.0  0.03821  0.83373  0.73092  1.0000
  S   S171      1.0  0.03033  0.81670  0.78571  1.0000
  Fe  Fe84      1.0  0.03764  0.86567  0.72712  1.0000
  S   S172      1.0  0.06293  0.88172  0.71603  1.0000
  Fe  Fe85      1.0  0.00964  0.84152  0.72071  1.0000
  S   S173      1.0  0.00096  0.62161  0.69677  1.0000
  Fe  Fe86      1.0  0.18688  0.54994  0.73171  1.0000
  S   S174      1.0  0.20153  0.53440  0.70767  1.0000
  S   S175      1.0  0.20171  0.54474  0.75754  1.0000
  Fe  Fe87      1.0  0.15041  0.56455  0.71352  1.0000
  S   S176      1.0  0.16243  0.54939  0.68832  1.0000
  S   S177      1.0  0.12245  0.58573  0.71348  1.0000
  Fe  Fe88      1.0  0.17346  0.52459  0.71000  1.0000
  S   S178      1.0  0.17549  0.49227  0.71410  1.0000
  Fe  Fe89      1.0  0.18928  0.56057  0.68845  1.0000
  H   H673      1.0  0.23271  0.88517  0.75415  1.0000
  S   S179      1.0  0.15917  0.53884  0.73526  1.0000
  S   S180      1.0  0.17685  0.57710  0.71239  1.0000
  Fe  Fe90      1.0  0.16820  0.92702  0.77210  1.0000
  S   S181      1.0  0.19632  0.90735  0.77440  1.0000
  S   S182      1.0  0.16785  0.95925  0.76488  1.0000
  Fe  Fe91      1.0  0.14734  0.89402  0.77088  1.0000
  S   S183      1.0  0.17427  0.87218  0.77272  1.0000
  S   S184      1.0  0.12068  0.88094  0.77233  1.0000
  Fe  Fe92      1.0  0.17868  0.88725  0.79517  1.0000
  S   S185      1.0  0.18985  0.86976  0.82149  1.0000
  Fe  Fe93      1.0  0.18942  0.89401  0.75189  1.0000
  S   S186      1.0  0.20956  0.88770  0.72486  1.0000
  S   S187      1.0  0.15088  0.90803  0.79485  1.0000
  S   S188      1.0  0.16220  0.91476  0.74813  1.0000
  Fe  Fe94      1.0  0.13267  0.75392  0.91858  1.0000
  S   S189      1.0  0.14663  0.76140  0.88819  1.0000
  S   S190      1.0  0.10450  0.74268  0.92929  1.0000
  Fe  Fe95      1.0  0.16207  0.77013  0.93361  1.0000
  S   S191      1.0  0.17749  0.77996  0.90400  1.0000
  H   H674      1.0  0.22020  0.80552  0.82254  1.0000
  Fe  Fe96      1.0  0.14802  0.78947  0.89612  1.0000
  S   S192      1.0  0.13586  0.81435  0.87518  1.0000
  Fe  Fe97      1.0  0.17486  0.75120  0.89863  1.0000
  S   S193      1.0  0.19944  0.73329  0.88209  1.0000
  S   S194      1.0  0.13270  0.78254  0.92628  1.0000
  S   S195      1.0  0.16080  0.74077  0.92840  1.0000
  C   C414      1.0  0.17459  0.85474  0.83660  1.0000
  C   C415      1.0  0.18024  0.84351  0.85341  1.0000
  C   C416      1.0  0.16848  0.83102  0.86539  1.0000
  C   C417      1.0  0.15095  0.82988  0.86065  1.0000
  C   C418      1.0  0.14525  0.84122  0.84394  1.0000
  C   C419      1.0  0.15708  0.85355  0.83188  1.0000
  H   H675      1.0  0.19370  0.84456  0.85719  1.0000
  H   H676      1.0  0.17277  0.82260  0.87845  1.0000
  H   H677      1.0  0.13166  0.84048  0.84025  1.0000
  H   H678      1.0  0.15258  0.86221  0.81898  1.0000
  C   C420      1.0  0.16604  0.63469  0.65160  1.0000
  H   H679      1.0  0.00193  0.68241  0.65199  1.0000
  C   C421      1.0  0.00155  0.65561  0.67179  1.0000
  H   H680      1.0  0.16983  0.95077  0.80576  1.0000
  C   C422      1.0  0.23543  0.54526  0.76922  1.0000
  S   S196      1.0  0.02233  0.86841  0.75672  1.0000
  H   H681      1.0  0.07060  0.56886  0.71062  1.0000
  C   C423      1.0  0.99197  0.79996  0.68354  1.0000
  N   N45       1.0  0.21273  0.48560  0.75616  1.0000
  H   H682      1.0  0.14922  0.88130  0.73843  1.0000
  H   H683      1.0  0.06483  0.59669  0.66277  1.0000
  H   H684      1.0  0.03459  0.78832  0.81894  1.0000
  H   H685      1.0  0.15922  0.50737  0.67910  1.0000
  H   H686      1.0  0.06979  0.77481  0.89462  1.0000
  H   H687      1.0  0.04329  0.91918  0.76478  1.0000
  C   C424      1.0  0.03500  0.91280  0.75703  1.0000
  H   H688      1.0  0.05665  0.58080  0.80319  1.0000
  H   H689      1.0  0.06655  0.81219  0.85099  1.0000
  C   C425      1.0  0.99482  0.64666  0.69033  1.0000
  H   H690      1.0  0.22265  0.97368  0.71011  1.0000
  C   C426      1.0  0.08069  0.80258  0.85129  1.0000
  C   C427      1.0  0.01914  0.58053  0.81595  1.0000
  N   N46       1.0  0.02768  0.92691  0.74118  1.0000
  C   C428      1.0  0.19356  0.49766  0.75874  1.0000
  H   H691      1.0  0.07128  0.57099  0.66856  1.0000
  H   H692      1.0  0.20422  0.96904  0.74308  1.0000
  C   C429      1.0  0.22301  0.73232  0.88606  1.0000
  C   C430      1.0  0.04834  0.60248  0.69811  1.0000
  H   H693      1.0  0.01102  0.92793  0.71935  1.0000
  C   C431      1.0  0.01003  0.79932  0.65147  1.0000
  H   H694      1.0  0.21560  0.75451  0.90341  1.0000
  Fe  Fe98      1.0  0.99532  0.87407  0.74415  1.0000
  H   H695      1.0  0.17241  0.84254  0.69910  1.0000
  S   S197      1.0  0.20821  0.57494  0.66323  1.0000
  H   H696      1.0  0.22086  0.60705  0.82253  1.0000
  N   N47       1.0  0.01132  0.74003  0.78582  1.0000
  H   H697      1.0  0.01417  0.76924  0.78543  1.0000
  C   C432      1.0  0.07916  0.88141  0.73154  1.0000
  C   C433      1.0  0.09314  0.89345  0.72599  1.0000
  C   C434      1.0  0.10586  0.89378  0.73834  1.0000
  C   C435      1.0  0.10479  0.88192  0.75628  1.0000
  C   C436      1.0  0.09080  0.86995  0.76175  1.0000
  C   C437      1.0  0.07806  0.86969  0.74950  1.0000
  H   H698      1.0  0.09402  0.90265  0.71216  1.0000
  H   H699      1.0  0.11633  0.90331  0.73408  1.0000
  H   H700      1.0  0.08985  0.86071  0.77558  1.0000
  H   H701      1.0  0.06745  0.86030  0.75396  1.0000
  C   C438      1.0  0.06850  0.73010  0.88899  1.0000
  C   C439      1.0  0.08787  0.73192  0.88256  1.0000
  C   C440      1.0  0.09906  0.73555  0.89481  1.0000
  C   C441      1.0  0.09098  0.73748  0.91365  1.0000
  C   C442      1.0  0.07166  0.73544  0.92020  1.0000
  C   C443      1.0  0.06042  0.73182  0.90791  1.0000
  H   H702      1.0  0.09426  0.73045  0.86799  1.0000
  H   H703      1.0  0.11400  0.73666  0.88970  1.0000
  H   H704      1.0  0.06531  0.73678  0.93480  1.0000
  H   H705      1.0  0.04554  0.73044  0.91303  1.0000
  C   C444      1.0  0.99663  0.67558  0.66627  1.0000
  H   H706      1.0  0.22051  0.57297  0.72926  1.0000
  H   H707      1.0  0.17036  0.63724  0.66463  1.0000
  C   C445      1.0  0.01377  0.80347  0.80123  1.0000
  H   H708      1.0  0.04477  0.90028  0.75170  1.0000
  H   H709      1.0  0.03680  0.56829  0.67844  1.0000
  C   C446      1.0  0.23434  0.88711  0.72387  1.0000
  C   C447      1.0  0.00162  0.81411  0.68607  1.0000
  C   C448      1.0  0.06640  0.57149  0.75122  1.0000
  C   C449      1.0  0.06745  0.59001  0.74100  1.0000
  C   C450      1.0  0.08490  0.59429  0.72990  1.0000
  C   C451      1.0  0.10134  0.58007  0.72881  1.0000
  C   C452      1.0  0.10038  0.56164  0.73931  1.0000
  C   C453      1.0  0.08297  0.55740  0.75058  1.0000
  H   H710      1.0  0.05485  0.60104  0.74163  1.0000
  H   H711      1.0  0.08565  0.60865  0.72201  1.0000
  H   H712      1.0  0.11299  0.55059  0.73860  1.0000
  H   H713      1.0  0.08228  0.54306  0.75854  1.0000
  H   H714      1.0  0.00216  0.93831  0.75908  1.0000
  C   C454      1.0  0.01186  0.66252  0.79992  1.0000
  H   H715      1.0  0.02043  0.57195  0.83037  1.0000
  C   C455      1.0  0.01995  0.79004  0.81660  1.0000
  H   H716      1.0  0.02568  0.66580  0.79247  1.0000
  N   N48       1.0  0.22728  0.94847  0.73142  1.0000
  H   H717      1.0  0.13219  0.77121  0.96822  1.0000
  H   H718      1.0  0.14903  0.49057  0.65703  1.0000
  H   H719      1.0  0.09401  0.81760  0.87608  1.0000
  C   C456      1.0  0.04957  0.59062  0.81357  1.0000
  H   H720      1.0  0.06139  0.60529  0.70221  1.0000
  C   C457      1.0  0.15399  0.48244  0.66991  1.0000
  H   H721      1.0  0.22733  0.50981  0.74504  1.0000
  C   C458      1.0  0.06799  0.78215  0.87984  1.0000
  H   H722      1.0  0.01230  0.76840  0.84069  1.0000
  C   C459      1.0  0.22707  0.74461  0.89680  1.0000
  C   C460      1.0  0.00737  0.77866  0.82885  1.0000
  H   H723      1.0  0.03018  0.59404  0.67299  1.0000
  S   S198      1.0  0.99278  0.84289  0.75026  1.0000
  C   C461      1.0  0.19753  0.58714  0.64341  1.0000
  S   S199      1.0  0.17539  0.76733  0.96008  1.0000
  H   H724      1.0  0.17486  0.57041  0.64902  1.0000
  H   H725      1.0  0.21547  0.49143  0.72557  1.0000
  N   N49       1.0  0.08332  0.79362  0.87104  1.0000
  H   H726      1.0  0.02222  0.58149  0.69617  1.0000
  Fe  Fe99      1.0  0.99113  0.72625  0.64415  1.0000
  H   H727      1.0  0.20272  0.80125  0.86456  1.0000
  H   H728      1.0  0.00355  0.58512  0.81531  1.0000
  H   H729      1.0  0.18202  0.48968  0.75827  1.0000
  C   C462      1.0  0.17129  0.97312  0.78104  1.0000
  H   H730      1.0  0.04564  0.56782  0.71894  1.0000
  C   C463      1.0  0.99481  0.80566  0.79831  1.0000
  H   H731      1.0  0.03639  0.71891  0.77953  1.0000
  C   C464      1.0  0.01567  0.82073  0.67128  1.0000
  H   H732      1.0  0.21063  0.94778  0.75967  1.0000
  C   C465      1.0  0.03462  0.58183  0.68425  1.0000
  C   C466      1.0  0.10219  0.78098  0.87070  1.0000
  H   H733      1.0  0.19259  0.51045  0.74723  1.0000
  S   S200      1.0  0.99464  0.82377  0.70753  1.0000
  H   H734      1.0  0.05905  0.55390  0.70126  1.0000
  C   C467      1.0  0.00741  0.74400  0.76603  1.0000
  H   H735      1.0  0.10475  0.77436  0.88544  1.0000
  C   C468      1.0  0.02264  0.72055  0.78970  1.0000
  H   H736      1.0  0.00463  0.61545  0.82498  1.0000
  C   C469      1.0  0.02757  0.60768  0.79247  1.0000
  C   C470      1.0  0.22371  0.55284  0.75525  1.0000
  H   H737      1.0  0.13437  0.61946  0.66750  1.0000
  C   C471      1.0  0.99297  0.74121  0.79930  1.0000
  C   C472      1.0  0.98850  0.78069  0.82582  1.0000
  C   C473      1.0  0.21660  0.95819  0.74742  1.0000
  H   H738      1.0  0.04349  0.61494  0.68729  1.0000
  C   C474      1.0  0.22705  0.61457  0.80832  1.0000
  N   N50       1.0  0.20475  0.78500  0.84225  1.0000
  H   H739      1.0  0.05251  0.94079  0.73458  1.0000
  H   H740      1.0  0.16807  0.61886  0.65240  1.0000
  C   C475      1.0  0.21165  0.78851  0.85888  1.0000
  H   H741      1.0  0.20160  0.94860  0.72054  1.0000
  H   H742      1.0  0.17044  0.88499  0.72134  1.0000
  H   H743      1.0  0.03624  0.75387  0.77842  1.0000
  H   H744      1.0  0.14759  0.88912  0.71362  1.0000
  H   H745      1.0  0.01458  0.70924  0.78869  1.0000
  H   H746      1.0  0.14959  0.80391  0.96307  1.0000
  C   C476      1.0  0.01470  0.94321  0.74889  1.0000
  H   H747      1.0  0.03439  0.62076  0.78914  1.0000
  H   H748      1.0  0.23234  0.77022  0.83077  1.0000
  H   H749      1.0  0.02511  0.57078  0.80526  1.0000
  H   H750      1.0  0.99886  0.75860  0.76266  1.0000
  H   H751      1.0  0.09203  0.81138  0.84425  1.0000
  H   H752      1.0  0.08148  0.58628  0.67900  1.0000
  H   H753      1.0  0.98991  0.81605  0.78656  1.0000
  H   H754      1.0  0.11410  0.78910  0.86391  1.0000
  H   H755      1.0  0.19036  0.50314  0.77252  1.0000
  C   C477      1.0  0.00191  0.65206  0.79195  1.0000
  C   C478      1.0  0.21438  0.93848  0.72499  1.0000
  H   H756      1.0  0.12900  0.67209  0.64794  1.0000
  C   C479      1.0  0.15969  0.49197  0.68241  1.0000
  H   H757      1.0  0.20894  0.92725  0.73658  1.0000
  S   S201      1.0  0.99014  0.58278  0.77973  1.0000
  H   H758      1.0  0.13311  0.85379  0.73914  1.0000
  C   C480      1.0  0.99628  0.79244  0.66642  1.0000
  H   H759      1.0  0.19592  0.81499  0.83168  1.0000
  C   C481      1.0  0.17373  0.97732  0.81285  1.0000
  H   H760      1.0  0.17361  0.97146  0.82784  1.0000
  H   H761      1.0  0.05353  0.79123  0.88065  1.0000
  C   C482      1.0  0.22748  0.49699  0.75661  1.0000
  H   H762      1.0  0.05753  0.60292  0.81051  1.0000
  C   C483      1.0  0.02225  0.75436  0.78829  1.0000
  H   H763      1.0  0.02312  0.83170  0.67299  1.0000
  N   N51       1.0  0.15968  0.85934  0.72117  1.0000
  C   C484      1.0  0.16978  0.85765  0.70158  1.0000
  C   C485      1.0  0.17145  0.84732  0.73512  1.0000
  C   C486      1.0  0.14092  0.85288  0.72435  1.0000
  C   C487      1.0  0.15660  0.87959  0.72372  1.0000
  H   H764      1.0  0.16134  0.86664  0.69069  1.0000
  H   H765      1.0  0.18399  0.86245  0.69887  1.0000
  H   H766      1.0  0.16387  0.84776  0.75005  1.0000
  H   H767      1.0  0.17471  0.83203  0.73318  1.0000
  H   H768      1.0  0.18537  0.85240  0.73370  1.0000
  H   H769      1.0  0.14262  0.83771  0.72233  1.0000
  H   H770      1.0  0.13143  0.86193  0.71440  1.0000
  H   H771      1.0  0.08466  0.80243  0.89727  1.0000
  C   C488      1.0  0.13302  0.63527  0.66672  1.0000
  S   S202      1.0  0.99591  0.73626  0.88623  1.0000
  H   H772      1.0  0.20063  0.79978  0.81405  1.0000
  N   N52       1.0  0.05202  0.58420  0.69073  1.0000
  H   H773      1.0  0.02107  0.60300  0.84080  1.0000
  H   H774      1.0  0.02628  0.71730  0.80436  1.0000
  H   H775      1.0  0.18382  0.76846  0.85938  1.0000
  H   H776      1.0  0.22187  0.93109  0.71281  1.0000
  H   H777      1.0  0.00477  0.91194  0.74118  1.0000
  H   H778      1.0  0.10325  0.76909  0.86268  1.0000
  C   C489      1.0  0.06811  0.58455  0.67451  1.0000
  C   C490      1.0  0.08253  0.80875  0.88234  1.0000
  H   H779      1.0  0.02310  0.90714  0.76760  1.0000
  C   C491      1.0  0.01973  0.81347  0.65399  1.0000
  C   C492      1.0  0.02012  0.61028  0.82586  1.0000
  H   H780      1.0  0.03687  0.60238  0.71093  1.0000
  H   H781      1.0  0.06851  0.81863  0.88297  1.0000
  H   H782      1.0  0.01230  0.61221  0.79061  1.0000
  H   H783      1.0  0.08133  0.79152  0.84237  1.0000
  H   H784      1.0  0.21115  0.77595  0.87069  1.0000
  H   H785      1.0  0.10162  0.74598  0.97061  1.0000
  C   C493      1.0  0.00405  0.66879  0.81743  1.0000
  C   C494      1.0  0.20544  0.80203  0.82695  1.0000
  S   S203      1.0  0.00207  0.57731  0.73537  1.0000
  H   H786      1.0  0.17508  0.79371  0.85379  1.0000
  H   H787      1.0  0.02640  0.90546  0.72503  1.0000
  H   H788      1.0  0.03471  0.59855  0.78159  1.0000
  H   H789      1.0  0.01062  0.64710  0.66170  1.0000
  H   H790      1.0  0.05135  0.58267  0.82813  1.0000
  H   H791      1.0  0.22500  0.50242  0.77037  1.0000
  C   C495      1.0  0.18479  0.78137  0.84804  1.0000
  H   H792      1.0  0.06803  0.77075  0.87151  1.0000
  C   C496      1.0  0.01699  0.91768  0.73124  1.0000
  H   H793      1.0  0.17901  0.77888  0.83582  1.0000
  C   C497      1.0  0.16631  0.48147  0.69897  1.0000
  H   H794      1.0  0.23506  0.70990  0.86936  1.0000
  C   C498      1.0  0.22944  0.56705  0.74011  1.0000
  H   H795      1.0  0.12645  0.74087  0.96064  1.0000
  H   H796      1.0  0.02704  0.62328  0.82310  1.0000
  H   H797      1.0  0.99923  0.73339  0.76365  1.0000
  H   H798      1.0  0.21698  0.75496  0.84648  1.0000
  H   H799      1.0  0.23115  0.53419  0.78093  1.0000
  H   H800      1.0  0.03905  0.94453  0.71535  1.0000
  Fe  Fe100     1.0  0.99453  0.60949  0.72819  1.0000
  Fe  Fe101     1.0  0.98920  0.73953  0.85668  1.0000
  H   H801      1.0  0.11776  0.64177  0.66609  1.0000
  C   C499      1.0  0.17160  0.96556  0.80036  1.0000
  H   H802      1.0  0.02535  0.75187  0.80312  1.0000
  H   H803      1.0  0.05396  0.92185  0.72148  1.0000
  H   H804      1.0  0.21232  0.76480  0.82275  1.0000
  C   C500      1.0  0.18109  0.58210  0.63971  1.0000
  C   C501      1.0  0.04399  0.93389  0.72755  1.0000
  N   N53       1.0  0.14600  0.64375  0.65006  1.0000
  H   H805      1.0  0.21196  0.81091  0.96060  1.0000
  H   H806      1.0  0.02094  0.74332  0.75546  1.0000
  C   C502      1.0  0.21714  0.76804  0.83520  1.0000
  H   H807      1.0  0.13636  0.63744  0.68039  1.0000
  H   H808      1.0  0.21651  0.61631  0.79854  1.0000
  H   H809      1.0  0.03034  0.81891  0.64247  1.0000
  C   C503      1.0  0.14383  0.66466  0.64958  1.0000
  H   H810      1.0  0.22843  0.62918  0.81011  1.0000
  H   H811      1.0  0.99538  0.73821  0.81437  1.0000
  H   H812      1.0  0.23314  0.58526  0.78889  1.0000
  H   H813      1.0  0.22675  0.79108  0.85513  1.0000
  H   H814      1.0  0.98868  0.78160  0.66466  1.0000
  H   H815      1.0  0.22587  0.96572  0.75285  1.0000
  H   H816      1.0  0.02221  0.95045  0.75663  1.0000
  H   H817      1.0  0.20872  0.78663  0.97075  1.0000
  C   C504      1.0  0.23459  0.96285  0.71540  1.0000
  H   H818      1.0  0.17626  0.64034  0.63904  1.0000
  H   H819      1.0  0.43121  0.30998  0.15078  1.0000
  C   C505      1.0  0.29871  0.28857  0.97468  1.0000
  H   H820      1.0  0.45515  0.30311  0.27002  1.0000
  C   C506      1.0  0.47029  0.16769  0.14562  1.0000
  S   S204      1.0  0.42315  0.36666  0.22454  1.0000
  Fe  Fe102     1.0  0.44768  0.07678  0.23677  1.0000
  S   S205      1.0  0.42149  0.06348  0.23613  1.0000
  S   S206      1.0  0.44297  0.10918  0.22907  1.0000
  Fe  Fe103     1.0  0.44717  0.23850  0.07627  1.0000
  S   S207      1.0  0.43274  0.24640  0.04956  1.0000
  S   S208      1.0  0.47733  0.07339  0.21926  1.0000
  H   H821      1.0  0.25999  0.26632  0.98550  1.0000
  S   S209      1.0  0.42988  0.24010  0.10543  1.0000
  H   H822      1.0  0.35945  0.43849  0.16296  1.0000
  C   C507      1.0  0.45119  0.17416  0.15307  1.0000
  S   S210      1.0  0.33611  0.45817  0.22364  1.0000
  H   H823      1.0  0.44051  0.21043  0.29883  1.0000
  C   C508      1.0  0.26378  0.99159  0.22122  1.0000
  H   H824      1.0  0.26231  0.45793  0.14284  1.0000
  C   C509      1.0  0.30818  0.47162  0.15316  1.0000
  S   S211      1.0  0.39127  0.45483  0.19667  1.0000
  S   S212      1.0  0.46691  0.21140  0.08658  1.0000
  C   C510      1.0  0.27341  0.98610  0.29701  1.0000
  S   S213      1.0  0.45854  0.07678  0.26390  1.0000
  C   C511      1.0  0.29481  0.46439  0.16833  1.0000
  H   H825      1.0  0.33040  0.39908  0.17813  1.0000
  H   H826      1.0  0.27204  0.99529  0.20658  1.0000
  S   S214      1.0  0.28500  0.47181  0.10668  1.0000
  H   H827      1.0  0.44951  0.45074  0.21361  1.0000
  C   C512      1.0  0.24576  0.04198  0.04176  1.0000
  H   H828      1.0  0.48459  0.44237  0.21338  1.0000
  Fe  Fe104     1.0  0.36238  0.21655  0.99198  1.0000
  N   N54       1.0  0.46718  0.20916  0.27906  1.0000
  S   S215      1.0  0.38079  0.20410  0.01533  1.0000
  H   H829      1.0  0.45139  0.43405  0.19777  1.0000
  H   H830      1.0  0.28143  0.00082  0.16569  1.0000
  H   H831      1.0  0.24643  0.24710  0.99356  1.0000
  Fe  Fe105     1.0  0.32274  0.24016  0.98664  1.0000
  S   S216      1.0  0.29893  0.25778  0.00420  1.0000
  H   H832      1.0  0.33933  0.16741  0.01208  1.0000
  S   S217      1.0  0.33236  0.21052  0.00161  1.0000
  S   S218      1.0  0.47052  0.23221  0.12199  1.0000
  C   C513      1.0  0.28860  0.46868  0.13047  1.0000
  H   H833      1.0  0.32549  0.42555  0.20754  1.0000
  Fe  Fe106     1.0  0.23745  0.08792  0.98330  1.0000
  H   H834      1.0  0.33516  0.40033  0.21082  1.0000
  Fe  Fe107     1.0  0.36128  0.47083  0.20583  1.0000
  H   H835      1.0  0.47271  0.41478  0.25047  1.0000
  S   S219      1.0  0.40306  0.99088  0.20888  1.0000
  H   H836      1.0  0.36220  0.43959  0.18671  1.0000
  C   C514      1.0  0.29041  0.28111  0.99313  1.0000
  C   C515      1.0  0.27469  0.29218  0.00284  1.0000
  C   C516      1.0  0.24780  0.26045  0.98289  1.0000
  S   S220      1.0  0.47512  0.35194  0.23546  1.0000
  H   H837      1.0  0.34159  0.29376  0.01507  1.0000
  S   S221      1.0  0.24154  0.44591  0.10160  1.0000
  H   H838      1.0  0.26836  0.28649  0.01720  1.0000
  H   H839      1.0  0.25474  0.31895  0.00148  1.0000
  C   C517      1.0  0.27519  0.31796  0.97549  1.0000
  H   H840      1.0  0.32055  0.42426  0.17517  1.0000
  H   H841      1.0  0.33918  0.44751  0.17941  1.0000
  H   H842      1.0  0.42666  0.23655  0.20440  1.0000
  H   H843      1.0  0.43606  0.28495  0.29779  1.0000
  C   C518      1.0  0.26693  0.31050  0.99396  1.0000
  H   H844      1.0  0.37623  0.40493  0.19078  1.0000
  H   H845      1.0  0.28403  0.01032  0.27821  1.0000
  Fe  Fe108     1.0  0.25545  0.47112  0.10128  1.0000
  H   H846      1.0  0.36279  0.38773  0.18770  1.0000
  C   C519      1.0  0.28847  0.98701  0.16205  1.0000
  H   H847      1.0  0.41002  0.08139  0.16490  1.0000
  H   H848      1.0  0.25862  0.00518  0.22708  1.0000
  H   H849      1.0  0.45008  0.39801  0.22837  1.0000
  H   H850      1.0  0.35729  0.27509  0.00381  1.0000
  H   H851      1.0  0.47935  0.27298  0.12470  1.0000
  H   H852      1.0  0.40243  0.08623  0.19896  1.0000
  C   C520      1.0  0.43868  0.07269  0.18541  1.0000
  C   C521      1.0  0.27510  0.46175  0.14564  1.0000
  C   C522      1.0  0.32448  0.27056  0.04456  1.0000
  Fe  Fe109     1.0  0.45404  0.35224  0.21629  1.0000
  C   C523      1.0  0.42006  0.09193  0.16197  1.0000
  H   H853      1.0  0.43354  0.12104  0.17026  1.0000
  H   H854      1.0  0.38668  0.15809  0.02778  1.0000
  H   H855      1.0  0.28088  0.13092  0.97332  1.0000
  S   S222      1.0  0.43720  0.19399  0.14082  1.0000
  S   S223      1.0  0.46657  0.25839  0.07949  1.0000
  C   C524      1.0  0.47538  0.13606  0.28324  1.0000
  H   H856      1.0  0.43499  0.43220  0.21997  1.0000
  S   S224      1.0  0.31463  0.98907  0.18410  1.0000
  S   S225      1.0  0.24794  0.07058  0.01029  1.0000
  H   H857      1.0  0.36524  0.16433  0.98411  1.0000
  H   H858      1.0  0.34881  0.41722  0.21424  1.0000
  H   H859      1.0  0.41400  0.25544  0.15599  1.0000
  H   H860      1.0  0.44732  0.42084  0.25047  1.0000
  H   H861      1.0  0.26798  0.45374  0.17621  1.0000
  C   C525      1.0  0.34344  0.27844  0.01350  1.0000
  C   C526      1.0  0.46279  0.19459  0.26966  1.0000
  C   C527      1.0  0.30463  0.98426  0.27651  1.0000
  C   C528      1.0  0.27832  0.45941  0.16451  1.0000
  H   H862      1.0  0.40343  0.11139  0.19038  1.0000
  H   H863      1.0  0.37590  0.13759  0.04007  1.0000
  Fe  Fe110     1.0  0.45065  0.25758  0.10957  1.0000
  C   C529      1.0  0.41829  0.23427  0.04047  1.0000
  C   C530      1.0  0.41345  0.21644  0.04970  1.0000
  C   C531      1.0  0.40199  0.20742  0.04180  1.0000
  C   C532      1.0  0.39511  0.21615  0.02470  1.0000
  C   C533      1.0  0.39984  0.23402  0.01554  1.0000
  C   C534      1.0  0.41138  0.24298  0.02338  1.0000
  H   H864      1.0  0.41869  0.20955  0.06282  1.0000
  H   H865      1.0  0.39850  0.19357  0.04901  1.0000
  H   H866      1.0  0.39495  0.24080  0.00223  1.0000
  H   H867      1.0  0.41519  0.25668  0.01605  1.0000
  C   C535      1.0  0.41701  0.04264  0.22918  1.0000
  C   C536      1.0  0.39800  0.03926  0.23230  1.0000
  C   C537      1.0  0.39350  0.02337  0.22652  1.0000
  C   C538      1.0  0.40798  0.01072  0.21728  1.0000
  C   C539      1.0  0.42701  0.01415  0.21406  1.0000
  C   C540      1.0  0.43155  0.02990  0.22008  1.0000
  H   H868      1.0  0.38661  0.04898  0.23932  1.0000
  H   H869      1.0  0.37880  0.02101  0.22909  1.0000
  H   H870      1.0  0.43835  0.00446  0.20697  1.0000
  H   H871      1.0  0.44625  0.03219  0.21763  1.0000
  C   C541      1.0  0.45334  0.14836  0.18062  1.0000
  C   C542      1.0  0.44278  0.16447  0.17061  1.0000
  H   H872      1.0  0.44673  0.14110  0.19415  1.0000
  H   H873      1.0  0.42802  0.16944  0.17646  1.0000
  H   H874      1.0  0.35454  0.12488  0.02418  1.0000
  H   H875      1.0  0.38046  0.17356  0.99552  1.0000
  H   H876      1.0  0.46183  0.43947  0.24440  1.0000
  C   C543      1.0  0.47352  0.28365  0.13380  1.0000
  Fe  Fe111     1.0  0.31997  0.47504  0.20038  1.0000
  C   C544      1.0  0.41415  0.39101  0.21620  1.0000
  C   C545      1.0  0.39674  0.39984  0.22583  1.0000
  C   C546      1.0  0.38936  0.41932  0.21988  1.0000
  C   C547      1.0  0.39925  0.43006  0.20408  1.0000
  C   C548      1.0  0.41636  0.42108  0.19413  1.0000
  C   C549      1.0  0.42386  0.40169  0.20022  1.0000
  H   H877      1.0  0.38914  0.39165  0.23820  1.0000
  H   H878      1.0  0.37627  0.42611  0.22777  1.0000
  H   H879      1.0  0.42395  0.42924  0.18173  1.0000
  H   H880      1.0  0.43706  0.39495  0.19246  1.0000
  H   H881      1.0  0.43284  0.23976  0.14420  1.0000
  H   H882      1.0  0.45660  0.25079  0.15745  1.0000
  H   H883      1.0  0.33175  0.27706  0.00614  1.0000
  Fe  Fe112     1.0  0.33467  0.20106  0.97358  1.0000
  H   H884      1.0  0.45090  0.06837  0.17424  1.0000
  C   C550      1.0  0.45386  0.29077  0.13656  1.0000
  C   C551      1.0  0.47226  0.14152  0.17289  1.0000
  C   C552      1.0  0.24088  0.04884  0.02346  1.0000
  H   H885      1.0  0.46478  0.23990  0.27491  1.0000
  S   S226      1.0  0.44174  0.12897  0.27569  1.0000
  S   S227      1.0  0.43811  0.28193  0.12613  1.0000
  H   H886      1.0  0.45324  0.10294  0.16309  1.0000
  N   N55       1.0  0.43320  0.23728  0.17406  1.0000
  C   C553      1.0  0.42274  0.24078  0.15780  1.0000
  C   C554      1.0  0.44606  0.25159  0.17089  1.0000
  C   C555      1.0  0.44467  0.21774  0.17564  1.0000
  C   C556      1.0  0.41928  0.23906  0.19182  1.0000
  Fe  Fe113     1.0  0.48494  0.32096  0.23226  1.0000
  H   H887      1.0  0.34373  0.15604  0.03555  1.0000
  C   C557      1.0  0.28708  0.99505  0.28346  1.0000
  H   H888      1.0  0.45432  0.24947  0.18276  1.0000
  H   H889      1.0  0.46666  0.40010  0.20624  1.0000
  C   C558      1.0  0.45119  0.27971  0.29374  1.0000
  Fe  Fe114     1.0  0.48375  0.32917  0.18958  1.0000
  H   H890      1.0  0.45511  0.21585  0.16230  1.0000
  H   H891      1.0  0.43541  0.20658  0.17797  1.0000
  H   H892      1.0  0.28791  0.99811  0.24283  1.0000
  H   H893      1.0  0.40932  0.22849  0.19454  1.0000
  S   S228      1.0  0.47367  0.36094  0.18899  1.0000
  N   N56       1.0  0.34779  0.41691  0.18488  1.0000
  C   C559      1.0  0.36562  0.40269  0.18255  1.0000
  C   C560      1.0  0.33418  0.41373  0.17355  1.0000
  C   C561      1.0  0.35237  0.43647  0.17818  1.0000
  C   C562      1.0  0.33893  0.41489  0.20527  1.0000
  S   S229      1.0  0.34400  0.98873  0.22467  1.0000
  C   C563      1.0  0.35052  0.16310  0.02141  1.0000
  Fe  Fe115     1.0  0.47325  0.10569  0.21354  1.0000
  H   H894      1.0  0.38848  0.15097  0.98735  1.0000
  C   C564      1.0  0.45866  0.31127  0.15755  1.0000
  C   C565      1.0  0.29241  0.98555  0.23530  1.0000
  C   C566      1.0  0.48072  0.15130  0.15543  1.0000
  H   H895      1.0  0.43785  0.26651  0.16952  1.0000
  C   C567      1.0  0.38177  0.14504  0.02572  1.0000
  H   H896      1.0  0.24995  0.42051  0.02018  1.0000
  H   H897      1.0  0.35009  0.13645  0.00071  1.0000
  H   H898      1.0  0.47552  0.39226  0.22834  1.0000
  C   C568      1.0  0.44644  0.30450  0.14854  1.0000
  Fe  Fe116     1.0  0.45592  0.10879  0.25488  1.0000
  H   H899      1.0  0.28794  0.47971  0.24953  1.0000
  C   C569      1.0  0.44950  0.43544  0.21307  1.0000
  C   C570      1.0  0.46194  0.28998  0.27798  1.0000
  H   H900      1.0  0.32095  0.47544  0.15596  1.0000
  H   H901      1.0  0.26805  0.98618  0.14417  1.0000
  H   H902      1.0  0.45289  0.32204  0.16655  1.0000
  H   H903      1.0  0.37330  0.12274  0.00385  1.0000
  H   H904      1.0  0.44460  0.07217  0.19857  1.0000
  C   C571      1.0  0.41216  0.09713  0.19467  1.0000
  S   S230      1.0  0.32727  0.17138  0.97563  1.0000
  C   C572      1.0  0.36107  0.13276  0.01033  1.0000
  H   H905      1.0  0.41199  0.10633  0.15685  1.0000
  H   H906      1.0  0.43162  0.08800  0.15005  1.0000
  H   H907      1.0  0.35768  0.28255  0.04384  1.0000
  H   H908      1.0  0.44614  0.23178  0.26742  1.0000
  H   H909      1.0  0.42921  0.06160  0.18883  1.0000
  H   H910      1.0  0.32227  0.28564  0.04703  1.0000
  H   H911      1.0  0.35935  0.25780  0.05529  1.0000
  H   H912      1.0  0.37312  0.26405  0.03221  1.0000
  H   H913      1.0  0.31516  0.99120  0.26603  1.0000
  C   C573      1.0  0.45543  0.13810  0.28820  1.0000
  C   C574      1.0  0.44613  0.14736  0.30362  1.0000
  Fe  Fe117     1.0  0.48510  0.23148  0.09167  1.0000
  H   H914      1.0  0.39468  0.13538  0.01976  1.0000
  H   H915      1.0  0.35879  0.24139  0.01956  1.0000
  H   H916      1.0  0.31567  0.47887  0.12254  1.0000
  C   C575      1.0  0.46174  0.22856  0.26814  1.0000
  N   N57       1.0  0.46468  0.42241  0.22259  1.0000
  H   H917      1.0  0.44758  0.10645  0.18740  1.0000
  H   H918      1.0  0.41318  0.23003  0.15937  1.0000
  H   H919      1.0  0.33324  0.24316  0.02309  1.0000
  H   H920      1.0  0.30052  0.99067  0.22112  1.0000
  C   C576      1.0  0.45625  0.20788  0.29868  1.0000
  C   C577      1.0  0.35893  0.26761  0.04130  1.0000
  C   C578      1.0  0.34529  0.24543  0.02938  1.0000
  H   H921      1.0  0.34026  0.41544  0.15804  1.0000
  N   N58       1.0  0.42801  0.09200  0.17920  1.0000
  N   N59       1.0  0.34304  0.26552  0.03220  1.0000
  H   H922      1.0  0.45296  0.21458  0.18760  1.0000
  Fe  Fe118     1.0  0.45085  0.21455  0.11616  1.0000
  H   H923      1.0  0.31226  0.26917  0.03793  1.0000
  H   H924      1.0  0.34585  0.23512  0.04304  1.0000
  H   H925      1.0  0.32362  0.26098  0.05872  1.0000
  H   H926      1.0  0.37267  0.40375  0.16733  1.0000
  S   S231      1.0  0.46227  0.32037  0.21537  1.0000
  C   C579      1.0  0.37575  0.16020  0.99416  1.0000
  C   C580      1.0  0.44112  0.10622  0.17477  1.0000
  H   H927      1.0  0.41042  0.25368  0.19098  1.0000
  N   N60       1.0  0.36729  0.15025  0.01292  1.0000
  H   H928      1.0  0.41765  0.09778  0.20775  1.0000
  C   C581      1.0  0.45998  0.26292  0.30443  1.0000
  H   H929      1.0  0.48263  0.12917  0.27124  1.0000
  C   C582      1.0  0.30517  0.47354  0.13426  1.0000
  H   H930      1.0  0.35467  0.17646  0.02355  1.0000
  S   S232      1.0  0.35252  0.24703  0.97878  1.0000
  C   C583      1.0  0.46414  0.40234  0.22135  1.0000
  H   H931      1.0  0.47115  0.09837  0.30079  1.0000
  C   C584      1.0  0.47839  0.30443  0.15447  1.0000
  H   H932      1.0  0.47689  0.17507  0.13210  1.0000
  H   H933      1.0  0.25899  0.98568  0.25967  1.0000
  C   C585      1.0  0.46149  0.42450  0.24289  1.0000
  H   H934      1.0  0.30990  0.13760  0.98255  1.0000
  S   S233      1.0  0.29860  0.46056  0.19214  1.0000
  H   H935      1.0  0.24361  0.02004  0.06708  1.0000
  S   S234      1.0  0.23929  0.44594  0.04759  1.0000
  H   H936      1.0  0.44718  0.19657  0.26922  1.0000
  C   C586      1.0  0.30112  0.14897  0.97434  1.0000
  H   H937      1.0  0.25417  0.04973  0.04730  1.0000
  H   H938      1.0  0.23639  0.28627  0.00680  1.0000
  C   C587      1.0  0.47950  0.25627  0.29899  1.0000
  H   H939      1.0  0.24413  0.29888  0.97232  1.0000
  H   H940      1.0  0.46691  0.17982  0.27745  1.0000
  H   H941      1.0  0.46982  0.23016  0.25329  1.0000
  H   H942      1.0  0.25101  0.98599  0.21967  1.0000
  H   H943      1.0  0.47067  0.19520  0.25476  1.0000
  C   C588      1.0  0.48156  0.28344  0.27285  1.0000
  C   C589      1.0  0.23977  0.02518  0.05302  1.0000
  C   C590      1.0  0.48366  0.42723  0.21308  1.0000
  H   H944      1.0  0.25368  0.47771  0.26150  1.0000
  S   S235      1.0  0.25108  0.99970  0.30439  1.0000
  S   S236      1.0  0.48546  0.12043  0.18428  1.0000
  C   C591      1.0  0.48572  0.29046  0.14275  1.0000
  C   C592      1.0  0.48598  0.14287  0.29392  1.0000
  S   S237      1.0  0.48586  0.10802  0.23866  1.0000
  Fe  Fe119     1.0  0.45620  0.19480  0.37925  1.0000
  S   S238      1.0  0.43856  0.18324  0.40762  1.0000
  H   H945      1.0  0.28887  0.02798  0.59250  1.0000
  S   S239      1.0  0.44803  0.19610  0.35049  1.0000
  Fe  Fe120     1.0  0.34178  0.21284  0.47681  1.0000
  S   S240      1.0  0.35114  0.18414  0.49378  1.0000
  S   S241      1.0  0.35738  0.22320  0.44713  1.0000
  Fe  Fe121     1.0  0.30796  0.22303  0.50782  1.0000
  S   S242      1.0  0.31517  0.19481  0.52729  1.0000
  S   S243      1.0  0.28101  0.24223  0.51956  1.0000
  Fe  Fe122     1.0  0.34564  0.19960  0.51884  1.0000
  S   S244      1.0  0.36920  0.18957  0.53694  1.0000
  Fe  Fe123     1.0  0.31991  0.18180  0.50085  1.0000
  S   S245      1.0  0.31174  0.15268  0.50287  1.0000
  S   S246      1.0  0.33834  0.22886  0.50128  1.0000
  S   S247      1.0  0.31063  0.20951  0.48188  1.0000
  C   C593      1.0  0.25015  0.07905  0.57914  1.0000
  Fe  Fe124     1.0  0.30164  0.07570  0.63524  1.0000
  S   S248      1.0  0.24436  0.32361  0.47777  1.0000
  H   H946      1.0  0.26127  0.02633  0.57794  1.0000
  H   H947      1.0  0.26993  0.99094  0.63155  1.0000
  S   S249      1.0  0.25313  0.13870  0.45472  1.0000
  C   C594      1.0  0.27203  0.01901  0.33405  1.0000
  S   S250      1.0  0.46594  0.22362  0.37158  1.0000
  H   H948      1.0  0.26770  0.00457  0.33827  1.0000
  S   S251      1.0  0.26099  0.08110  0.46742  1.0000
  H   H949      1.0  0.25062  0.27100  0.53236  1.0000
  H   H950      1.0  0.26593  0.37181  0.42485  1.0000
  H   H951      1.0  0.27823  0.05226  0.34099  1.0000
  C   C595      1.0  0.27140  0.06232  0.55509  1.0000
  S   S252      1.0  0.36689  0.20950  0.61904  1.0000
  H   H952      1.0  0.46481  0.08304  0.32291  1.0000
  H   H953      1.0  0.25111  0.01424  0.36958  1.0000
  C   C596      1.0  0.45674  0.15420  0.31431  1.0000
  H   H954      1.0  0.47330  0.10491  0.32276  1.0000
  C   C597      1.0  0.23892  0.03467  0.33792  1.0000
  H   H955      1.0  0.32011  0.09472  0.57936  1.0000
  H   H956      1.0  0.30718  0.13954  0.54533  1.0000
  H   H957      1.0  0.28473  0.05314  0.55068  1.0000
  C   C598      1.0  0.25457  0.02618  0.61570  1.0000
  C   C599      1.0  0.34455  0.11712  0.63075  1.0000
  C   C600      1.0  0.26752  0.06749  0.57332  1.0000
  C   C601      1.0  0.24096  0.08089  0.54816  1.0000
  H   H958      1.0  0.27786  0.06248  0.58286  1.0000
  S   S253      1.0  0.44626  0.25048  0.32434  1.0000
  C   C602      1.0  0.31742  0.11017  0.57273  1.0000
  H   H959      1.0  0.27350  0.02258  0.31819  1.0000
  N   N61       1.0  0.26683  0.01107  0.60558  1.0000
  H   H960      1.0  0.26963  0.00099  0.57904  1.0000
  C   C603      1.0  0.36731  0.19463  0.56020  1.0000
  C   C604      1.0  0.38009  0.18351  0.57208  1.0000
  C   C605      1.0  0.37971  0.18759  0.59033  1.0000
  C   C606      1.0  0.36682  0.20315  0.59671  1.0000
  C   C607      1.0  0.35404  0.21431  0.58483  1.0000
  C   C608      1.0  0.35413  0.20995  0.56672  1.0000
  H   H961      1.0  0.39035  0.17165  0.56716  1.0000
  H   H962      1.0  0.38967  0.17894  0.59929  1.0000
  H   H963      1.0  0.34405  0.22639  0.58962  1.0000
  H   H964      1.0  0.34428  0.21869  0.55766  1.0000
  C   C609      1.0  0.27229  0.26546  0.50805  1.0000
  C   C610      1.0  0.27987  0.27271  0.48924  1.0000
  C   C611      1.0  0.27145  0.29075  0.48018  1.0000
  C   C612      1.0  0.25533  0.30154  0.48979  1.0000
  H   H965      1.0  0.34581  0.25109  0.63435  1.0000
  C   C613      1.0  0.25643  0.27646  0.51775  1.0000
  H   H966      1.0  0.29209  0.26434  0.48165  1.0000
  H   H967      1.0  0.27733  0.29625  0.46561  1.0000
  H   H968      1.0  0.27035  0.02683  0.36900  1.0000
  S   S254      1.0  0.27354  0.09568  0.63656  1.0000
  C   C614      1.0  0.29451  0.14962  0.49011  1.0000
  C   C615      1.0  0.28928  0.13145  0.49278  1.0000
  C   C616      1.0  0.27640  0.12811  0.48216  1.0000
  C   C617      1.0  0.26890  0.14285  0.46853  1.0000
  C   C618      1.0  0.27402  0.16110  0.46589  1.0000
  C   C619      1.0  0.28665  0.16455  0.47680  1.0000
  H   H969      1.0  0.29531  0.11981  0.50300  1.0000
  H   H970      1.0  0.27254  0.11398  0.48432  1.0000
  H   H971      1.0  0.26820  0.17258  0.45541  1.0000
  H   H972      1.0  0.29042  0.17867  0.47476  1.0000
  C   C620      1.0  0.28325  0.11180  0.58255  1.0000
  Fe  Fe125     1.0  0.46021  0.22366  0.34223  1.0000
  C   C621      1.0  0.25833  0.35977  0.42505  1.0000
  N   N62       1.0  0.29865  0.11555  0.56613  1.0000
  C   C622      1.0  0.41586  0.19453  0.41812  1.0000
  C   C623      1.0  0.40652  0.18513  0.43538  1.0000
  C   C624      1.0  0.38859  0.19370  0.44438  1.0000
  C   C625      1.0  0.37983  0.21180  0.43621  1.0000
  C   C626      1.0  0.38908  0.22112  0.41889  1.0000
  C   C627      1.0  0.40702  0.21256  0.40988  1.0000
  H   H973      1.0  0.41326  0.17115  0.44180  1.0000
  H   H974      1.0  0.38154  0.18633  0.45758  1.0000
  H   H975      1.0  0.38238  0.23510  0.41241  1.0000
  H   H976      1.0  0.41404  0.21994  0.39659  1.0000
  H   H977      1.0  0.29191  0.01409  0.61554  1.0000
  N   N63       1.0  0.23733  0.36614  0.42752  1.0000
  C   C628      1.0  0.47671  0.15185  0.30953  1.0000
  S   S255      1.0  0.24305  0.04689  0.44131  1.0000
  H   H978      1.0  0.47923  0.26471  0.33787  1.0000
  H   H979      1.0  0.26530  0.05699  0.32129  1.0000
  H   H980      1.0  0.30932  0.10698  0.53868  1.0000
  H   H981      1.0  0.25357  0.06386  0.34380  1.0000
  H   H982      1.0  0.26387  0.35409  0.41147  1.0000
  H   H983      1.0  0.34343  0.12516  0.61658  1.0000
  C   C629      1.0  0.25808  0.06890  0.54252  1.0000
  C   C630      1.0  0.29569  0.13619  0.55769  1.0000
  S   S256      1.0  0.32625  0.09137  0.62124  1.0000
  H   H984      1.0  0.25033  0.98918  0.62057  1.0000
  H   H985      1.0  0.28177  0.14071  0.55234  1.0000
  H   H986      1.0  0.44948  0.16100  0.32640  1.0000
  H   H987      1.0  0.25882  0.02570  0.62975  1.0000
  H   H988      1.0  0.26882  0.11554  0.57820  1.0000
  H   H989      1.0  0.24655  0.01149  0.42789  1.0000
  S   S257      1.0  0.24421  0.08501  0.60221  1.0000
  C   C631      1.0  0.26403  0.05253  0.33707  1.0000
  C   C632      1.0  0.28699  0.01404  0.60197  1.0000
  Fe  Fe126     1.0  0.24497  0.07607  0.49744  1.0000
  S   S258      1.0  0.48612  0.17822  0.37159  1.0000
  H   H990      1.0  0.28511  0.09636  0.58928  1.0000
  H   H991      1.0  0.32945  0.11277  0.56076  1.0000
  H   H992      1.0  0.23949  0.03838  0.32216  1.0000
  H   H993      1.0  0.28407  0.10733  0.54669  1.0000
  C   C633      1.0  0.29826  0.10404  0.55155  1.0000
  S   S259      1.0  0.26298  0.06128  0.52022  1.0000
  H   H994      1.0  0.31819  0.11856  0.58380  1.0000
  C   C634      1.0  0.26051  0.01202  0.58719  1.0000
  C   C635      1.0  0.25631  0.02822  0.36431  1.0000
  S   S260      1.0  0.29241  0.05509  0.62069  1.0000
  H   H995      1.0  0.29580  0.14535  0.56829  1.0000
  Fe  Fe127     1.0  0.24269  0.11028  0.46539  1.0000
  C   C636      1.0  0.24794  0.29439  0.50865  1.0000
  H   H996      1.0  0.30096  0.08837  0.55724  1.0000
  C   C637      1.0  0.33734  0.09979  0.63673  1.0000
  N   N64       1.0  0.34571  0.15824  0.44507  1.0000
  C   C638      1.0  0.33189  0.14635  0.44331  1.0000
  C   C639      1.0  0.33516  0.17674  0.45025  1.0000
  C   C640      1.0  0.35875  0.16188  0.42668  1.0000
  C   C641      1.0  0.35698  0.14803  0.46015  1.0000
  H   H997      1.0  0.33932  0.13238  0.43910  1.0000
  H   H998      1.0  0.32270  0.15381  0.43247  1.0000
  H   H999      1.0  0.32212  0.14304  0.45711  1.0000
  H   H1000     1.0  0.32617  0.18477  0.43943  1.0000
  H   H1001     1.0  0.32552  0.17450  0.46424  1.0000
  H   H1002     1.0  0.34512  0.18623  0.45139  1.0000
  H   H1003     1.0  0.36924  0.17099  0.42751  1.0000
  H   H1004     1.0  0.35068  0.16957  0.41501  1.0000
  H   H1005     1.0  0.36712  0.14826  0.42235  1.0000
  H   H1006     1.0  0.36500  0.13389  0.45685  1.0000
  H   H1007     1.0  0.34753  0.14528  0.47428  1.0000
  H   H1008     1.0  0.36758  0.15654  0.46185  1.0000
  N   N65       1.0  0.40891  0.20579  0.48971  1.0000
  C   C642      1.0  0.42245  0.21128  0.47212  1.0000
  C   C643      1.0  0.41527  0.20985  0.50641  1.0000
  C   C644      1.0  0.40823  0.18505  0.49237  1.0000
  C   C645      1.0  0.38960  0.21698  0.48801  1.0000
  H   H1009     1.0  0.41785  0.20861  0.45925  1.0000
  H   H1010     1.0  0.43714  0.20295  0.47276  1.0000
  H   H1011     1.0  0.42342  0.22682  0.46974  1.0000
  H   H1012     1.0  0.40531  0.20572  0.51990  1.0000
  H   H1013     1.0  0.42981  0.20169  0.50819  1.0000
  H   H1014     1.0  0.41573  0.22540  0.50506  1.0000
  H   H1015     1.0  0.39791  0.18049  0.50536  1.0000
  H   H1016     1.0  0.42250  0.17616  0.49404  1.0000
  H   H1017     1.0  0.40367  0.18139  0.48000  1.0000
  H   H1018     1.0  0.37915  0.21339  0.50116  1.0000
  H   H1019     1.0  0.38408  0.21411  0.47580  1.0000
  H   H1020     1.0  0.38957  0.23272  0.48576  1.0000
  H   H1021     1.0  0.46019  0.19354  0.30741  1.0000
  Fe  Fe128     1.0  0.26378  0.07416  0.62414  1.0000
  H   H1022     1.0  0.28313  0.12021  0.59386  1.0000
  C   C646      1.0  0.26532  0.99201  0.61754  1.0000
  H   H1023     1.0  0.29680  0.00245  0.59508  1.0000
  H   H1024     1.0  0.24125  0.25793  0.49497  1.0000
  H   H1025     1.0  0.26240  0.34812  0.43698  1.0000
  H   H1026     1.0  0.25554  0.04081  0.60729  1.0000
  H   H1027     1.0  0.28646  0.01766  0.33788  1.0000
  N   N66       1.0  0.25784  0.03360  0.34333  1.0000
  H   H1028     1.0  0.23753  0.37670  0.39749  1.0000
  C   C647      1.0  0.47527  0.09254  0.31512  1.0000
  H   H1029     1.0  0.23921  0.02455  0.61850  1.0000
  H   H1030     1.0  0.45920  0.21871  0.30612  1.0000
  Fe  Fe129     1.0  0.23674  0.07123  0.45872  1.0000
  H   H1031     1.0  0.27461  0.98024  0.61051  1.0000
  Fe  Fe130     1.0  0.47839  0.18152  0.34242  1.0000
  H   H1032     1.0  0.24596  0.03911  0.37173  1.0000
  H   H1033     1.0  0.31740  0.00600  0.63522  1.0000
  H   H1034     1.0  0.24540  0.00967  0.58937  1.0000
  H   H1035     1.0  0.48183  0.29647  0.34427  1.0000
  H   H1036     1.0  0.23663  0.38660  0.44562  1.0000
  H   H1037     1.0  0.23870  0.39451  0.41116  1.0000
  C   C648      1.0  0.23700  0.08589  0.56646  1.0000
  H   H1038     1.0  0.43068  0.14897  0.30752  1.0000
  S   S261      1.0  0.32238  0.23047  0.95914  1.0000
  S   S262      1.0  0.28275  0.40666  0.80610  1.0000
  C   C649      1.0  0.28469  0.14513  0.96910  1.0000
  C   C650      1.0  0.24937  0.08349  0.71240  1.0000
  S   S263      1.0  0.26169  0.41663  0.76793  1.0000
  H   H1039     1.0  0.31087  0.28009  0.96711  1.0000
  Fe  Fe131     1.0  0.28176  0.39220  0.78182  1.0000
  S   S264      1.0  0.30806  0.37874  0.76353  1.0000
  Fe  Fe132     1.0  0.26066  0.42987  0.79356  1.0000
  S   S265      1.0  0.25911  0.46195  0.78692  1.0000
  S   S266      1.0  0.25819  0.37605  0.79741  1.0000
  H   H1040     1.0  0.26768  0.36773  0.90339  1.0000
  Fe  Fe133     1.0  0.38902  0.29504  0.79525  1.0000
  S   S267      1.0  0.37395  0.27219  0.79103  1.0000
  S   S268      1.0  0.37369  0.32337  0.80384  1.0000
  Fe  Fe134     1.0  0.42686  0.26702  0.79882  1.0000
  S   S269      1.0  0.41420  0.24214  0.79557  1.0000
  S   S270      1.0  0.45702  0.25949  0.80550  1.0000
  Fe  Fe135     1.0  0.40152  0.26264  0.77177  1.0000
  S   S271      1.0  0.40756  0.25520  0.74185  1.0000
  Fe  Fe136     1.0  0.38816  0.25398  0.81518  1.0000
  S   S272      1.0  0.37247  0.23590  0.84067  1.0000
  S   S273      1.0  0.41561  0.28719  0.77417  1.0000
  S   S274      1.0  0.40192  0.27711  0.82014  1.0000
  H   H1041     1.0  0.41077  0.23742  0.88399  1.0000
  Fe  Fe137     1.0  0.26550  0.07798  0.66518  1.0000
  S   S275      1.0  0.29452  0.05943  0.66511  1.0000
  H   H1042     1.0  0.24131  0.43819  0.65023  1.0000
  H   H1043     1.0  0.34210  0.21991  0.65500  1.0000
  C   C651      1.0  0.27670  0.47206  0.79314  1.0000
  H   H1044     1.0  0.25873  0.13299  0.92016  1.0000
  H   H1045     1.0  0.29629  0.12511  0.87807  1.0000
  H   H1046     1.0  0.24585  0.42445  0.67310  1.0000
  S   S276      1.0  0.25744  0.09774  0.95649  1.0000
  Fe  Fe138     1.0  0.38125  0.18527  0.68393  1.0000
  S   S277      1.0  0.39662  0.15479  0.68709  1.0000
  S   S278      1.0  0.36813  0.20029  0.70934  1.0000
  C   C652      1.0  0.27841  0.17806  0.95308  1.0000
  Fe  Fe139     1.0  0.37725  0.14964  0.66863  1.0000
  S   S279      1.0  0.36301  0.12324  0.67829  1.0000
  Fe  Fe140     1.0  0.41514  0.16450  0.65937  1.0000
  N   N67       1.0  0.34835  0.24421  0.66410  1.0000
  S   S280      1.0  0.36022  0.17923  0.66792  1.0000
  S   S281      1.0  0.40127  0.19555  0.65755  1.0000
  S   S282      1.0  0.24816  0.09398  0.68846  1.0000
  C   C653      1.0  0.34346  0.25352  0.68122  1.0000
  S   S283      1.0  0.36583  0.25295  0.92459  1.0000
  Fe  Fe141     1.0  0.24103  0.12742  0.95840  1.0000
  H   H1047     1.0  0.31429  0.46079  0.81756  1.0000
  H   H1048     1.0  0.34944  0.27073  0.64425  1.0000
  H   H1049     1.0  0.26973  0.18936  0.94471  1.0000
  H   H1050     1.0  0.34279  0.21678  0.68013  1.0000
  S   S284      1.0  0.26578  0.34082  0.96400  1.0000
  C   C654      1.0  0.23944  0.38010  0.86994  1.0000
  H   H1051     1.0  0.31438  0.27451  0.85711  1.0000
  C   C655      1.0  0.46309  0.16263  0.66453  1.0000
  S   S285      1.0  0.44678  0.15207  0.65670  1.0000
  H   H1052     1.0  0.37724  0.25008  0.65748  1.0000
  C   C656      1.0  0.45945  0.18212  0.66594  1.0000
  H   H1053     1.0  0.24948  0.07103  0.87629  1.0000
  H   H1054     1.0  0.40635  0.17923  0.71529  1.0000
  C   C657      1.0  0.26846  0.12576  0.90882  1.0000
  C   C658      1.0  0.47272  0.19000  0.67247  1.0000
  C   C659      1.0  0.36929  0.23783  0.66013  1.0000
  H   H1055     1.0  0.29992  0.10308  0.89464  1.0000
  C   C660      1.0  0.26040  0.06546  0.71726  1.0000
  H   H1056     1.0  0.34689  0.29762  0.81668  1.0000
  H   H1057     1.0  0.26873  0.05774  0.70619  1.0000
  H   H1058     1.0  0.29469  0.10352  0.92927  1.0000
  Fe  Fe142     1.0  0.28272  0.04044  0.65067  1.0000
  C   C661      1.0  0.43943  0.19149  0.71404  1.0000
  H   H1059     1.0  0.26306  0.13190  0.89515  1.0000
  Fe  Fe143     1.0  0.25756  0.39224  0.82099  1.0000
  C   C662      1.0  0.26895  0.36853  0.91821  1.0000
  S   S286      1.0  0.24403  0.08281  0.91282  1.0000
  C   C663      1.0  0.34780  0.09632  0.66723  1.0000
  C   C664      1.0  0.35438  0.11399  0.66155  1.0000
  H   H1060     1.0  0.25605  0.36380  0.92786  1.0000
  H   H1061     1.0  0.29770  0.31283  0.95169  1.0000
  H   H1062     1.0  0.28159  0.35782  0.92214  1.0000
  C   C665      1.0  0.34221  0.25792  0.64742  1.0000
  S   S287      1.0  0.24880  0.05631  0.77517  1.0000
  H   H1063     1.0  0.43684  0.26798  0.86719  1.0000
  C   C666      1.0  0.37017  0.24082  0.86404  1.0000
  C   C667      1.0  0.36299  0.22789  0.87987  1.0000
  C   C668      1.0  0.36133  0.23143  0.89860  1.0000
  C   C669      1.0  0.36682  0.24798  0.90156  1.0000
  C   C670      1.0  0.37370  0.26101  0.88573  1.0000
  C   C671      1.0  0.37535  0.25745  0.86711  1.0000
  H   H1064     1.0  0.35886  0.21500  0.87766  1.0000
  H   H1065     1.0  0.35598  0.22130  0.91073  1.0000
  H   H1066     1.0  0.37787  0.27388  0.88793  1.0000
  H   H1067     1.0  0.38051  0.26771  0.85519  1.0000
  C   C672      1.0  0.39643  0.23975  0.73325  1.0000
  C   C673      1.0  0.40369  0.23528  0.71489  1.0000
  C   C674      1.0  0.39529  0.22307  0.70742  1.0000
  C   C675      1.0  0.37934  0.21548  0.71817  1.0000
  C   C676      1.0  0.37199  0.22004  0.73646  1.0000
  C   C677      1.0  0.38059  0.23201  0.74406  1.0000
  H   H1068     1.0  0.41591  0.24130  0.70643  1.0000
  H   H1069     1.0  0.40107  0.21968  0.69331  1.0000
  H   H1070     1.0  0.35964  0.21422  0.74486  1.0000
  H   H1071     1.0  0.37486  0.23542  0.75817  1.0000
  H   H1072     1.0  0.43367  0.20299  0.72288  1.0000
  C   C678      1.0  0.46393  0.29683  0.79504  1.0000
  H   H1073     1.0  0.44944  0.30084  0.79200  1.0000
  H   H1074     1.0  0.34935  0.08806  0.68123  1.0000
  C   C679      1.0  0.34185  0.28719  0.82938  1.0000
  C   C680      1.0  0.32381  0.28282  0.86132  1.0000
  H   H1075     1.0  0.27534  0.40265  0.94140  1.0000
  C   C681      1.0  0.26053  0.05731  0.73660  1.0000
  C   C682      1.0  0.44211  0.16692  0.74189  1.0000
  H   H1076     1.0  0.43673  0.17776  0.75152  1.0000
  H   H1077     1.0  0.31941  0.32174  0.82592  1.0000
  H   H1078     1.0  0.33588  0.27223  0.86669  1.0000
  H   H1079     1.0  0.43827  0.15293  0.74984  1.0000
  C   C683      1.0  0.47582  0.31082  0.79174  1.0000
  H   H1080     1.0  0.25337  0.41632  0.91802  1.0000
  C   C684      1.0  0.31446  0.31085  0.83828  1.0000
  H   H1081     1.0  0.33468  0.45787  0.74951  1.0000
  H   H1082     1.0  0.34803  0.24338  0.69396  1.0000
  H   H1083     1.0  0.28069  0.15630  0.91528  1.0000
  C   C685      1.0  0.32522  0.36219  0.77534  1.0000
  C   C686      1.0  0.32644  0.36258  0.79425  1.0000
  C   C687      1.0  0.34138  0.35055  0.80280  1.0000
  C   C688      1.0  0.35471  0.33750  0.79280  1.0000
  C   C689      1.0  0.35305  0.33653  0.77416  1.0000
  C   C690      1.0  0.33852  0.34911  0.76534  1.0000
  H   H1084     1.0  0.31622  0.37252  0.80210  1.0000
  H   H1085     1.0  0.34271  0.35148  0.81716  1.0000
  H   H1086     1.0  0.36334  0.32659  0.76632  1.0000
  H   H1087     1.0  0.33765  0.34876  0.75070  1.0000
  C   C691      1.0  0.28989  0.46096  0.80444  1.0000
  H   H1088     1.0  0.28463  0.39480  0.89088  1.0000
  H   H1089     1.0  0.28896  0.44605  0.81007  1.0000
  H   H1090     1.0  0.35617  0.29785  0.85616  1.0000
  C   C692      1.0  0.27420  0.38807  0.93938  1.0000
  H   H1091     1.0  0.43794  0.14387  0.71873  1.0000
  H   H1092     1.0  0.45531  0.19059  0.71072  1.0000
  N   N68       1.0  0.28854  0.12814  0.90764  1.0000
  C   C693      1.0  0.29466  0.18198  0.95860  1.0000
  H   H1093     1.0  0.31551  0.28976  0.87351  1.0000
  H   H1094     1.0  0.40816  0.16112  0.73608  1.0000
  C   C694      1.0  0.28690  0.39450  0.90570  1.0000
  H   H1095     1.0  0.26696  0.11032  0.91222  1.0000
  H   H1096     1.0  0.26908  0.04337  0.74038  1.0000
  N   N69       1.0  0.43398  0.17286  0.72402  1.0000
  H   H1097     1.0  0.43385  0.19628  0.70030  1.0000
  C   C695      1.0  0.44154  0.15820  0.71161  1.0000
  C   C696      1.0  0.29122  0.30707  0.96596  1.0000
  H   H1098     1.0  0.30471  0.30340  0.83342  1.0000
  H   H1099     1.0  0.26241  0.38301  0.95047  1.0000
  C   C697      1.0  0.27333  0.15964  0.95831  1.0000
  H   H1100     1.0  0.29843  0.19620  0.95445  1.0000
  N   N70       1.0  0.33087  0.29713  0.84509  1.0000
  H   H1101     1.0  0.40656  0.18598  0.73770  1.0000
  H   H1102     1.0  0.34128  0.42767  0.73591  1.0000
  C   C698      1.0  0.47095  0.27769  0.80205  1.0000
  C   C699      1.0  0.30080  0.11868  0.89213  1.0000
  H   H1103     1.0  0.45807  0.16526  0.73890  1.0000
  H   H1104     1.0  0.42954  0.21649  0.85087  1.0000
  S   S288      1.0  0.25330  0.15527  0.95017  1.0000
  C   C700      1.0  0.33908  0.08936  0.65497  1.0000
  H   H1105     1.0  0.33570  0.31521  0.86328  1.0000
  H   H1106     1.0  0.28760  0.37814  0.94247  1.0000
  C   C701      1.0  0.34342  0.30768  0.85130  1.0000
  N   N71       1.0  0.27070  0.38813  0.91997  1.0000
  C   C702      1.0  0.41286  0.17487  0.72852  1.0000
  H   H1107     1.0  0.32473  0.40478  0.78548  1.0000
  C   C703      1.0  0.29817  0.98931  0.65526  1.0000
  H   H1108     1.0  0.28581  0.12570  0.93804  1.0000
  H   H1109     1.0  0.30587  0.31879  0.84967  1.0000
  H   H1110     1.0  0.33400  0.07576  0.65950  1.0000
  H   H1111     1.0  0.35073  0.26619  0.67916  1.0000
  H   H1112     1.0  0.43540  0.16207  0.69814  1.0000
  S   S289      1.0  0.36557  0.20516  0.96458  1.0000
  H   H1113     1.0  0.35475  0.27722  0.83373  1.0000
  Fe  Fe144     1.0  0.35315  0.23523  0.95205  1.0000
  H   H1114     1.0  0.28475  0.15610  0.89009  1.0000
  H   H1115     1.0  0.30063  0.38469  0.90778  1.0000
  C   C704      1.0  0.25276  0.40141  0.91655  1.0000
  N   N72       1.0  0.29659  0.11448  0.69784  1.0000
  C   C705      1.0  0.27774  0.12149  0.70874  1.0000
  C   C706      1.0  0.31202  0.11855  0.70631  1.0000
  C   C707      1.0  0.29782  0.12433  0.67774  1.0000
  C   C708      1.0  0.29870  0.09353  0.69858  1.0000
  H   H1116     1.0  0.27584  0.11365  0.72374  1.0000
  H   H1117     1.0  0.26580  0.11944  0.70218  1.0000
  H   H1118     1.0  0.27598  0.13709  0.70918  1.0000
  H   H1119     1.0  0.31133  0.11156  0.72155  1.0000
  H   H1120     1.0  0.32645  0.11315  0.69865  1.0000
  H   H1121     1.0  0.31125  0.13425  0.70554  1.0000
  H   H1122     1.0  0.28661  0.12120  0.67081  1.0000
  H   H1123     1.0  0.31195  0.11967  0.66912  1.0000
  H   H1124     1.0  0.29605  0.14018  0.67662  1.0000
  H   H1125     1.0  0.31297  0.08761  0.69102  1.0000
  H   H1126     1.0  0.28776  0.09003  0.69163  1.0000
  H   H1127     1.0  0.29706  0.08563  0.71355  1.0000
  N   N73       1.0  0.43499  0.24034  0.86146  1.0000
  C   C709      1.0  0.42670  0.23247  0.84827  1.0000
  C   C710      1.0  0.42667  0.23320  0.88140  1.0000
  C   C711      1.0  0.43060  0.26157  0.85764  1.0000
  C   C712      1.0  0.45603  0.23414  0.85852  1.0000
  H   H1128     1.0  0.46998  0.20515  0.67330  1.0000
  H   H1129     1.0  0.41090  0.23708  0.84982  1.0000
  H   H1130     1.0  0.31611  0.11997  0.89095  1.0000
  H   H1131     1.0  0.45994  0.21821  0.86108  1.0000
  H   H1132     1.0  0.42988  0.21725  0.88486  1.0000
  H   H1133     1.0  0.43235  0.23908  0.89178  1.0000
  H   H1134     1.0  0.41486  0.26680  0.85985  1.0000
  H   H1135     1.0  0.43653  0.26744  0.84265  1.0000
  C   C713      1.0  0.30413  0.46933  0.80874  1.0000
  H   H1136     1.0  0.46270  0.23946  0.84361  1.0000
  H   H1137     1.0  0.44656  0.19115  0.66175  1.0000
  N   N74       1.0  0.32867  0.43033  0.76497  1.0000
  C   C714      1.0  0.33485  0.44891  0.76393  1.0000
  C   C715      1.0  0.34155  0.41958  0.75069  1.0000
  C   C716      1.0  0.30884  0.43386  0.76100  1.0000
  C   C717      1.0  0.32938  0.41886  0.78427  1.0000
  H   H1138     1.0  0.32522  0.45746  0.77436  1.0000
  H   H1139     1.0  0.47043  0.32559  0.78612  1.0000
  H   H1140     1.0  0.34964  0.44683  0.76718  1.0000
  H   H1141     1.0  0.33722  0.40543  0.75125  1.0000
  C   C718      1.0  0.23865  0.09335  0.72687  1.0000
  H   H1142     1.0  0.35665  0.41660  0.75323  1.0000
  H   H1143     1.0  0.30387  0.42014  0.76134  1.0000
  H   H1144     1.0  0.30766  0.44274  0.74669  1.0000
  H   H1145     1.0  0.29861  0.44157  0.77172  1.0000
  H   H1146     1.0  0.37350  0.23072  0.64728  1.0000
  H   H1147     1.0  0.31987  0.42650  0.79544  1.0000
  H   H1148     1.0  0.34417  0.41578  0.78770  1.0000
  H   H1149     1.0  0.33310  0.27854  0.82469  1.0000
  H   H1150     1.0  0.34890  0.31868  0.83943  1.0000
  H   H1151     1.0  0.45743  0.15656  0.70756  1.0000
  H   H1152     1.0  0.43277  0.23738  0.83310  1.0000
  C   C719      1.0  0.31461  0.99172  0.64165  1.0000
  S   S290      1.0  0.25313  0.05816  0.65291  1.0000
  H   H1153     1.0  0.32774  0.25848  0.68473  1.0000
  H   H1154     1.0  0.46280  0.23979  0.86825  1.0000
  H   H1155     1.0  0.28867  0.40923  0.90668  1.0000
  C   C720      1.0  0.28976  0.14884  0.90372  1.0000
  H   H1156     1.0  0.24159  0.46852  0.66129  1.0000
  C   C721      1.0  0.29511  0.11923  0.92597  1.0000
  H   H1157     1.0  0.31002  0.12119  0.92587  1.0000
  C   C722      1.0  0.24917  0.06687  0.75105  1.0000
  C   C723      1.0  0.33853  0.22741  0.66759  1.0000
  H   H1158     1.0  0.24981  0.40191  0.90195  1.0000
  H   H1159     1.0  0.30470  0.15120  0.90280  1.0000
  H   H1160     1.0  0.37435  0.22738  0.67240  1.0000
  H   H1161     1.0  0.24603  0.35215  0.88691  1.0000
  H   H1162     1.0  0.24403  0.39163  0.74750  1.0000
  S   S291      1.0  0.28058  0.00899  0.66127  1.0000
  Fe  Fe145     1.0  0.38106  0.18759  0.64150  1.0000
  H   H1163     1.0  0.24641  0.45501  0.68408  1.0000
  H   H1164     1.0  0.32268  0.23166  0.67050  1.0000
  S   S292      1.0  0.25685  0.37404  0.85039  1.0000
  H   H1165     1.0  0.32645  0.26302  0.64983  1.0000
  H   H1166     1.0  0.24730  0.38604  0.71431  1.0000
  C   C724      1.0  0.23819  0.08490  0.74613  1.0000
  H   H1167     1.0  0.24014  0.39689  0.92686  1.0000
  C   C725      1.0  0.35287  0.12432  0.64320  1.0000
  C   C726      1.0  0.47998  0.15109  0.66974  1.0000
  C   C727      1.0  0.30616  0.16740  0.96916  1.0000
  H   H1168     1.0  0.48281  0.13598  0.66872  1.0000
  Fe  Fe146     1.0  0.23812  0.40185  0.78576  1.0000
  H   H1169     1.0  0.25191  0.25630  0.96847  1.0000
  S   S293      1.0  0.39671  0.15730  0.64093  1.0000
  C   C728      1.0  0.23744  0.36634  0.88658  1.0000
  H   H1170     1.0  0.35799  0.13791  0.63865  1.0000
  Fe  Fe147     1.0  0.33747  0.51098  0.19782  1.0000
  S   S294      1.0  0.33443  0.54248  0.18438  1.0000
  S   S295      1.0  0.31031  0.50121  0.21421  1.0000
  S   S296      1.0  0.37535  0.94953  0.23509  1.0000
  H   H1171     1.0  0.30068  0.88087  0.12732  1.0000
  H   H1172     1.0  0.25546  0.52375  0.06921  1.0000
  H   H1173     1.0  0.40431  0.58870  0.14304  1.0000
  H   H1174     1.0  0.45000  0.91495  0.18395  1.0000
  Fe  Fe148     1.0  0.36747  0.93856  0.21150  1.0000
  H   H1175     1.0  0.30212  0.90767  0.08859  1.0000
  S   S297      1.0  0.38011  0.91016  0.20155  1.0000
  S   S298      1.0  0.33578  0.94619  0.22078  1.0000
  H   H1176     1.0  0.30402  0.57109  0.26854  1.0000
  C   C729      1.0  0.24680  0.53936  0.11952  1.0000
  S   S299      1.0  0.28186  0.95085  0.12801  1.0000
  H   H1177     1.0  0.43708  0.66205  0.19847  1.0000
  C   C730      1.0  0.30840  0.96444  0.28286  1.0000
  C   C731      1.0  0.35909  0.86268  0.26711  1.0000
  Fe  Fe149     1.0  0.25229  0.96079  0.11927  1.0000
  H   H1178     1.0  0.27045  0.95339  0.22323  1.0000
  Fe  Fe150     1.0  0.27624  0.61559  0.06405  1.0000
  S   S300      1.0  0.30537  0.62253  0.06374  1.0000
  S   S301      1.0  0.27905  0.58420  0.06129  1.0000
  Fe  Fe151     1.0  0.25708  0.65730  0.06678  1.0000
  S   S302      1.0  0.28480  0.66688  0.06639  1.0000
  H   H1179     1.0  0.46569  0.68466  0.20571  1.0000
  Fe  Fe152     1.0  0.29625  0.64908  0.04322  1.0000
  S   S303      1.0  0.31685  0.65983  0.01732  1.0000
  Fe  Fe153     1.0  0.29104  0.63949  0.08687  1.0000
  S   S304      1.0  0.29925  0.63731  0.11584  1.0000
  S   S305      1.0  0.26800  0.64135  0.04200  1.0000
  S   S306      1.0  0.26251  0.63072  0.08877  1.0000
  Fe  Fe154     1.0  0.38578  0.62593  0.19249  1.0000
  S   S307      1.0  0.40407  0.62778  0.16347  1.0000
  S   S308      1.0  0.37976  0.59710  0.20982  1.0000
  Fe  Fe155     1.0  0.38530  0.66855  0.19349  1.0000
  S   S309      1.0  0.40301  0.67351  0.16425  1.0000
  S   S310      1.0  0.37604  0.69044  0.21356  1.0000
  Fe  Fe156     1.0  0.38433  0.65569  0.15638  1.0000
  S   S311      1.0  0.37481  0.66243  0.12738  1.0000
  Fe  Fe157     1.0  0.42091  0.64523  0.17394  1.0000
  S   S312      1.0  0.45326  0.63765  0.17032  1.0000
  S   S313      1.0  0.36496  0.65293  0.18496  1.0000
  S   S314      1.0  0.40427  0.64116  0.20366  1.0000
  S   S315      1.0  0.39543  0.79692  0.24478  1.0000
  Fe  Fe158     1.0  0.43664  0.76766  0.27120  1.0000
  S   S316      1.0  0.44177  0.78462  0.24173  1.0000
  S   S317      1.0  0.46399  0.74995  0.27987  1.0000
  Fe  Fe159     1.0  0.41917  0.80769  0.25304  1.0000
  S   S318      1.0  0.42345  0.83825  0.25171  1.0000
  Fe  Fe160     1.0  0.41765  0.77184  0.23664  1.0000
  S   S319      1.0  0.42253  0.75755  0.21060  1.0000
  Fe  Fe161     1.0  0.39319  0.77952  0.27441  1.0000
  S   S320      1.0  0.41370  0.75366  0.26558  1.0000
  C   C732      1.0  0.25357  0.48492  0.28895  1.0000
  C   C733      1.0  0.38831  0.70983  0.21188  1.0000
  C   C734      1.0  0.38497  0.71965  0.22739  1.0000
  C   C735      1.0  0.39520  0.73442  0.22705  1.0000
  C   C736      1.0  0.40884  0.73960  0.21113  1.0000
  C   C737      1.0  0.41201  0.72997  0.19549  1.0000
  C   C738      1.0  0.40171  0.71523  0.19581  1.0000
  H   H1180     1.0  0.37451  0.71571  0.23980  1.0000
  H   H1181     1.0  0.39244  0.74184  0.23910  1.0000
  H   H1182     1.0  0.42241  0.73397  0.18304  1.0000
  H   H1183     1.0  0.40417  0.70803  0.18362  1.0000
  H   H1184     1.0  0.43597  0.70326  0.22214  1.0000
  C   C739      1.0  0.33148  0.57851  0.00027  1.0000
  H   H1185     1.0  0.28949  0.67961  0.10239  1.0000
  H   H1186     1.0  0.25778  0.70038  0.04905  1.0000
  H   H1187     1.0  0.25836  0.73542  0.04273  1.0000
  C   C740      1.0  0.31426  0.65640  0.99470  1.0000
  C   C741      1.0  0.30064  0.64596  0.99278  1.0000
  H   H1188     1.0  0.48412  0.76424  0.21681  1.0000
  C   C742      1.0  0.41748  0.93114  0.17038  1.0000
  H   H1189     1.0  0.29091  0.64066  0.00517  1.0000
  H   H1190     1.0  0.43486  0.68770  0.19516  1.0000
  C   C743      1.0  0.31977  0.64543  0.11867  1.0000
  C   C744      1.0  0.32332  0.64444  0.13720  1.0000
  C   C745      1.0  0.33978  0.65030  0.14007  1.0000
  C   C746      1.0  0.35294  0.65699  0.12440  1.0000
  C   C747      1.0  0.34915  0.65841  0.10586  1.0000
  C   C748      1.0  0.33261  0.65263  0.10298  1.0000
  H   H1191     1.0  0.31336  0.63900  0.14941  1.0000
  H   H1192     1.0  0.34242  0.64940  0.15441  1.0000
  H   H1193     1.0  0.35924  0.66368  0.09367  1.0000
  H   H1194     1.0  0.32994  0.65355  0.08863  1.0000
  C   C749      1.0  0.46935  0.68982  0.16271  1.0000
  C   C750      1.0  0.45875  0.67537  0.16314  1.0000
  C   C751      1.0  0.46686  0.65604  0.16761  1.0000
  H   H1195     1.0  0.37608  0.60279  0.16383  1.0000
  H   H1196     1.0  0.32841  0.52791  0.23418  1.0000
  H   H1197     1.0  0.46290  0.70477  0.15948  1.0000
  H   H1198     1.0  0.44424  0.67921  0.16021  1.0000
  H   H1199     1.0  0.41813  0.91538  0.17543  1.0000
  H   H1200     1.0  0.41618  0.67582  0.20998  1.0000
  H   H1201     1.0  0.25803  0.91894  0.12344  1.0000
  H   H1202     1.0  0.27254  0.72246  0.09533  1.0000
  C   C752      1.0  0.31570  0.53871  0.23827  1.0000
  S   S321      1.0  0.35522  0.49667  0.22048  1.0000
  C   C753      1.0  0.39044  0.89008  0.21681  1.0000
  C   C754      1.0  0.39716  0.89215  0.23294  1.0000
  C   C755      1.0  0.40708  0.87609  0.24367  1.0000
  C   C756      1.0  0.40985  0.85779  0.23868  1.0000
  C   C757      1.0  0.40242  0.85557  0.22304  1.0000
  C   C758      1.0  0.39300  0.87173  0.21199  1.0000
  H   H1203     1.0  0.39520  0.90620  0.23685  1.0000
  H   H1204     1.0  0.41275  0.87789  0.25580  1.0000
  H   H1205     1.0  0.40454  0.84155  0.21902  1.0000
  H   H1206     1.0  0.38787  0.87003  0.19950  1.0000
  C   C759      1.0  0.29016  0.96120  0.14442  1.0000
  C   C760      1.0  0.30685  0.95180  0.15182  1.0000
  H   H1207     1.0  0.38552  0.83877  0.28590  1.0000
  H   H1208     1.0  0.31419  0.93826  0.14772  1.0000
  H   H1209     1.0  0.29169  0.51313  0.11394  1.0000
  C   C761      1.0  0.26044  0.57041  0.06618  1.0000
  H   H1210     1.0  0.32418  0.56579  0.00288  1.0000
  H   H1211     1.0  0.33191  0.84189  0.26791  1.0000
  H   H1212     1.0  0.31284  0.54884  0.22495  1.0000
  H   H1213     1.0  0.42356  0.93347  0.15490  1.0000
  C   C762      1.0  0.29988  0.64198  0.97483  1.0000
  C   C763      1.0  0.34697  0.55747  0.19178  1.0000
  C   C764      1.0  0.34074  0.57743  0.18870  1.0000
  C   C765      1.0  0.35069  0.58975  0.19415  1.0000
  C   C766      1.0  0.36717  0.58221  0.20234  1.0000
  C   C767      1.0  0.37322  0.56224  0.20566  1.0000
  C   C768      1.0  0.36319  0.54990  0.20036  1.0000
  H   H1214     1.0  0.32809  0.58337  0.18220  1.0000
  H   H1215     1.0  0.34558  0.60509  0.19212  1.0000
  H   H1216     1.0  0.38582  0.55630  0.21224  1.0000
  H   H1217     1.0  0.36822  0.53457  0.20265  1.0000
  H   H1218     1.0  0.28033  0.54443  0.06184  1.0000
  H   H1219     1.0  0.34709  0.57319  0.00004  1.0000
  C   C769      1.0  0.39688  0.59523  0.13060  1.0000
  H   H1220     1.0  0.42065  0.92008  0.20767  1.0000
  C   C770      1.0  0.26102  0.51262  0.14112  1.0000
  C   C771      1.0  0.36912  0.60884  0.15104  1.0000
  C   C772      1.0  0.33600  0.55827  0.24529  1.0000
  S   S322      1.0  0.36936  0.96609  0.19056  1.0000
  N   N75       1.0  0.31905  0.54874  0.25284  1.0000
  H   H1221     1.0  0.32543  0.54157  0.28147  1.0000
  H   H1222     1.0  0.30013  0.60529  0.00038  1.0000
  H   H1223     1.0  0.33897  0.56610  0.25581  1.0000
  H   H1224     1.0  0.37037  0.62002  0.11313  1.0000
  H   H1225     1.0  0.23953  0.71435  0.12787  1.0000
  H   H1226     1.0  0.30987  0.52733  0.27644  1.0000
  H   H1227     1.0  0.25013  0.67169  0.12429  1.0000
  H   H1228     1.0  0.33397  0.56889  0.23206  1.0000
  S   S323      1.0  0.34547  0.48620  0.18169  1.0000
  H   H1229     1.0  0.40196  0.93754  0.17188  1.0000
  C   C773      1.0  0.30202  0.56328  0.25752  1.0000
  H   H1230     1.0  0.45617  0.93677  0.18746  1.0000
  S   S324      1.0  0.41576  0.79161  0.28320  1.0000
  H   H1231     1.0  0.37263  0.62350  0.14580  1.0000
  H   H1232     1.0  0.26411  0.54781  0.14568  1.0000
  Fe  Fe162     1.0  0.33811  0.97455  0.20174  1.0000
  H   H1233     1.0  0.25306  0.79225  0.98676  1.0000
  H   H1234     1.0  0.25721  0.89477  0.13517  1.0000
  H   H1235     1.0  0.25815  0.88504  0.10415  1.0000
  H   H1236     1.0  0.29910  0.57414  0.24467  1.0000
  C   C774      1.0  0.28261  0.95975  0.22510  1.0000
  H   H1237     1.0  0.25186  0.96624  0.25228  1.0000
  H   H1238     1.0  0.44293  0.64210  0.22894  1.0000
  H   H1239     1.0  0.33223  0.61602  0.99641  1.0000
  H   H1240     1.0  0.32753  0.61747  0.02135  1.0000
  H   H1241     1.0  0.23631  0.54488  0.13146  1.0000
  Fe  Fe163     1.0  0.37542  0.97787  0.21494  1.0000
  S   S325      1.0  0.32941  0.95021  0.27315  1.0000
  H   H1242     1.0  0.28386  0.92656  0.09659  1.0000
  C   C775      1.0  0.28253  0.68691  0.11476  1.0000
  H   H1243     1.0  0.41788  0.69076  0.23702  1.0000
  C   C776      1.0  0.37085  0.57738  0.14372  1.0000
  H   H1244     1.0  0.30132  0.87385  0.10476  1.0000
  N   N76       1.0  0.32355  0.59079  0.01498  1.0000
  C   C777      1.0  0.30284  0.59749  0.01473  1.0000
  C   C778      1.0  0.32628  0.57962  0.03402  1.0000
  C   C779      1.0  0.33355  0.60753  0.01089  1.0000
  H   H1245     1.0  0.46843  0.72917  0.19456  1.0000
  H   H1246     1.0  0.45809  0.74513  0.23169  1.0000
  C   C780      1.0  0.29498  0.95563  0.29690  1.0000
  S   S326      1.0  0.24669  0.95073  0.09370  1.0000
  C   C781      1.0  0.41920  0.93576  0.20196  1.0000
  H   H1247     1.0  0.36765  0.87025  0.27341  1.0000
  S   S327      1.0  0.36247  0.77952  0.28911  1.0000
  H   H1248     1.0  0.29155  0.94864  0.23420  1.0000
  H   H1249     1.0  0.43309  0.96743  0.18317  1.0000
  H   H1250     1.0  0.27673  0.55497  0.12208  1.0000
  H   H1251     1.0  0.25517  0.50195  0.13579  1.0000
  N   N77       1.0  0.35739  0.84332  0.27830  1.0000
  H   H1252     1.0  0.26344  0.69019  0.97782  1.0000
  H   H1253     1.0  0.25348  0.69599  0.14271  1.0000
  H   H1254     1.0  0.43199  0.96406  0.15949  1.0000
  H   H1255     1.0  0.27172  0.51278  0.10292  1.0000
  H   H1256     1.0  0.37086  0.59663  0.10788  1.0000
  H   H1257     1.0  0.37602  0.81719  0.28737  1.0000
  H   H1258     1.0  0.34171  0.57420  0.03480  1.0000
  H   H1259     1.0  0.40257  0.58628  0.11926  1.0000
  N   N78       1.0  0.27578  0.97738  0.23362  1.0000
  C   C782      1.0  0.29160  0.87947  0.11711  1.0000
  C   C783      1.0  0.26378  0.71156  0.09491  1.0000
  C   C784      1.0  0.26789  0.89562  0.09739  1.0000
  N   N79       1.0  0.37584  0.59671  0.13614  1.0000
  C   C785      1.0  0.30527  0.97771  0.16927  1.0000
  H   H1260     1.0  0.35503  0.57802  0.14783  1.0000
  S   S328      1.0  0.31718  0.48874  0.26685  1.0000
  H   H1261     1.0  0.27686  0.89059  0.08441  1.0000
  H   H1262     1.0  0.37601  0.56762  0.13303  1.0000
  C   C786      1.0  0.44817  0.93079  0.17906  1.0000
  C   C787      1.0  0.24226  0.79324  0.97741  1.0000
  C   C788      1.0  0.26542  0.55069  0.06547  1.0000
  H   H1263     1.0  0.35399  0.83170  0.25435  1.0000
  H   H1264     1.0  0.25852  0.90932  0.09259  1.0000
  H   H1265     1.0  0.42584  0.94262  0.21084  1.0000
  C   C789      1.0  0.29234  0.91229  0.10137  1.0000
  H   H1266     1.0  0.34911  0.54766  0.24164  1.0000
  H   H1267     1.0  0.33492  0.52314  0.26708  1.0000
  H   H1268     1.0  0.28240  0.53405  0.09814  1.0000
  H   H1269     1.0  0.28754  0.53502  0.13794  1.0000
  H   H1270     1.0  0.45507  0.93345  0.16381  1.0000
  N   N80       1.0  0.26495  0.52907  0.12585  1.0000
  H   H1271     1.0  0.40104  0.60969  0.12509  1.0000
  C   C790      1.0  0.31428  0.95991  0.16433  1.0000
  H   H1272     1.0  0.29272  0.49430  0.30271  1.0000
  H   H1273     1.0  0.40365  0.94160  0.20409  1.0000
  C   C791      1.0  0.36651  0.60557  0.11933  1.0000
  C   C792      1.0  0.32248  0.53465  0.27024  1.0000
  H   H1274     1.0  0.33724  0.67158  0.97981  1.0000
  C   C793      1.0  0.27829  0.52198  0.10950  1.0000
  H   H1275     1.0  0.28898  0.55651  0.26317  1.0000
  C   C794      1.0  0.26464  0.48967  0.30052  1.0000
  H   H1276     1.0  0.28245  0.67560  0.12777  1.0000
  C   C795      1.0  0.25130  0.53891  0.06962  1.0000
  H   H1277     1.0  0.47501  0.72834  0.24448  1.0000
  H   H1278     1.0  0.46168  0.72025  0.23002  1.0000
  H   H1279     1.0  0.27550  0.90728  0.13810  1.0000
  H   H1280     1.0  0.25047  0.51729  0.15343  1.0000
  C   C796      1.0  0.42581  0.96055  0.17486  1.0000
  H   H1281     1.0  0.35331  0.61037  0.15565  1.0000
  N   N81       1.0  0.27974  0.89808  0.11087  1.0000
  Fe  Fe164     1.0  0.34370  0.95944  0.24291  1.0000
  H   H1282     1.0  0.37725  0.57056  0.15675  1.0000
  H   H1283     1.0  0.46666  0.84112  0.24233  1.0000
  C   C797      1.0  0.47597  0.74052  0.19645  1.0000
  H   H1284     1.0  0.27331  0.96226  0.26260  1.0000
  H   H1285     1.0  0.24920  0.71936  0.09267  1.0000
  C   C798      1.0  0.26712  0.90496  0.12770  1.0000
  N   N82       1.0  0.26292  0.69700  0.11253  1.0000
  H   H1286     1.0  0.28250  0.86847  0.12439  1.0000
  H   H1287     1.0  0.23984  0.52982  0.11376  1.0000
  C   C799      1.0  0.46917  0.73200  0.23083  1.0000
  H   H1288     1.0  0.30336  0.53084  0.24366  1.0000
  H   H1289     1.0  0.32963  0.58658  0.98572  1.0000
  H   H1290     1.0  0.44419  0.65303  0.24877  1.0000
  N   N83       1.0  0.42768  0.93957  0.18154  1.0000
  C   C800      1.0  0.47552  0.75932  0.29422  1.0000
  N   N84       1.0  0.44136  0.67276  0.22250  1.0000
  C   C801      1.0  0.46227  0.67165  0.21612  1.0000
  C   C802      1.0  0.43739  0.65504  0.23587  1.0000
  C   C803      1.0  0.43197  0.67470  0.20578  1.0000
  C   C804      1.0  0.43365  0.68963  0.23206  1.0000
  H   H1291     1.0  0.30126  0.91472  0.11125  1.0000
  H   H1292     1.0  0.29469  0.58530  0.01866  1.0000
  H   H1293     1.0  0.46839  0.65907  0.20878  1.0000
  C   C805      1.0  0.27371  0.54230  0.13322  1.0000
  H   H1294     1.0  0.33255  0.85334  0.29790  1.0000
  H   H1295     1.0  0.42167  0.65540  0.24069  1.0000
  H   H1296     1.0  0.34912  0.60309  0.01150  1.0000
  H   H1297     1.0  0.29655  0.60736  0.02518  1.0000
  H   H1298     1.0  0.44045  0.68883  0.24472  1.0000
  H   H1299     1.0  0.29159  0.96279  0.21077  1.0000
  C   C806      1.0  0.37674  0.83192  0.27912  1.0000
  C   C807      1.0  0.24109  0.57837  0.07073  1.0000
  C   C808      1.0  0.34653  0.83360  0.26903  1.0000
  H   H1300     1.0  0.45459  0.83360  0.27635  1.0000
  Fe  Fe165     1.0  0.32834  0.48542  0.23603  1.0000
  H   H1301     1.0  0.25699  0.67550  0.09893  1.0000
  H   H1302     1.0  0.46995  0.67018  0.22832  1.0000
  H   H1303     1.0  0.29194  0.69696  0.11587  1.0000
  C   C809      1.0  0.34731  0.84497  0.29792  1.0000
  H   H1304     1.0  0.35057  0.60761  0.12318  1.0000
  C   C810      1.0  0.28417  0.49081  0.29366  1.0000
  C   C811      1.0  0.25100  0.68299  0.11131  1.0000
  C   C812      1.0  0.24589  0.72997  0.05132  1.0000
  H   H1305     1.0  0.32723  0.95260  0.16975  1.0000
  H   H1306     1.0  0.41051  0.96764  0.17669  1.0000
  C   C813      1.0  0.24563  0.71010  0.05497  1.0000
  H   H1307     1.0  0.32044  0.58852  0.04540  1.0000
  S   S329      1.0  0.24970  0.48475  0.07188  1.0000
  H   H1308     1.0  0.31860  0.56708  0.03774  1.0000
  N   N85       1.0  0.48446  0.73504  0.21413  1.0000
  H   H1309     1.0  0.38469  0.83039  0.26456  1.0000
  C   C814      1.0  0.25433  0.70658  0.12916  1.0000
  C   C815      1.0  0.28153  0.48266  0.26367  1.0000
  C   C816      1.0  0.29268  0.48727  0.27522  1.0000
  H   H1310     1.0  0.24927  0.55188  0.10801  1.0000
  H   H1311     1.0  0.34478  0.87187  0.26645  1.0000
  H   H1312     1.0  0.27027  0.70483  0.08208  1.0000
  H   H1313     1.0  0.24354  0.77876  0.97368  1.0000
  H   H1314     1.0  0.36637  0.86191  0.25214  1.0000
  H   H1315     1.0  0.26295  0.71727  0.13051  1.0000
  C   C817      1.0  0.47476  0.82617  0.24305  1.0000
  H   H1316     1.0  0.46528  0.75402  0.19658  1.0000
  C   C818      1.0  0.26210  0.48149  0.27051  1.0000
  C   C819      1.0  0.46340  0.81899  0.27691  1.0000
  H   H1317     1.0  0.34485  0.81901  0.27721  1.0000
  H   H1318     1.0  0.30264  0.97465  0.24313  1.0000
  C   C820      1.0  0.28085  0.97874  0.14982  1.0000
  H   H1319     1.0  0.28946  0.63367  0.97345  1.0000
  H   H1320     1.0  0.27431  0.50490  0.14667  1.0000
  C   C821      1.0  0.32665  0.66347  0.97842  1.0000
  C   C822      1.0  0.26445  0.97266  0.25284  1.0000
  H   H1321     1.0  0.45401  0.80914  0.27527  1.0000
  H   H1322     1.0  0.46508  0.81730  0.24008  1.0000
  H   H1323     1.0  0.23707  0.59358  0.07125  1.0000
  C   C823      1.0  0.27748  0.96643  0.30396  1.0000
  H   H1324     1.0  0.24274  0.52007  0.01998  1.0000
  H   H1325     1.0  0.29797  0.94033  0.30206  1.0000
  H   H1326     1.0  0.46732  0.81449  0.29142  1.0000
  H   H1327     1.0  0.48585  0.84599  0.26553  1.0000
  N   N86       1.0  0.48064  0.81873  0.26193  1.0000
  H   H1328     1.0  0.48180  0.78895  0.26049  1.0000
  C   C824      1.0  0.46537  0.77306  0.30524  1.0000
  H   H1329     1.0  0.23614  0.69010  0.10940  1.0000
  C   C825      1.0  0.48586  0.65122  0.17099  1.0000
  H   H1330     1.0  0.32455  0.79037  0.30833  1.0000
  H   H1331     1.0  0.43058  0.73107  0.63246  1.0000
  H   H1332     1.0  0.32541  0.79156  0.43721  1.0000
  Fe  Fe166     1.0  0.26736  0.77487  0.39468  1.0000
  H   H1333     1.0  0.41542  0.68671  0.62677  1.0000
  S   S330      1.0  0.46215  0.79105  0.61282  1.0000
  C   C826      1.0  0.25468  0.73249  0.58494  1.0000
  H   H1334     1.0  0.24564  0.88888  0.40305  1.0000
  C   C827      1.0  0.31773  0.74798  0.37092  1.0000
  S   S331      1.0  0.47082  0.74617  0.60725  1.0000
  H   H1335     1.0  0.25822  0.49230  0.31476  1.0000
  H   H1336     1.0  0.31334  0.85893  0.58776  1.0000
  C   C828      1.0  0.33232  0.73804  0.34073  1.0000
  S   S332      1.0  0.28085  0.82445  0.39462  1.0000
  C   C829      1.0  0.23941  0.70311  0.57559  1.0000
  C   C830      1.0  0.29864  0.75161  0.34622  1.0000
  S   S333      1.0  0.29102  0.77825  0.40915  1.0000
  H   H1337     1.0  0.29581  0.74552  0.33434  1.0000
  Fe  Fe167     1.0  0.27062  0.80300  0.41979  1.0000
  S   S334      1.0  0.26691  0.81097  0.44913  1.0000
  Fe  Fe168     1.0  0.29927  0.79926  0.38284  1.0000
  S   S335      1.0  0.33083  0.79961  0.37182  1.0000
  H   H1338     1.0  0.28509  0.75300  0.35677  1.0000
  C   C831      1.0  0.33436  0.79083  0.31767  1.0000
  Fe  Fe169     1.0  0.31750  0.76973  0.53834  1.0000
  S   S336      1.0  0.31687  0.74236  0.55963  1.0000
  S   S337      1.0  0.32194  0.76601  0.50740  1.0000
  Fe  Fe170     1.0  0.31379  0.79385  0.56961  1.0000
  S   S338      1.0  0.31243  0.76832  0.59319  1.0000
  S   S339      1.0  0.31297  0.82435  0.57393  1.0000
  Fe  Fe171     1.0  0.33661  0.75354  0.57360  1.0000
  S   S340      1.0  0.36478  0.73574  0.58087  1.0000
  Fe  Fe172     1.0  0.29282  0.75962  0.57695  1.0000
  S   S341      1.0  0.26342  0.75183  0.58997  1.0000
  S   S342      1.0  0.33906  0.77956  0.55086  1.0000
  S   S343      1.0  0.29232  0.78650  0.55480  1.0000
  H   H1339     1.0  0.32091  0.76280  0.36580  1.0000
  H   H1340     1.0  0.34006  0.97740  0.62554  1.0000
  C   C832      1.0  0.26692  0.71772  0.57655  1.0000
  H   H1341     1.0  0.28224  0.71756  0.57362  1.0000
  C   C833      1.0  0.24621  0.74142  0.53053  1.0000
  H   H1342     1.0  0.30743  0.71308  0.35130  1.0000
  C   C834      1.0  0.32452  0.81254  0.60914  1.0000
  C   C835      1.0  0.31846  0.82805  0.59544  1.0000
  H   H1343     1.0  0.40467  0.81773  0.57773  1.0000
  H   H1344     1.0  0.32480  0.79803  0.60720  1.0000
  H   H1345     1.0  0.36202  0.83017  0.59412  1.0000
  C   C836      1.0  0.24874  0.73331  0.38989  1.0000
  C   C837      1.0  0.41620  0.69956  0.63268  1.0000
  H   H1346     1.0  0.41336  0.81464  0.62838  1.0000
  C   C838      1.0  0.30984  0.72001  0.36280  1.0000
  H   H1347     1.0  0.24657  0.73329  0.54522  1.0000
  H   H1348     1.0  0.39315  0.82918  0.54659  1.0000
  C   C839      1.0  0.36702  0.83251  0.57838  1.0000
  H   H1349     1.0  0.33573  0.80359  0.63553  1.0000
  C   C840      1.0  0.25336  0.76977  0.50811  1.0000
  C   C841      1.0  0.28169  0.79801  0.46563  1.0000
  C   C842      1.0  0.28237  0.80577  0.48169  1.0000
  C   C843      1.0  0.29444  0.79597  0.49484  1.0000
  C   C844      1.0  0.30605  0.77847  0.49182  1.0000
  C   C845      1.0  0.30536  0.77075  0.47577  1.0000
  C   C846      1.0  0.29307  0.78038  0.46283  1.0000
  H   H1350     1.0  0.27358  0.81944  0.48392  1.0000
  H   H1351     1.0  0.29500  0.80207  0.50713  1.0000
  H   H1352     1.0  0.31430  0.75719  0.47342  1.0000
  H   H1353     1.0  0.29248  0.77416  0.45065  1.0000
  C   C847      1.0  0.24266  0.88710  0.38954  1.0000
  C   C848      1.0  0.36680  0.78741  0.32355  1.0000
  C   C849      1.0  0.35951  0.79190  0.34190  1.0000
  C   C850      1.0  0.33964  0.79561  0.34824  1.0000
  C   C851      1.0  0.32711  0.79545  0.33592  1.0000
  C   C852      1.0  0.47502  0.78109  0.31585  1.0000
  C   C853      1.0  0.25001  0.71324  0.39337  1.0000
  H   H1354     1.0  0.36929  0.79206  0.35136  1.0000
  H   H1355     1.0  0.31182  0.79881  0.34046  1.0000
  C   C854      1.0  0.23973  0.86599  0.36848  1.0000
  S   S344      1.0  0.26613  0.74319  0.39697  1.0000
  H   H1356     1.0  0.32154  0.81544  0.45809  1.0000
  C   C855      1.0  0.40088  0.76160  0.61101  1.0000
  C   C856      1.0  0.40983  0.74951  0.59785  1.0000
  C   C857      1.0  0.39863  0.74137  0.58886  1.0000
  C   C858      1.0  0.37850  0.74563  0.59269  1.0000
  C   C859      1.0  0.36963  0.75757  0.60598  1.0000
  C   C860      1.0  0.38079  0.76549  0.61514  1.0000
  H   H1357     1.0  0.42530  0.74675  0.59432  1.0000
  H   H1358     1.0  0.40554  0.73213  0.57856  1.0000
  H   H1359     1.0  0.35413  0.76070  0.60921  1.0000
  H   H1360     1.0  0.35511  0.85228  0.30531  1.0000
  H   H1361     1.0  0.38212  0.78406  0.31894  1.0000
  C   C861      1.0  0.25931  0.70305  0.57199  1.0000
  N   N87       1.0  0.32713  0.82148  0.42733  1.0000
  H   H1362     1.0  0.36005  0.79671  0.59259  1.0000
  H   H1363     1.0  0.35158  0.80513  0.57037  1.0000
  Fe  Fe173     1.0  0.25792  0.81821  0.38129  1.0000
  H   H1364     1.0  0.37612  0.84389  0.57492  1.0000
  N   N88       1.0  0.37750  0.81452  0.57191  1.0000
  C   C862      1.0  0.31786  0.82702  0.44599  1.0000
  H   H1365     1.0  0.32790  0.79886  0.41178  1.0000
  H   H1366     1.0  0.26886  0.69170  0.56543  1.0000
  H   H1367     1.0  0.26171  0.70425  0.39988  1.0000
  C   C863      1.0  0.32122  0.80353  0.42566  1.0000
  H   H1368     1.0  0.27602  0.74662  0.54528  1.0000
  C   C864      1.0  0.31806  0.84684  0.59828  1.0000
  H   H1369     1.0  0.35401  0.83822  0.57156  1.0000
  S   S345      1.0  0.41407  0.77304  0.62192  1.0000
  H   H1370     1.0  0.37376  0.77482  0.62534  1.0000
  H   H1371     1.0  0.44850  0.68805  0.60894  1.0000
  S   S346      1.0  0.27720  0.79425  0.36747  1.0000
  H   H1372     1.0  0.35323  0.83159  0.42710  1.0000
  H   H1373     1.0  0.37195  0.78626  0.57197  1.0000
  H   H1374     1.0  0.33042  0.73205  0.32837  1.0000
  H   H1375     1.0  0.39031  0.80465  0.59724  1.0000
  H   H1376     1.0  0.32704  0.83272  0.39745  1.0000
  S   S347      1.0  0.24608  0.79834  0.40737  1.0000
  H   H1377     1.0  0.30176  0.76635  0.34024  1.0000
  C   C865      1.0  0.34820  0.81835  0.42590  1.0000
  H   H1378     1.0  0.28345  0.74461  0.52048  1.0000
  H   H1379     1.0  0.30192  0.82979  0.44730  1.0000
  H   H1380     1.0  0.46795  0.86328  0.63782  1.0000
  C   C866      1.0  0.32745  0.97551  0.63623  1.0000
  H   H1381     1.0  0.32383  0.86457  0.61653  1.0000
  H   H1382     1.0  0.24748  0.85615  0.39642  1.0000
  H   H1383     1.0  0.37095  0.82344  0.54350  1.0000
  Fe  Fe174     1.0  0.44627  0.76621  0.62095  1.0000
  H   H1384     1.0  0.30527  0.84018  0.41298  1.0000
  C   C867      1.0  0.32118  0.83690  0.41175  1.0000
  H   H1385     1.0  0.32610  0.85048  0.41202  1.0000
  C   C868      1.0  0.38358  0.81818  0.55097  1.0000
  H   H1386     1.0  0.39147  0.80483  0.54567  1.0000
  C   C869      1.0  0.24353  0.77137  0.54167  1.0000
  C   C870      1.0  0.36476  0.79999  0.57691  1.0000
  H   H1387     1.0  0.40996  0.71246  0.62311  1.0000
  H   H1388     1.0  0.35311  0.80672  0.43744  1.0000
  H   H1389     1.0  0.40243  0.79345  0.57725  1.0000
  C   C871      1.0  0.44825  0.70102  0.61512  1.0000
  H   H1390     1.0  0.35552  0.81409  0.41196  1.0000
  H   H1391     1.0  0.32221  0.84033  0.44796  1.0000
  C   C872      1.0  0.33053  0.83447  0.62795  1.0000
  H   H1392     1.0  0.44295  0.71384  0.60492  1.0000
  C   C873      1.0  0.39450  0.80732  0.58140  1.0000
  H   H1393     1.0  0.26255  0.76157  0.49717  1.0000
  H   H1394     1.0  0.30542  0.80544  0.42662  1.0000
  H   H1395     1.0  0.34463  0.72870  0.34689  1.0000
  H   H1396     1.0  0.46338  0.70179  0.61582  1.0000
  C   C874      1.0  0.24380  0.86852  0.38576  1.0000
  H   H1397     1.0  0.29647  0.72061  0.37364  1.0000
  C   C875      1.0  0.32400  0.85007  0.61454  1.0000
  H   H1398     1.0  0.30480  0.74888  0.38223  1.0000
  N   N89       1.0  0.25444  0.75916  0.52769  1.0000
  H   H1399     1.0  0.32148  0.71044  0.36985  1.0000
  H   H1400     1.0  0.24387  0.76372  0.55660  1.0000
  N   N90       1.0  0.43614  0.70036  0.63420  1.0000
  H   H1401     1.0  0.23713  0.68920  0.39164  1.0000
  H   H1402     1.0  0.23666  0.57169  0.35957  1.0000
  H   H1403     1.0  0.26704  0.95947  0.31453  1.0000
  N   N91       1.0  0.31464  0.73941  0.35516  1.0000
  H   H1404     1.0  0.32992  0.73938  0.37779  1.0000
  H   H1405     1.0  0.28144  0.76715  0.52797  1.0000
  C   C876      1.0  0.27469  0.75412  0.53047  1.0000
  S   S348      1.0  0.24063  0.84271  0.36369  1.0000
  H   H1406     1.0  0.25433  0.73167  0.52051  1.0000
  H   H1407     1.0  0.25828  0.78380  0.50595  1.0000
  H   H1408     1.0  0.33656  0.75239  0.33498  1.0000
  C   C877      1.0  0.35419  0.78654  0.31155  1.0000
  H   H1409     1.0  0.48101  0.89309  0.63480  1.0000
  H   H1410     1.0  0.46712  0.79173  0.32437  1.0000
  H   H1411     1.0  0.24968  0.78467  0.54023  1.0000
  C   C878      1.0  0.33074  0.81573  0.62519  1.0000
  H   H1412     1.0  0.23842  0.77287  0.50510  1.0000
  Fe  Fe175     1.0  0.48048  0.73952  0.63596  1.0000
  H   H1413     1.0  0.34597  0.83056  0.30675  1.0000
  C   C879      1.0  0.23754  0.90335  0.37606  1.0000
  S   S349      1.0  0.23899  0.98000  0.35889  1.0000
  S   S350      1.0  0.34021  0.93680  0.63728  1.0000
  H   H1414     1.0  0.38478  0.83892  0.63849  1.0000
  H   H1415     1.0  0.45008  0.77743  0.30567  1.0000
  H   H1416     1.0  0.38214  0.80468  0.64318  1.0000
  H   H1417     1.0  0.45555  0.63253  0.88446  1.0000
  Fe  Fe176     1.0  0.46610  0.73162  0.88572  1.0000
  C   C880      1.0  0.44646  0.65222  0.91395  1.0000
  S   S351      1.0  0.43395  0.73747  0.89579  1.0000
  H   H1418     1.0  0.42166  0.64856  0.89234  1.0000
  H   H1419     1.0  0.25518  0.62891  0.78277  1.0000
  N   N92       1.0  0.24578  0.60377  0.80082  1.0000
  Fe  Fe177     1.0  0.45537  0.60834  0.77971  1.0000
  S   S352      1.0  0.42895  0.59806  0.79869  1.0000
  C   C881      1.0  0.48180  0.69516  0.66843  1.0000
  S   S353      1.0  0.45579  0.63990  0.77225  1.0000
  H   H1420     1.0  0.24402  0.61518  0.77127  1.0000
  H   H1421     1.0  0.27560  0.88876  0.69117  1.0000
  C   C882      1.0  0.25271  0.55191  0.76814  1.0000
  C   C883      1.0  0.48155  0.68530  0.74337  1.0000
  S   S354      1.0  0.44928  0.89823  0.71954  1.0000
  H   H1422     1.0  0.42776  0.71770  0.65634  1.0000
  H   H1423     1.0  0.39233  0.81610  0.68761  1.0000
  H   H1424     1.0  0.44331  0.69756  0.70428  1.0000
  H   H1425     1.0  0.32462  0.59482  0.69062  1.0000
  Fe  Fe178     1.0  0.31929  0.53123  0.79894  1.0000
  S   S355      1.0  0.32560  0.54527  0.76833  1.0000
  S   S356      1.0  0.32325  0.49894  0.80709  1.0000
  Fe  Fe179     1.0  0.30675  0.56916  0.81317  1.0000
  S   S357      1.0  0.31142  0.58625  0.78366  1.0000
  S   S358      1.0  0.29529  0.58271  0.83957  1.0000
  Fe  Fe180     1.0  0.29773  0.56484  0.77500  1.0000
  S   S359      1.0  0.27869  0.57671  0.75256  1.0000
  Fe  Fe181     1.0  0.33896  0.56553  0.77939  1.0000
  S   S360      1.0  0.36459  0.57772  0.76114  1.0000
  S   S361      1.0  0.29037  0.54950  0.80501  1.0000
  S   S362      1.0  0.33526  0.54964  0.80959  1.0000
  Fe  Fe182     1.0  0.35014  0.68670  0.88279  1.0000
  S   S363      1.0  0.34350  0.65702  0.88518  1.0000
  S   S364      1.0  0.38169  0.68846  0.87188  1.0000
  Fe  Fe183     1.0  0.30717  0.70426  0.88886  1.0000
  S   S365      1.0  0.29792  0.67607  0.89056  1.0000
  S   S366      1.0  0.28472  0.73038  0.89456  1.0000
  Fe  Fe184     1.0  0.32025  0.66453  0.90946  1.0000
  S   S367      1.0  0.31025  0.64435  0.93626  1.0000
  Fe  Fe185     1.0  0.32197  0.67138  0.86622  1.0000
  S   S368      1.0  0.32209  0.66135  0.83868  1.0000
  S   S369      1.0  0.32863  0.69297  0.90896  1.0000
  S   S370      1.0  0.32942  0.70077  0.86270  1.0000
  Fe  Fe186     1.0  0.36306  0.87683  0.68071  1.0000
  S   S371      1.0  0.36099  0.88226  0.64963  1.0000
  S   S372      1.0  0.39023  0.86049  0.69149  1.0000
  Fe  Fe187     1.0  0.31910  0.88638  0.69250  1.0000
  S   S373      1.0  0.31367  0.89171  0.66219  1.0000
  S   S374      1.0  0.29836  0.88815  0.72039  1.0000
  Fe  Fe188     1.0  0.33662  0.86565  0.65820  1.0000
  H   H1426     1.0  0.34336  0.56966  0.73476  1.0000
  Fe  Fe189     1.0  0.33858  0.90783  0.65616  1.0000
  H   H1427     1.0  0.24627  0.80325  0.96397  1.0000
  S   S375      1.0  0.33966  0.85914  0.68912  1.0000
  S   S376      1.0  0.34286  0.90383  0.68664  1.0000
  H   H1428     1.0  0.24918  0.75402  0.90689  1.0000
  N   N93       1.0  0.33157  0.59580  0.71785  1.0000
  H   H1429     1.0  0.33260  0.60135  0.74557  1.0000
  C   C884      1.0  0.24648  0.57404  0.73930  1.0000
  H   H1430     1.0  0.33192  0.88935  0.77223  1.0000
  S   S377      1.0  0.47603  0.84901  0.74568  1.0000
  C   C885      1.0  0.25350  0.61411  0.78194  1.0000
  C   C886      1.0  0.29494  0.97067  0.66375  1.0000
  H   H1431     1.0  0.37843  0.88886  0.73855  1.0000
  H   H1432     1.0  0.37271  0.87000  0.75795  1.0000
  C   C887      1.0  0.26115  0.73117  0.89071  1.0000
  H   H1433     1.0  0.26854  0.70867  0.87376  1.0000
  C   C888      1.0  0.25810  0.56661  0.75337  1.0000
  Fe  Fe190     1.0  0.46829  0.63489  0.74246  1.0000
  H   H1434     1.0  0.25057  0.58533  0.72776  1.0000
  H   H1435     1.0  0.44172  0.63797  0.91782  1.0000
  H   H1436     1.0  0.26168  0.54581  0.77890  1.0000
  C   C889      1.0  0.38946  0.83620  0.65265  1.0000
  C   C890      1.0  0.24332  0.58447  0.79883  1.0000
  H   H1437     1.0  0.25372  0.94133  0.74267  1.0000
  C   C891      1.0  0.29187  0.49989  0.79064  1.0000
  H   H1438     1.0  0.31946  0.57033  0.73063  1.0000
  H   H1439     1.0  0.26747  0.50021  0.77761  1.0000
  H   H1440     1.0  0.29263  0.51489  0.78518  1.0000
  C   C892      1.0  0.30283  0.60451  0.83947  1.0000
  C   C893      1.0  0.30065  0.61150  0.85662  1.0000
  C   C894      1.0  0.30653  0.62896  0.85666  1.0000
  C   C895      1.0  0.31418  0.63965  0.83947  1.0000
  C   C896      1.0  0.31600  0.63281  0.82234  1.0000
  C   C897      1.0  0.31059  0.61521  0.82237  1.0000
  H   H1441     1.0  0.29463  0.60330  0.86991  1.0000
  H   H1442     1.0  0.30507  0.63416  0.86995  1.0000
  H   H1443     1.0  0.32175  0.64110  0.80898  1.0000
  H   H1444     1.0  0.31232  0.61006  0.80912  1.0000
  H   H1445     1.0  0.26174  0.61608  0.81606  1.0000
  H   H1446     1.0  0.26742  0.88534  0.75200  1.0000
  H   H1447     1.0  0.29643  0.68561  0.94373  1.0000
  H   H1448     1.0  0.33515  0.66545  0.94785  1.0000
  C   C898      1.0  0.43188  0.88760  0.71343  1.0000
  C   C899      1.0  0.43327  0.86765  0.71610  1.0000
  C   C900      1.0  0.42022  0.85957  0.70951  1.0000
  C   C901      1.0  0.40545  0.87135  0.70055  1.0000
  C   C902      1.0  0.40359  0.89131  0.69845  1.0000
  C   C903      1.0  0.41685  0.89940  0.70481  1.0000
  H   H1449     1.0  0.44465  0.85843  0.72288  1.0000
  H   H1450     1.0  0.42170  0.84410  0.71123  1.0000
  H   H1451     1.0  0.39229  0.90052  0.69147  1.0000
  H   H1452     1.0  0.41568  0.91486  0.70273  1.0000
  H   H1453     1.0  0.41672  0.67263  0.89726  1.0000
  C   C904      1.0  0.47024  0.81882  0.68965  1.0000
  C   C905      1.0  0.40509  0.81339  0.67639  1.0000
  H   H1454     1.0  0.45521  0.82517  0.69133  1.0000
  C   C906      1.0  0.41127  0.59225  0.78807  1.0000
  C   C907      1.0  0.41194  0.59610  0.76827  1.0000
  C   C908      1.0  0.39754  0.59158  0.76024  1.0000
  C   C909      1.0  0.38228  0.58330  0.77191  1.0000
  C   C910      1.0  0.38144  0.57968  0.79174  1.0000
  C   C911      1.0  0.39592  0.58409  0.79977  1.0000
  H   H1455     1.0  0.42356  0.60251  0.75911  1.0000
  H   H1456     1.0  0.39833  0.59445  0.74490  1.0000
  H   H1457     1.0  0.36979  0.57326  0.80089  1.0000
  H   H1458     1.0  0.39532  0.58092  0.81509  1.0000
  C   C912      1.0  0.46499  0.67244  0.70157  1.0000
  C   C913      1.0  0.45303  0.67895  0.88908  1.0000
  H   H1459     1.0  0.23860  0.71501  0.94782  1.0000
  H   H1460     1.0  0.47599  0.83186  0.71167  1.0000
  S   S378      1.0  0.47914  0.84435  0.79830  1.0000
  C   C914      1.0  0.41853  0.72557  0.88803  1.0000
  C   C915      1.0  0.40057  0.72328  0.89922  1.0000
  C   C916      1.0  0.38860  0.71270  0.89401  1.0000
  C   C917      1.0  0.39450  0.70447  0.87748  1.0000
  C   C918      1.0  0.41213  0.70740  0.86593  1.0000
  C   C919      1.0  0.42408  0.71790  0.87116  1.0000
  H   H1461     1.0  0.39611  0.72933  0.91221  1.0000
  H   H1462     1.0  0.37508  0.71049  0.90305  1.0000
  H   H1463     1.0  0.41673  0.70123  0.85302  1.0000
  H   H1464     1.0  0.43768  0.71993  0.86222  1.0000
  C   C920      1.0  0.27390  0.88716  0.72141  1.0000
  N   N94       1.0  0.47042  0.87609  0.66138  1.0000
  H   H1465     1.0  0.36591  0.89466  0.76124  1.0000
  H   H1466     1.0  0.29075  0.70968  0.93169  1.0000
  C   C921      1.0  0.24357  0.93433  0.73787  1.0000
  C   C922      1.0  0.32552  0.65998  0.96034  1.0000
  C   C923      1.0  0.36722  0.88477  0.75093  1.0000
  H   H1467     1.0  0.45903  0.68301  0.64805  1.0000
  H   H1468     1.0  0.46101  0.65036  0.91774  1.0000
  H   H1469     1.0  0.47985  0.78401  0.84410  1.0000
  H   H1470     1.0  0.27357  0.59374  0.80894  1.0000
  H   H1471     1.0  0.25511  0.72285  0.95902  1.0000
  H   H1472     1.0  0.46076  0.65268  0.86624  1.0000
  N   N95       1.0  0.38129  0.63835  0.82247  1.0000
  C   C924      1.0  0.37353  0.65505  0.83228  1.0000
  C   C925      1.0  0.39255  0.62326  0.83483  1.0000
  C   C926      1.0  0.39377  0.64436  0.80428  1.0000
  C   C927      1.0  0.36528  0.63066  0.81851  1.0000
  H   H1473     1.0  0.36386  0.65102  0.84593  1.0000
  H   H1474     1.0  0.36482  0.66669  0.82342  1.0000
  H   H1475     1.0  0.38512  0.66124  0.83569  1.0000
  H   H1476     1.0  0.39835  0.61035  0.82796  1.0000
  H   H1477     1.0  0.40502  0.62840  0.83777  1.0000
  H   H1478     1.0  0.38361  0.61855  0.84876  1.0000
  H   H1479     1.0  0.39957  0.63213  0.79639  1.0000
  H   H1480     1.0  0.40631  0.64977  0.80672  1.0000
  H   H1481     1.0  0.38580  0.65592  0.79471  1.0000
  H   H1482     1.0  0.37056  0.61822  0.81084  1.0000
  H   H1483     1.0  0.35623  0.64181  0.80957  1.0000
  H   H1484     1.0  0.35572  0.62573  0.83195  1.0000
  S   S379      1.0  0.46574  0.60353  0.74953  1.0000
  C   C928      1.0  0.32419  0.95686  0.64473  1.0000
  S   S380      1.0  0.45343  0.65864  0.72187  1.0000
  H   H1485     1.0  0.25717  0.57612  0.79295  1.0000
  C   C929      1.0  0.24195  0.88611  0.74039  1.0000
  H   H1486     1.0  0.43560  0.68259  0.66204  1.0000
  C   C930      1.0  0.38662  0.80277  0.65738  1.0000
  C   C931      1.0  0.24611  0.74426  0.89882  1.0000
  C   C932      1.0  0.47548  0.86976  0.68068  1.0000
  C   C933      1.0  0.27767  0.49153  0.78632  1.0000
  C   C934      1.0  0.31221  0.64908  0.95855  1.0000
  H   H1487     1.0  0.47720  0.68920  0.75790  1.0000
  N   N96       1.0  0.26635  0.69707  0.94718  1.0000
  N   N97       1.0  0.44663  0.66010  0.89345  1.0000
  H   H1488     1.0  0.47483  0.64471  0.88494  1.0000
  H   H1489     1.0  0.48439  0.90076  0.65581  1.0000
  C   C935      1.0  0.46500  0.70297  0.67954  1.0000
  H   H1490     1.0  0.45398  0.68514  0.87361  1.0000
  C   C936      1.0  0.30798  0.95450  0.65865  1.0000
  H   H1491     1.0  0.24578  0.68271  0.96788  1.0000
  H   H1492     1.0  0.24086  0.88861  0.69331  1.0000
  C   C937      1.0  0.48193  0.66469  0.69063  1.0000
  H   H1493     1.0  0.26787  0.60651  0.77617  1.0000
  H   H1494     1.0  0.46524  0.86087  0.69001  1.0000
  H   H1495     1.0  0.24287  0.95593  0.70315  1.0000
  H   H1496     1.0  0.44318  0.66966  0.64232  1.0000
  S   S381      1.0  0.33990  0.83746  0.64762  1.0000
  H   H1497     1.0  0.42700  0.82288  0.64245  1.0000
  C   C938      1.0  0.41695  0.81288  0.64293  1.0000
  N   N98       1.0  0.39953  0.81630  0.65733  1.0000
  C   C939      1.0  0.24660  0.88794  0.70616  1.0000
  H   H1498     1.0  0.30534  0.94019  0.66525  1.0000
  C   C940      1.0  0.26110  0.68443  0.96551  1.0000
  H   H1499     1.0  0.24214  0.48832  0.75498  1.0000
  C   C941      1.0  0.32320  0.60547  0.73446  1.0000
  H   H1500     1.0  0.34979  0.61679  0.70492  1.0000
  H   H1501     1.0  0.45846  0.71773  0.67548  1.0000
  C   C942      1.0  0.23807  0.71943  0.87772  1.0000
  C   C943      1.0  0.33427  0.87982  0.76140  1.0000
  S   S382      1.0  0.45457  0.75745  0.65004  1.0000
  H   H1502     1.0  0.25421  0.59395  0.82858  1.0000
  H   H1503     1.0  0.24873  0.68653  0.93228  1.0000
  C   C944      1.0  0.33357  0.57476  0.72403  1.0000
  C   C945      1.0  0.47786  0.80700  0.67585  1.0000
  H   H1504     1.0  0.37631  0.83916  0.66337  1.0000
  H   H1505     1.0  0.30429  0.59803  0.70927  1.0000
  C   C946      1.0  0.42712  0.66243  0.88898  1.0000
  H   H1506     1.0  0.24433  0.97072  0.71976  1.0000
  H   H1507     1.0  0.30892  0.60156  0.74122  1.0000
  S   S383      1.0  0.48340  0.70755  0.90313  1.0000
  C   C947      1.0  0.45650  0.69155  0.69590  1.0000
  H   H1508     1.0  0.36056  0.59653  0.72042  1.0000
  H   H1509     1.0  0.35753  0.59387  0.69718  1.0000
  H   H1510     1.0  0.42677  0.66817  0.87357  1.0000
  C   C948      1.0  0.25705  0.71870  0.88021  1.0000
  H   H1511     1.0  0.31686  0.61770  0.69839  1.0000
  H   H1512     1.0  0.39867  0.84689  0.65254  1.0000
  H   H1513     1.0  0.48224  0.66951  0.74530  1.0000
  H   H1514     1.0  0.32822  0.90659  0.73033  1.0000
  H   H1515     1.0  0.33942  0.91581  0.74575  1.0000
  H   H1516     1.0  0.46750  0.67769  0.89272  1.0000
  H   H1517     1.0  0.35262  0.91053  0.72314  1.0000
  C   C949      1.0  0.28659  0.69944  0.94491  1.0000
  H   H1518     1.0  0.33962  0.56696  0.71185  1.0000
  H   H1519     1.0  0.44668  0.89308  0.64849  1.0000
  C   C950      1.0  0.26631  0.88801  0.70491  1.0000
  H   H1520     1.0  0.36157  0.87696  0.71790  1.0000
  H   H1521     1.0  0.48512  0.75843  0.77233  1.0000
  C   C951      1.0  0.34195  0.90553  0.73562  1.0000
  H   H1522     1.0  0.32015  0.88046  0.75702  1.0000
  C   C952      1.0  0.26165  0.88612  0.73915  1.0000
  C   C953      1.0  0.47092  0.85909  0.65271  1.0000
  C   C954      1.0  0.30514  0.48881  0.80185  1.0000
  S   S384      1.0  0.48570  0.75243  0.88521  1.0000
  C   C955      1.0  0.35068  0.60101  0.70967  1.0000
  C   C956      1.0  0.26386  0.68830  0.93130  1.0000
  H   H1523     1.0  0.46538  0.81693  0.83017  1.0000
  H   H1524     1.0  0.41488  0.82341  0.67674  1.0000
  C   C957      1.0  0.47995  0.81103  0.82455  1.0000
  H   H1525     1.0  0.37324  0.80507  0.66799  1.0000
  C   C958      1.0  0.45998  0.64686  0.88180  1.0000
  S   S385      1.0  0.46287  0.80406  0.66064  1.0000
  C   C959      1.0  0.25393  0.71607  0.94693  1.0000
  H   H1526     1.0  0.33752  0.87245  0.72630  1.0000
  H   H1527     1.0  0.43658  0.66201  0.92305  1.0000
  S   S386      1.0  0.48481  0.60159  0.78824  1.0000
  H   H1528     1.0  0.46001  0.85027  0.66094  1.0000
  Fe  Fe191     1.0  0.47159  0.78151  0.64136  1.0000
  H   H1529     1.0  0.32130  0.62137  0.73032  1.0000
  C   C960      1.0  0.35130  0.87255  0.73091  1.0000
  C   C961      1.0  0.31879  0.60188  0.70336  1.0000
  H   H1530     1.0  0.33878  0.86482  0.76850  1.0000
  Fe  Fe192     1.0  0.47471  0.88003  0.73238  1.0000
  H   H1531     1.0  0.25184  0.92658  0.72619  1.0000
  N   N99       1.0  0.34869  0.88567  0.74475  1.0000
  H   H1532     1.0  0.35699  0.85750  0.73698  1.0000
  H   H1533     1.0  0.41276  0.79852  0.68040  1.0000
  C   C962      1.0  0.48437  0.88792  0.64949  1.0000
  H   H1534     1.0  0.47660  0.81024  0.77692  1.0000
  H   H1535     1.0  0.28940  0.70492  0.95718  1.0000
  H   H1536     1.0  0.44316  0.68950  0.89732  1.0000
  S   S387      1.0  0.48056  0.72382  0.85726  1.0000
  H   H1537     1.0  0.46987  0.69200  0.73495  1.0000
  C   C963      1.0  0.43643  0.71778  0.64179  1.0000
  H   H1538     1.0  0.42497  0.79802  0.64623  1.0000
  C   C964      1.0  0.44377  0.68315  0.64722  1.0000
  H   H1539     1.0  0.26796  0.69733  0.91725  1.0000
  H   H1540     1.0  0.27303  0.67388  0.93110  1.0000
  H   H1541     1.0  0.44004  0.87896  0.67143  1.0000
  H   H1542     1.0  0.25806  0.72604  0.93348  1.0000
  H   H1543     1.0  0.48529  0.78983  0.79349  1.0000
  H   H1544     1.0  0.28227  0.96871  0.67431  1.0000
  H   H1545     1.0  0.23855  0.92335  0.75005  1.0000
  H   H1546     1.0  0.46569  0.78904  0.78222  1.0000
  H   H1547     1.0  0.45131  0.71891  0.64279  1.0000
  C   C965      1.0  0.25933  0.60186  0.81417  1.0000
  C   C966      1.0  0.45092  0.88761  0.66279  1.0000
  H   H1548     1.0  0.44986  0.90020  0.66991  1.0000
  H   H1549     1.0  0.39374  0.78756  0.66073  1.0000
  H   H1550     1.0  0.40674  0.69896  0.64688  1.0000
  H   H1551     1.0  0.47503  0.88222  0.68773  1.0000
  C   C967      1.0  0.48199  0.82268  0.70116  1.0000
  H   H1552     1.0  0.47126  0.78507  0.74859  1.0000
  H   H1553     1.0  0.48087  0.80705  0.74229  1.0000
  C   C968      1.0  0.47962  0.79422  0.77982  1.0000
  H   H1554     1.0  0.23788  0.57601  0.81282  1.0000
  H   H1555     1.0  0.26991  0.66986  0.96581  1.0000
  C   C969      1.0  0.48462  0.79121  0.74658  1.0000
  H   H1556     1.0  0.48514  0.84950  0.65235  1.0000
  Fe  Fe193     1.0  0.48597  0.63314  0.77784  1.0000
  H   H1557     1.0  0.72619  0.46872  0.26056  1.0000
  H   H1558     1.0  0.71726  0.02655  0.23344  1.0000
  H   H1559     1.0  0.71679  0.46731  0.22998  1.0000
  S   S388      1.0  0.51203  0.38368  0.20189  1.0000
  H   H1560     1.0  0.72733  0.40526  0.29382  1.0000
  S   S389      1.0  0.50703  0.32799  0.20637  1.0000
  H   H1561     1.0  0.57963  0.29754  0.12796  1.0000
  H   H1562     1.0  0.51703  0.12402  0.20345  1.0000
  H   H1563     1.0  0.70654  0.44203  0.98039  1.0000
  H   H1564     1.0  0.55119  0.09385  0.17146  1.0000
  C   C970      1.0  0.72267  0.22298  0.07413  1.0000
  N   N100      1.0  0.69731  0.00662  0.24216  1.0000
  S   S390      1.0  0.51452  0.05668  0.25489  1.0000
  H   H1565     1.0  0.73464  0.23108  0.98368  1.0000
  H   H1566     1.0  0.69672  0.05003  0.26895  1.0000
  C   C971      1.0  0.59406  0.36988  0.13486  1.0000
  C   C972      1.0  0.55940  0.09357  0.20625  1.0000
  C   C973      1.0  0.49740  0.06684  0.30191  1.0000
  S   S391      1.0  0.64713  0.00498  0.28223  1.0000
  S   S392      1.0  0.51772  0.22466  0.08675  1.0000
  C   C974      1.0  0.60746  0.28467  0.99336  1.0000
  H   H1567     1.0  0.49244  0.19118  0.28829  1.0000
  H   H1568     1.0  0.57037  0.40230  0.14258  1.0000
  Fe  Fe194     1.0  0.62637  0.29959  0.09378  1.0000
  S   S393      1.0  0.61869  0.27101  0.09345  1.0000
  S   S394      1.0  0.62486  0.30593  0.12336  1.0000
  Fe  Fe195     1.0  0.63417  0.30911  0.05018  1.0000
  S   S395      1.0  0.62711  0.28128  0.04665  1.0000
  S   S396      1.0  0.64167  0.33232  0.02531  1.0000
  Fe  Fe196     1.0  0.60210  0.28659  0.07014  1.0000
  S   S397      1.0  0.57057  0.28921  0.06827  1.0000
  Fe  Fe197     1.0  0.64454  0.26847  0.07016  1.0000
  S   S398      1.0  0.66624  0.24090  0.07025  1.0000
  S   S399      1.0  0.60810  0.31545  0.07216  1.0000
  S   S400      1.0  0.65317  0.29605  0.07211  1.0000
  Fe  Fe198     1.0  0.62020  0.38762  0.20325  1.0000
  S   S401      1.0  0.61815  0.40772  0.17545  1.0000
  S   S402      1.0  0.59645  0.37173  0.22076  1.0000
  Fe  Fe199     1.0  0.66332  0.38788  0.19954  1.0000
  S   S403      1.0  0.66446  0.40751  0.17110  1.0000
  S   S404      1.0  0.69059  0.37483  0.21180  1.0000
  Fe  Fe200     1.0  0.63718  0.42387  0.18495  1.0000
  S   S405      1.0  0.63155  0.45642  0.17913  1.0000
  Fe  Fe201     1.0  0.64556  0.38955  0.16407  1.0000
  S   S406      1.0  0.64916  0.38193  0.13449  1.0000
  S   S407      1.0  0.63698  0.40528  0.21401  1.0000
  S   S408      1.0  0.64665  0.36846  0.19127  1.0000
  Fe  Fe202     1.0  0.61111  0.07345  0.27996  1.0000
  H   H1569     1.0  0.68802  0.28845  0.09317  1.0000
  S   S409      1.0  0.58282  0.09068  0.27211  1.0000
  Fe  Fe203     1.0  0.65472  0.07184  0.26850  1.0000
  H   H1570     1.0  0.58764  0.32643  0.00978  1.0000
  S   S410      1.0  0.67780  0.08372  0.24589  1.0000
  H   H1571     1.0  0.56900  0.30046  0.02525  1.0000
  H   H1572     1.0  0.58627  0.31324  0.97280  1.0000
  H   H1573     1.0  0.57438  0.27793  0.01675  1.0000
  S   S411      1.0  0.63383  0.05695  0.26062  1.0000
  S   S412      1.0  0.63174  0.09065  0.28541  1.0000
  H   H1574     1.0  0.72237  0.27105  0.06749  1.0000
  C   C975      1.0  0.70752  0.05701  0.25909  1.0000
  H   H1575     1.0  0.52868  0.11471  0.22392  1.0000
  C   C976      1.0  0.52857  0.08607  0.20521  1.0000
  C   C977      1.0  0.70207  0.38883  0.22188  1.0000
  C   C978      1.0  0.70206  0.41707  0.23530  1.0000
  C   C979      1.0  0.69290  0.40676  0.22637  1.0000
  H   H1576     1.0  0.69468  0.43077  0.23903  1.0000
  H   H1577     1.0  0.67860  0.41251  0.22324  1.0000
  H   H1578     1.0  0.68419  0.45939  0.21154  1.0000
  H   H1579     1.0  0.71345  0.98923  0.22149  1.0000
  N   N101      1.0  0.54085  0.10106  0.19949  1.0000
  H   H1580     1.0  0.51236  0.05879  0.29998  1.0000
  C   C980      1.0  0.66112  0.45781  0.19742  1.0000
  H   H1581     1.0  0.56714  0.08071  0.19999  1.0000
  C   C981      1.0  0.64767  0.98622  0.30201  1.0000
  H   H1582     1.0  0.66343  0.44226  0.19995  1.0000
  C   C982      1.0  0.69072  0.24093  0.07032  1.0000
  H   H1583     1.0  0.69796  0.21003  0.07497  1.0000
  C   C983      1.0  0.64549  0.32598  0.00248  1.0000
  C   C984      1.0  0.64923  0.30668  0.00033  1.0000
  H   H1584     1.0  0.54256  0.30433  0.09751  1.0000
  C   C985      1.0  0.71702  0.08889  0.29279  1.0000
  H   H1585     1.0  0.65152  0.29552  0.01247  1.0000
  H   H1586     1.0  0.50085  0.28478  0.14063  1.0000
  C   C986      1.0  0.63373  0.32614  0.12588  1.0000
  C   C987      1.0  0.63827  0.34027  0.11018  1.0000
  C   C988      1.0  0.64387  0.35697  0.11292  1.0000
  C   C989      1.0  0.64503  0.35958  0.13129  1.0000
  C   C990      1.0  0.64145  0.34494  0.14682  1.0000
  C   C991      1.0  0.63560  0.32838  0.14414  1.0000
  H   H1587     1.0  0.63696  0.33863  0.09602  1.0000
  H   H1588     1.0  0.64677  0.36817  0.10081  1.0000
  H   H1589     1.0  0.64267  0.34664  0.16098  1.0000
  H   H1590     1.0  0.63222  0.31743  0.15634  1.0000
  C   C992      1.0  0.53223  0.24275  0.08191  1.0000
  C   C993      1.0  0.55216  0.23741  0.08134  1.0000
  C   C994      1.0  0.56417  0.25142  0.07725  1.0000
  C   C995      1.0  0.55630  0.27090  0.07344  1.0000
  C   C996      1.0  0.53639  0.27624  0.07405  1.0000
  C   C997      1.0  0.52438  0.26226  0.07840  1.0000
  H   H1591     1.0  0.55834  0.22234  0.08401  1.0000
  H   H1592     1.0  0.57947  0.24712  0.07684  1.0000
  H   H1593     1.0  0.53015  0.29128  0.07111  1.0000
  H   H1594     1.0  0.50908  0.26655  0.07874  1.0000
  C   C998      1.0  0.53350  0.06618  0.25966  1.0000
  C   C999      1.0  0.53204  0.08586  0.25933  1.0000
  C   C1000     1.0  0.54729  0.09309  0.26316  1.0000
  C   C1001     1.0  0.56414  0.08072  0.26746  1.0000
  C   C1002     1.0  0.56561  0.06100  0.26789  1.0000
  C   C1003     1.0  0.55031  0.05378  0.26400  1.0000
  H   H1595     1.0  0.51912  0.09553  0.25631  1.0000
  H   H1596     1.0  0.54604  0.10835  0.26291  1.0000
  H   H1597     1.0  0.57852  0.05133  0.27121  1.0000
  H   H1598     1.0  0.55156  0.03850  0.26436  1.0000
  H   H1599     1.0  0.55712  0.37211  0.15305  1.0000
  H   H1600     1.0  0.58348  0.37474  0.12491  1.0000
  H   H1601     1.0  0.59503  0.37174  0.18107  1.0000
  H   H1602     1.0  0.57170  0.35053  0.16313  1.0000
  C   C1004     1.0  0.56858  0.36644  0.16194  1.0000
  H   H1603     1.0  0.71007  0.26920  0.12544  1.0000
  C   C1005     1.0  0.71708  0.25770  0.06911  1.0000
  C   C1006     1.0  0.70209  0.07343  0.24602  1.0000
  C   C1007     1.0  0.53524  0.38032  0.20774  1.0000
  C   C1008     1.0  0.54349  0.36279  0.21750  1.0000
  C   C1009     1.0  0.56215  0.36048  0.22161  1.0000
  C   C1010     1.0  0.57284  0.37553  0.21574  1.0000
  C   C1011     1.0  0.56459  0.39308  0.20597  1.0000
  C   C1012     1.0  0.54580  0.39550  0.20211  1.0000
  H   H1604     1.0  0.53549  0.35100  0.22196  1.0000
  H   H1605     1.0  0.56841  0.34689  0.22925  1.0000
  H   H1606     1.0  0.57262  0.40485  0.20165  1.0000
  H   H1607     1.0  0.53950  0.40914  0.19462  1.0000
  H   H1608     1.0  0.68855  0.27168  0.06490  1.0000
  H   H1609     1.0  0.54352  0.26746  0.12691  1.0000
  S   S413      1.0  0.49445  0.31343  0.16438  1.0000
  H   H1610     1.0  0.53777  0.31232  0.14702  1.0000
  H   H1611     1.0  0.67968  0.10514  0.29297  1.0000
  H   H1612     1.0  0.59418  0.40303  0.14606  1.0000
  N   N102      1.0  0.58602  0.37505  0.15390  1.0000
  C   C1013     1.0  0.58122  0.39619  0.15208  1.0000
  H   H1613     1.0  0.56655  0.26688  0.13324  1.0000
  H   H1614     1.0  0.60898  0.31038  0.01512  1.0000
  C   C1014     1.0  0.64339  0.34035  0.98640  1.0000
  H   H1615     1.0  0.67908  0.00415  0.22298  1.0000
  H   H1616     1.0  0.60224  0.27189  0.99124  1.0000
  H   H1617     1.0  0.70963  0.00860  0.26623  1.0000
  H   H1618     1.0  0.68256  0.28724  0.14532  1.0000
  H   H1619     1.0  0.71514  0.10476  0.28824  1.0000
  H   H1620     1.0  0.73020  0.20633  0.01234  1.0000
  C   C1015     1.0  0.54412  0.10644  0.17844  1.0000
  H   H1621     1.0  0.50563  0.10252  0.28974  1.0000
  H   H1622     1.0  0.73214  0.20938  0.07675  1.0000
  C   C1016     1.0  0.68226  0.29173  0.10779  1.0000
  C   C1017     1.0  0.71179  0.99002  0.23695  1.0000
  H   H1623     1.0  0.52538  0.08203  0.22099  1.0000
  N   N103      1.0  0.68046  0.27399  0.12196  1.0000
  C   C1018     1.0  0.72898  0.37067  0.28426  1.0000
  C   C1019     1.0  0.53122  0.11818  0.20805  1.0000
  C   C1020     1.0  0.64951  0.30178  0.98253  1.0000
  C   C1021     1.0  0.72063  0.38151  0.22605  1.0000
  H   H1624     1.0  0.53015  0.28961  0.15045  1.0000
  H   H1625     1.0  0.68496  0.08325  0.28355  1.0000
  H   H1626     1.0  0.73032  0.08422  0.29923  1.0000
  C   C1022     1.0  0.69950  0.26165  0.12204  1.0000
  H   H1627     1.0  0.53998  0.12988  0.20382  1.0000
  Fe  Fe204     1.0  0.49536  0.35887  0.20804  1.0000
  H   H1628     1.0  0.72271  0.36119  0.27773  1.0000
  H   H1629     1.0  0.61807  0.27957  0.00329  1.0000
  H   H1630     1.0  0.72877  0.47898  0.20794  1.0000
  H   H1631     1.0  0.64063  0.35531  0.98796  1.0000
  H   H1632     1.0  0.72783  0.36771  0.22248  1.0000
  H   H1633     1.0  0.65856  0.28834  0.14150  1.0000
  H   H1634     1.0  0.70559  0.05459  0.29939  1.0000
  C   C1023     1.0  0.69576  0.00709  0.26271  1.0000
  H   H1635     1.0  0.57468  0.30351  0.10399  1.0000
  H   H1636     1.0  0.70156  0.40156  0.27813  1.0000
  H   H1637     1.0  0.67345  0.99156  0.24699  1.0000
  C   C1024     1.0  0.71628  0.08215  0.23302  1.0000
  H   H1638     1.0  0.52381  0.08796  0.30251  1.0000
  H   H1639     1.0  0.56344  0.27283  0.10877  1.0000
  H   H1640     1.0  0.53031  0.11226  0.17301  1.0000
  C   C1025     1.0  0.60034  0.36769  0.16674  1.0000
  C   C1026     1.0  0.69784  0.25809  0.06783  1.0000
  H   H1641     1.0  0.61379  0.37366  0.16100  1.0000
  H   H1642     1.0  0.49673  0.20624  0.26533  1.0000
  H   H1643     1.0  0.55339  0.11770  0.17355  1.0000
  C   C1027     1.0  0.48794  0.20560  0.27985  1.0000
  H   H1644     1.0  0.66811  0.30131  0.10727  1.0000
  H   H1645     1.0  0.50534  0.26123  0.27923  1.0000
  H   H1646     1.0  0.51460  0.09106  0.20004  1.0000
  C   C1028     1.0  0.66711  0.26350  0.11690  1.0000
  H   H1647     1.0  0.70542  0.25727  0.10788  1.0000
  C   C1029     1.0  0.67296  0.27911  0.14111  1.0000
  H   H1648     1.0  0.66555  0.24992  0.12714  1.0000
  H   H1649     1.0  0.69874  0.24822  0.13271  1.0000
  H   H1650     1.0  0.60406  0.35176  0.16888  1.0000
  H   H1651     1.0  0.60693  0.37666  0.12824  1.0000
  H   H1652     1.0  0.70454  0.02473  0.21518  1.0000
  C   C1030     1.0  0.73085  0.47137  0.22254  1.0000
  H   H1653     1.0  0.67142  0.26610  0.15221  1.0000
  H   H1654     1.0  0.65256  0.27230  0.11684  1.0000
  C   C1031     1.0  0.70329  0.22338  0.07318  1.0000
  H   H1655     1.0  0.56898  0.10456  0.20245  1.0000
  N   N104      1.0  0.59151  0.29902  0.00079  1.0000
  H   H1656     1.0  0.72899  0.08423  0.15599  1.0000
  C   C1032     1.0  0.59925  0.31522  0.00432  1.0000
  C   C1033     1.0  0.69770  0.39003  0.29028  1.0000
  C   C1034     1.0  0.67849  0.00479  0.23828  1.0000
  C   C1035     1.0  0.71848  0.24324  0.01710  1.0000
  H   H1657     1.0  0.65163  0.28681  0.98114  1.0000
  H   H1658     1.0  0.68648  0.39695  0.30085  1.0000
  H   H1659     1.0  0.71691  0.25905  0.01214  1.0000
  C   C1036     1.0  0.72054  0.40968  0.23960  1.0000
  H   H1660     1.0  0.49395  0.07302  0.28739  1.0000
  H   H1661     1.0  0.57256  0.29439  0.98341  1.0000
  S   S414      1.0  0.49620  0.29634  0.25434  1.0000
  C   C1037     1.0  0.72950  0.24017  0.07249  1.0000
  Fe  Fe205     1.0  0.63877  0.03568  0.28725  1.0000
  C   C1038     1.0  0.67285  0.46755  0.20398  1.0000
  H   H1662     1.0  0.73121  0.03710  0.26974  1.0000
  C   C1039     1.0  0.58083  0.28996  0.01886  1.0000
  H   H1663     1.0  0.49542  0.41776  0.22010  1.0000
  H   H1664     1.0  0.68754  0.46042  0.98831  1.0000
  H   H1665     1.0  0.49535  0.14613  0.14935  1.0000
  H   H1666     1.0  0.70819  0.23778  0.01085  1.0000
  H   H1667     1.0  0.67213  0.25962  0.10244  1.0000
  H   H1668     1.0  0.59860  0.35407  0.13575  1.0000
  H   H1669     1.0  0.71219  0.09488  0.22289  1.0000
  H   H1670     1.0  0.57533  0.40064  0.16620  1.0000
  H   H1671     1.0  0.56487  0.31999  0.12034  1.0000
  H   H1672     1.0  0.56259  0.36956  0.17656  1.0000
  H   H1673     1.0  0.69113  0.38016  0.28453  1.0000
  H   H1674     1.0  0.70750  0.47902  0.14929  1.0000
  C   C1040     1.0  0.70162  0.45786  0.97878  1.0000
  H   H1675     1.0  0.53554  0.07274  0.19945  1.0000
  H   H1676     1.0  0.69206  0.30013  0.11126  1.0000
  H   H1677     1.0  0.55735  0.08914  0.22208  1.0000
  N   N105      1.0  0.55102  0.29526  0.12520  1.0000
  C   C1041     1.0  0.55634  0.27470  0.12351  1.0000
  C   C1042     1.0  0.53665  0.30480  0.11283  1.0000
  C   C1043     1.0  0.56830  0.30449  0.11916  1.0000
  C   C1044     1.0  0.54281  0.29702  0.14527  1.0000
  C   C1045     1.0  0.70315  0.02462  0.23076  1.0000
  H   H1678     1.0  0.59036  0.28396  0.02972  1.0000
  H   H1679     1.0  0.66724  0.01713  0.24202  1.0000
  H   H1680     1.0  0.52373  0.29775  0.11639  1.0000
  H   H1681     1.0  0.53173  0.32015  0.11431  1.0000
  H   H1682     1.0  0.68476  0.01932  0.26712  1.0000
  C   C1046     1.0  0.64639  0.46820  0.18768  1.0000
  H   H1683     1.0  0.61529  0.29080  0.97929  1.0000
  H   H1684     1.0  0.71956  0.08247  0.27958  1.0000
  H   H1685     1.0  0.55343  0.29063  0.15498  1.0000
  C   C1047     1.0  0.72704  0.04967  0.25947  1.0000
  C   C1048     1.0  0.68297  0.08922  0.29690  1.0000
  C   C1049     1.0  0.57854  0.30626  0.98657  1.0000
  H   H1686     1.0  0.48678  0.42518  0.19788  1.0000
  H   H1687     1.0  0.71391  0.24082  0.03287  1.0000
  C   C1050     1.0  0.50863  0.09548  0.30421  1.0000
  S   S415      1.0  0.66106  0.04969  0.29392  1.0000
  H   H1688     1.0  0.60765  0.32221  0.99103  1.0000
  H   H1689     1.0  0.71208  0.46405  0.98408  1.0000
  C   C1051     1.0  0.49019  0.26642  0.28325  1.0000
  H   H1690     1.0  0.73453  0.38169  0.27250  1.0000
  H   H1691     1.0  0.50143  0.14125  0.29004  1.0000
  H   H1692     1.0  0.56628  0.31707  0.99171  1.0000
  H   H1693     1.0  0.49174  0.21643  0.28677  1.0000
  Fe  Fe206     1.0  0.48783  0.07605  0.24573  1.0000
  S   S416      1.0  0.73071  0.42247  0.25228  1.0000
  H   H1694     1.0  0.69249  0.03744  0.23430  1.0000
  H   H1695     1.0  0.69124  0.99377  0.27177  1.0000
  C   C1052     1.0  0.72994  0.39199  0.23468  1.0000
  H   H1696     1.0  0.72615  0.99088  0.23981  1.0000
  N   N106      1.0  0.71469  0.37976  0.29884  1.0000
  C   C1053     1.0  0.73579  0.07470  0.23324  1.0000
  H   H1697     1.0  0.73554  0.20952  0.03455  1.0000
  H   H1698     1.0  0.70560  0.99039  0.97213  1.0000
  H   H1699     1.0  0.53215  0.25440  0.33482  1.0000
  C   C1054     1.0  0.69162  0.11217  0.52735  1.0000
  H   H1700     1.0  0.73322  0.10893  0.57248  1.0000
  H   H1701     1.0  0.58857  0.11671  0.35964  1.0000
  H   H1702     1.0  0.71317  0.13818  0.50856  1.0000
  S   S417      1.0  0.52304  0.21743  0.36087  1.0000
  C   C1055     1.0  0.71059  0.09256  0.50477  1.0000
  H   H1703     1.0  0.53358  0.16940  0.60441  1.0000
  H   H1704     1.0  0.53815  0.19285  0.60494  1.0000
  Fe  Fe207     1.0  0.69426  0.14064  0.56861  1.0000
  S   S418      1.0  0.66876  0.15852  0.55629  1.0000
  H   H1705     1.0  0.54555  0.14140  0.62746  1.0000
  Fe  Fe208     1.0  0.71333  0.17574  0.56538  1.0000
  S   S419      1.0  0.68945  0.19585  0.55278  1.0000
  C   C1056     1.0  0.70338  0.20440  0.61757  1.0000
  Fe  Fe209     1.0  0.67007  0.17905  0.57525  1.0000
  S   S420      1.0  0.64553  0.19520  0.59350  1.0000
  Fe  Fe210     1.0  0.69058  0.17337  0.53506  1.0000
  S   S421      1.0  0.69202  0.18241  0.50311  1.0000
  S   S422      1.0  0.69393  0.16023  0.58917  1.0000
  S   S423      1.0  0.71608  0.15417  0.54602  1.0000
  H   H1706     1.0  0.69545  0.21723  0.46408  1.0000
  Fe  Fe211     1.0  0.61490  0.17509  0.40936  1.0000
  S   S424      1.0  0.63191  0.14525  0.41011  1.0000
  S   S425      1.0  0.58267  0.17568  0.41604  1.0000
  Fe  Fe212     1.0  0.65159  0.19306  0.40129  1.0000
  S   S426      1.0  0.67093  0.16452  0.40131  1.0000
  S   S427      1.0  0.66434  0.22050  0.39410  1.0000
  Fe  Fe213     1.0  0.65092  0.15802  0.38423  1.0000
  S   S428      1.0  0.66065  0.14834  0.35542  1.0000
  Fe  Fe214     1.0  0.64997  0.15479  0.42722  1.0000
  S   S429      1.0  0.65769  0.13722  0.45507  1.0000
  S   S430      1.0  0.63281  0.18736  0.38237  1.0000
  S   S431      1.0  0.63173  0.18378  0.42826  1.0000
  H   H1707     1.0  0.48768  0.05624  0.30853  1.0000
  C   C1057     1.0  0.68659  0.22045  0.40080  1.0000
  Fe  Fe215     1.0  0.49509  0.20717  0.36180  1.0000
  C   C1058     1.0  0.69609  0.20405  0.41121  1.0000
  N   N107      1.0  0.59152  0.13990  0.37283  1.0000
  H   H1708     1.0  0.68942  0.19139  0.41603  1.0000
  H   H1709     1.0  0.72510  0.19666  0.32750  1.0000
  C   C1059     1.0  0.69539  0.23684  0.39477  1.0000
  C   C1060     1.0  0.64378  0.09431  0.34378  1.0000
  C   C1061     1.0  0.64579  0.09559  0.36232  1.0000
  C   C1062     1.0  0.65050  0.11226  0.36615  1.0000
  C   C1063     1.0  0.65353  0.12770  0.35137  1.0000
  C   C1064     1.0  0.65137  0.12652  0.33285  1.0000
  C   C1065     1.0  0.64619  0.11002  0.32912  1.0000
  H   H1710     1.0  0.65229  0.11296  0.38045  1.0000
  H   H1711     1.0  0.65353  0.13850  0.32137  1.0000
  H   H1712     1.0  0.49382  0.28815  0.31185  1.0000
  H   H1713     1.0  0.59925  0.16433  0.38023  1.0000
  C   C1066     1.0  0.57065  0.14681  0.37701  1.0000
  H   H1714     1.0  0.67193  0.20092  0.34040  1.0000
  H   H1715     1.0  0.48984  0.06285  0.34018  1.0000
  H   H1716     1.0  0.50752  0.10706  0.31266  1.0000
  H   H1717     1.0  0.69084  0.12428  0.53499  1.0000
  C   C1067     1.0  0.73381  0.24842  0.58027  1.0000
  H   H1718     1.0  0.71597  0.05665  0.31921  1.0000
  C   C1068     1.0  0.68135  0.17030  0.49024  1.0000
  C   C1069     1.0  0.68433  0.17476  0.47023  1.0000
  C   C1070     1.0  0.67657  0.16505  0.45949  1.0000
  C   C1071     1.0  0.66618  0.15042  0.46862  1.0000
  C   C1072     1.0  0.66320  0.14586  0.48865  1.0000
  C   C1073     1.0  0.67052  0.15599  0.49948  1.0000
  H   H1719     1.0  0.69282  0.18559  0.46288  1.0000
  H   H1720     1.0  0.67900  0.16857  0.44408  1.0000
  H   H1721     1.0  0.65495  0.13469  0.49577  1.0000
  H   H1722     1.0  0.66786  0.15269  0.51490  1.0000
  H   H1723     1.0  0.52357  0.26025  0.35813  1.0000
  H   H1724     1.0  0.59725  0.16686  0.35559  1.0000
  C   C1074     1.0  0.63396  0.16104  0.61145  1.0000
  C   C1075     1.0  0.63188  0.18073  0.61141  1.0000
  H   H1725     1.0  0.71566  0.20683  0.47586  1.0000
  C   C1076     1.0  0.71364  0.23679  0.39896  1.0000
  H   H1726     1.0  0.57512  0.17945  0.62153  1.0000
  H   H1727     1.0  0.64410  0.15454  0.60046  1.0000
  H   H1728     1.0  0.51674  0.29386  0.31252  1.0000
  C   C1077     1.0  0.73072  0.09427  0.57491  1.0000
  C   C1078     1.0  0.70690  0.25100  0.44864  1.0000
  H   H1729     1.0  0.67498  0.18489  0.61886  1.0000
  H   H1730     1.0  0.69797  0.37111  0.32623  1.0000
  C   C1079     1.0  0.50796  0.28217  0.31650  1.0000
  H   H1731     1.0  0.70722  0.19446  0.60694  1.0000
  H   H1732     1.0  0.56685  0.15343  0.39011  1.0000
  H   H1733     1.0  0.72557  0.11359  0.53574  1.0000
  C   C1080     1.0  0.59581  0.12952  0.35648  1.0000
  C   C1081     1.0  0.53951  0.20559  0.37623  1.0000
  C   C1082     1.0  0.55850  0.20906  0.37164  1.0000
  C   C1083     1.0  0.57191  0.20014  0.38375  1.0000
  C   C1084     1.0  0.56626  0.18798  0.40075  1.0000
  C   C1085     1.0  0.54721  0.18470  0.40543  1.0000
  C   C1086     1.0  0.53393  0.19326  0.39310  1.0000
  H   H1734     1.0  0.56288  0.21867  0.35865  1.0000
  H   H1735     1.0  0.58652  0.20283  0.38006  1.0000
  H   H1736     1.0  0.54275  0.17531  0.41857  1.0000
  H   H1737     1.0  0.51930  0.19060  0.39684  1.0000
  S   S432      1.0  0.63897  0.07261  0.33956  1.0000
  H   H1738     1.0  0.68970  0.08483  0.61759  1.0000
  C   C1087     1.0  0.52477  0.26639  0.34261  1.0000
  N   N108      1.0  0.71052  0.10820  0.51516  1.0000
  H   H1739     1.0  0.53426  0.27741  0.33942  1.0000
  H   H1740     1.0  0.72464  0.18831  0.36253  1.0000
  C   C1088     1.0  0.49629  0.29014  0.34800  1.0000
  H   H1741     1.0  0.71908  0.21293  0.45038  1.0000
  H   H1742     1.0  0.69055  0.05698  0.32198  1.0000
  C   C1089     1.0  0.70963  0.20300  0.33043  1.0000
  C   C1090     1.0  0.54402  0.17721  0.60769  1.0000
  H   H1743     1.0  0.72466  0.08915  0.49546  1.0000
  H   H1744     1.0  0.67979  0.11603  0.51881  1.0000
  H   H1745     1.0  0.69934  0.09656  0.49547  1.0000
  H   H1746     1.0  0.50055  0.24714  0.33402  1.0000
  H   H1747     1.0  0.56233  0.13487  0.37949  1.0000
  H   H1748     1.0  0.61144  0.12432  0.35285  1.0000
  H   H1749     1.0  0.70451  0.25714  0.48454  1.0000
  H   H1750     1.0  0.72196  0.04146  0.58405  1.0000
  H   H1751     1.0  0.70822  0.21017  0.36573  1.0000
  N   N109      1.0  0.49521  0.08202  0.31351  1.0000
  H   H1752     1.0  0.70274  0.35397  0.31031  1.0000
  C   C1091     1.0  0.70258  0.24262  0.48304  1.0000
  S   S433      1.0  0.73094  0.27198  0.58486  1.0000
  C   C1092     1.0  0.60186  0.15643  0.36807  1.0000
  H   H1753     1.0  0.69421  0.16474  0.36125  1.0000
  C   C1093     1.0  0.67641  0.22166  0.60266  1.0000
  C   C1094     1.0  0.71437  0.20391  0.41523  1.0000
  H   H1754     1.0  0.71652  0.16533  0.34507  1.0000
  C   C1095     1.0  0.70919  0.19485  0.36446  1.0000
  S   S434      1.0  0.69199  0.10904  0.57709  1.0000
  H   H1755     1.0  0.70147  0.04137  0.61917  1.0000
  H   H1756     1.0  0.70875  0.21854  0.33076  1.0000
  C   C1096     1.0  0.70133  0.17259  0.34767  1.0000
  C   C1097     1.0  0.71202  0.09050  0.57764  1.0000
  H   H1757     1.0  0.49187  0.25312  0.35727  1.0000
  H   H1758     1.0  0.64392  0.08350  0.37376  1.0000
  C   C1098     1.0  0.72050  0.22403  0.57068  1.0000
  C   C1099     1.0  0.71901  0.24292  0.57381  1.0000
  H   H1759     1.0  0.69413  0.17070  0.33613  1.0000
  C   C1100     1.0  0.72562  0.10233  0.52728  1.0000
  C   C1101     1.0  0.72444  0.05613  0.58164  1.0000
  C   C1102     1.0  0.71422  0.12571  0.50128  1.0000
  H   H1760     1.0  0.67012  0.08427  0.30636  1.0000
  C   C1103     1.0  0.70321  0.06187  0.31198  1.0000
  H   H1761     1.0  0.70217  0.18759  0.37840  1.0000
  C   C1104     1.0  0.67952  0.20208  0.35193  1.0000
  C   C1105     1.0  0.62257  0.14977  0.62549  1.0000
  N   N110      1.0  0.54738  0.17081  0.62761  1.0000
  H   H1762     1.0  0.67782  0.21757  0.35293  1.0000
  H   H1763     1.0  0.70370  0.12994  0.49123  1.0000
  H   H1764     1.0  0.71627  0.05735  0.62238  1.0000
  H   H1765     1.0  0.72348  0.08891  0.53764  1.0000
  H   H1766     1.0  0.72140  0.35698  0.32199  1.0000
  C   C1106     1.0  0.71083  0.21770  0.46375  1.0000
  Fe  Fe216     1.0  0.72717  0.99425  0.62730  1.0000
  H   H1767     1.0  0.68347  0.23444  0.59658  1.0000
  H   H1768     1.0  0.67997  0.21200  0.59182  1.0000
  C   C1107     1.0  0.70897  0.07142  0.58078  1.0000
  C   C1108     1.0  0.67940  0.07512  0.62539  1.0000
  C   C1109     1.0  0.70522  0.04839  0.62992  1.0000
  H   H1769     1.0  0.61346  0.12142  0.38727  1.0000
  H   H1770     1.0  0.66258  0.23104  0.63731  1.0000
  H   H1771     1.0  0.71173  0.21636  0.61196  1.0000
  H   H1772     1.0  0.69401  0.10798  0.31985  1.0000
  H   H1773     1.0  0.61764  0.15174  0.36463  1.0000
  H   H1774     1.0  0.49436  0.28479  0.36369  1.0000
  H   H1775     1.0  0.55757  0.17466  0.59736  1.0000
  H   H1776     1.0  0.50490  0.30193  0.34492  1.0000
  H   H1777     1.0  0.51457  0.06528  0.33199  1.0000
  H   H1778     1.0  0.70640  0.25339  0.57107  1.0000
  H   H1779     1.0  0.67186  0.19503  0.36560  1.0000
  H   H1780     1.0  0.63641  0.00444  0.32316  1.0000
  H   H1781     1.0  0.72031  0.24948  0.39421  1.0000
  C   C1110     1.0  0.61869  0.18901  0.62576  1.0000
  S   S435      1.0  0.73391  0.99661  0.59536  1.0000
  N   N111      1.0  0.71365  0.23712  0.46493  1.0000
  C   C1111     1.0  0.69709  0.09202  0.32345  1.0000
  S   S436      1.0  0.49069  0.15988  0.32257  1.0000
  H   H1782     1.0  0.69458  0.06843  0.58248  1.0000
  H   H1783     1.0  0.72875  0.12357  0.49248  1.0000
  H   H1784     1.0  0.66061  0.22665  0.60447  1.0000
  H   H1785     1.0  0.70912  0.22009  0.56547  1.0000
  C   C1112     1.0  0.59776  0.12685  0.38983  1.0000
  H   H1786     1.0  0.59031  0.11417  0.39386  1.0000
  H   H1787     1.0  0.68696  0.24285  0.48387  1.0000
  H   H1788     1.0  0.70778  0.07915  0.51483  1.0000
  C   C1113     1.0  0.64157  0.98985  0.32067  1.0000
  H   H1789     1.0  0.71515  0.24732  0.43480  1.0000
  H   H1790     1.0  0.56955  0.14695  0.62142  1.0000
  H   H1791     1.0  0.49795  0.08434  0.34187  1.0000
  H   H1792     1.0  0.70708  0.23218  0.49560  1.0000
  N   N112      1.0  0.69993  0.19312  0.34861  1.0000
  C   C1114     1.0  0.49376  0.25926  0.34176  1.0000
  H   H1793     1.0  0.59469  0.13433  0.40242  1.0000
  H   H1794     1.0  0.68814  0.24960  0.38671  1.0000
  S   S437      1.0  0.48971  0.20910  0.33208  1.0000
  H   H1795     1.0  0.70847  0.19639  0.63094  1.0000
  H   H1796     1.0  0.68589  0.23773  0.62897  1.0000
  H   H1797     1.0  0.68470  0.08743  0.33408  1.0000
  H   H1798     1.0  0.67485  0.06893  0.61450  1.0000
  H   H1799     1.0  0.70870  0.26586  0.44912  1.0000
  H   H1800     1.0  0.59110  0.13892  0.34348  1.0000
  H   H1801     1.0  0.70990  0.08802  0.33068  1.0000
  H   H1802     1.0  0.69151  0.25113  0.44839  1.0000
  N   N113      1.0  0.68253  0.21166  0.62091  1.0000
  Fe  Fe217     1.0  0.63643  0.06730  0.31041  1.0000
  N   N114      1.0  0.50570  0.27451  0.33720  1.0000
  H   H1803     1.0  0.61707  0.20425  0.62578  1.0000
  H   H1804     1.0  0.56555  0.15788  0.36514  1.0000
  C   C1115     1.0  0.49957  0.07323  0.33275  1.0000
  H   H1805     1.0  0.62397  0.13460  0.62521  1.0000
  C   C1116     1.0  0.67207  0.19538  0.62884  1.0000
  H   H1806     1.0  0.72164  0.19110  0.42321  1.0000
  H   H1807     1.0  0.64415  0.10946  0.31489  1.0000
  H   H1808     1.0  0.48646  0.24339  0.30690  1.0000
  H   H1809     1.0  0.68868  0.09949  0.53850  1.0000
  C   C1117     1.0  0.72323  0.22026  0.40915  1.0000
  C   C1118     1.0  0.55532  0.15005  0.63059  1.0000
  H   H1810     1.0  0.66652  0.08419  0.63220  1.0000
  H   H1811     1.0  0.55558  0.19733  0.62965  1.0000
  H   H1812     1.0  0.65626  0.20032  0.63127  1.0000
  H   H1813     1.0  0.71290  0.40053  0.31691  1.0000
  C   C1119     1.0  0.56116  0.18163  0.63137  1.0000
  H   H1814     1.0  0.70298  0.20200  0.31816  1.0000
  C   C1120     1.0  0.67821  0.22525  0.63455  1.0000
  C   C1121     1.0  0.70893  0.36480  0.31505  1.0000
  C   C1122     1.0  0.73425  0.23711  0.46427  1.0000
  S   S438      1.0  0.61435  0.05099  0.30626  1.0000
  N   N115      1.0  0.70010  0.08301  0.30627  1.0000
  C   C1123     1.0  0.72317  0.39359  0.30568  1.0000
  H   H1815     1.0  0.51519  0.27076  0.30794  1.0000
  H   H1816     1.0  0.51831  0.16626  0.63862  1.0000
  Fe  Fe218     1.0  0.60831  0.00417  0.73515  1.0000
  S   S439      1.0  0.60071  0.47409  0.75506  1.0000
  S   S440      1.0  0.59736  0.02939  0.71370  1.0000
  S   S441      1.0  0.63773  0.00022  0.74260  1.0000
  C   C1124     1.0  0.67708  0.46381  0.83522  1.0000
  N   N116      1.0  0.52940  0.37991  0.76774  1.0000
  C   C1125     1.0  0.64908  0.99171  0.80949  1.0000
  H   H1817     1.0  0.69005  0.99660  0.94362  1.0000
  H   H1818     1.0  0.67500  0.44984  0.84344  1.0000
  H   H1819     1.0  0.68495  0.46378  0.93693  1.0000
  Fe  Fe219     1.0  0.71615  0.01731  0.88079  1.0000
  S   S442      1.0  0.70329  0.04401  0.89407  1.0000
  S   S443      1.0  0.59456  0.14342  0.65626  1.0000
  S   S444      1.0  0.64004  0.44483  0.76646  1.0000
  Fe  Fe220     1.0  0.60844  0.44840  0.77742  1.0000
  S   S445      1.0  0.59412  0.42273  0.79189  1.0000
  S   S446      1.0  0.71022  0.43481  0.91451  1.0000
  H   H1820     1.0  0.70053  0.39698  0.92822  1.0000
  Fe  Fe221     1.0  0.57810  0.32803  0.76512  1.0000
  S   S447      1.0  0.56317  0.32278  0.79545  1.0000
  S   S448      1.0  0.58777  0.35600  0.74961  1.0000
  Fe  Fe222     1.0  0.57245  0.28900  0.75753  1.0000
  S   S449      1.0  0.55723  0.28085  0.78749  1.0000
  S   S450      1.0  0.57373  0.27414  0.73242  1.0000
  Fe  Fe223     1.0  0.54175  0.31138  0.78417  1.0000
  S   S451      1.0  0.50997  0.32301  0.78937  1.0000
  Fe  Fe224     1.0  0.58020  0.29302  0.79598  1.0000
  S   S452      1.0  0.59501  0.27925  0.82124  1.0000
  S   S453      1.0  0.55542  0.31876  0.75375  1.0000
  S   S454      1.0  0.59667  0.29889  0.76615  1.0000
  Fe  Fe225     1.0  0.68426  0.30521  0.88581  1.0000
  S   S455      1.0  0.65337  0.30234  0.89579  1.0000
  S   S456      1.0  0.70787  0.28163  0.87607  1.0000
  Fe  Fe226     1.0  0.67608  0.34876  0.88650  1.0000
  S   S457      1.0  0.64468  0.34866  0.89746  1.0000
  S   S458      1.0  0.68678  0.37658  0.87233  1.0000
  Fe  Fe227     1.0  0.65458  0.32115  0.91666  1.0000
  S   S459      1.0  0.64094  0.30945  0.94658  1.0000
  Fe  Fe228     1.0  0.64651  0.32994  0.87577  1.0000
  S   S460      1.0  0.62765  0.33946  0.85307  1.0000
  S   S461      1.0  0.68609  0.32269  0.90755  1.0000
  S   S462      1.0  0.67731  0.33121  0.86399  1.0000
  Fe  Fe229     1.0  0.55226  0.13393  0.71813  1.0000
  S   S463      1.0  0.54632  0.14165  0.68810  1.0000
  S   S464      1.0  0.54896  0.10643  0.73902  1.0000
  Fe  Fe230     1.0  0.56438  0.17235  0.71711  1.0000
  S   S465      1.0  0.56004  0.18340  0.68661  1.0000
  S   S466      1.0  0.57367  0.18488  0.73932  1.0000
  Fe  Fe231     1.0  0.53284  0.17067  0.69544  1.0000
  S   S467      1.0  0.50547  0.18869  0.68658  1.0000
  Fe  Fe232     1.0  0.57385  0.15362  0.68135  1.0000
  S   S468      1.0  0.53618  0.16191  0.72626  1.0000
  S   S469      1.0  0.58073  0.14366  0.71092  1.0000
  S   S470      1.0  0.70440  0.19359  0.90946  1.0000
  C   C1126     1.0  0.55271  0.01305  0.73424  1.0000
  H   H1821     1.0  0.71293  0.98974  0.79682  1.0000
  H   H1822     1.0  0.50572  0.14972  0.68113  1.0000
  C   C1127     1.0  0.70697  0.25735  0.88633  1.0000
  C   C1128     1.0  0.70572  0.21808  0.90071  1.0000
  C   C1129     1.0  0.69010  0.23223  0.90581  1.0000
  C   C1130     1.0  0.69080  0.25183  0.89884  1.0000
  H   H1823     1.0  0.67752  0.22802  0.91538  1.0000
  H   H1824     1.0  0.67880  0.26260  0.90311  1.0000
  C   C1131     1.0  0.57431  0.24920  0.73454  1.0000
  C   C1132     1.0  0.57224  0.24194  0.71864  1.0000
  C   C1133     1.0  0.57168  0.22232  0.71998  1.0000
  C   C1134     1.0  0.57359  0.20974  0.73718  1.0000
  C   C1135     1.0  0.57581  0.21696  0.75305  1.0000
  C   C1136     1.0  0.57604  0.23665  0.75179  1.0000
  H   H1825     1.0  0.57097  0.25158  0.70523  1.0000
  H   H1826     1.0  0.57010  0.21688  0.70765  1.0000
  H   H1827     1.0  0.57739  0.20728  0.76637  1.0000
  H   H1828     1.0  0.57772  0.24208  0.76411  1.0000
  C   C1137     1.0  0.60409  0.29592  0.83018  1.0000
  C   C1138     1.0  0.60588  0.31408  0.81936  1.0000
  C   C1139     1.0  0.61306  0.32731  0.82660  1.0000
  C   C1140     1.0  0.61876  0.32239  0.84458  1.0000
  C   C1141     1.0  0.61705  0.30422  0.85543  1.0000
  C   C1142     1.0  0.60973  0.29099  0.84822  1.0000
  H   H1829     1.0  0.60185  0.31793  0.80533  1.0000
  H   H1830     1.0  0.61426  0.34137  0.81816  1.0000
  H   H1831     1.0  0.62092  0.30056  0.86954  1.0000
  H   H1832     1.0  0.60814  0.27705  0.85675  1.0000
  H   H1833     1.0  0.56386  0.01593  0.69646  1.0000
  N   N117      1.0  0.71504  0.00774  0.94532  1.0000
  H   H1834     1.0  0.55070  0.02814  0.72644  1.0000
  H   H1835     1.0  0.68021  0.03556  0.66027  1.0000
  C   C1143     1.0  0.70384  0.99985  0.93474  1.0000
  H   H1836     1.0  0.51613  0.28253  0.80547  1.0000
  H   H1837     1.0  0.53331  0.40568  0.74738  1.0000
  H   H1838     1.0  0.53321  0.24170  0.76359  1.0000
  C   C1144     1.0  0.72197  0.22363  0.88840  1.0000
  C   C1145     1.0  0.69386  0.06874  0.65380  1.0000
  H   H1839     1.0  0.64098  0.34657  0.95643  1.0000
  C   C1146     1.0  0.70210  0.41919  0.90329  1.0000
  C   C1147     1.0  0.69875  0.40105  0.91340  1.0000
  C   C1148     1.0  0.69345  0.38795  0.90427  1.0000
  C   C1149     1.0  0.69156  0.39297  0.88498  1.0000
  C   C1150     1.0  0.69457  0.41124  0.87502  1.0000
  C   C1151     1.0  0.69971  0.42434  0.88417  1.0000
  H   H1840     1.0  0.69300  0.41523  0.86012  1.0000
  H   H1841     1.0  0.70185  0.43840  0.87637  1.0000
  C   C1152     1.0  0.59411  0.40371  0.77997  1.0000
  C   C1153     1.0  0.58916  0.38635  0.79073  1.0000
  C   C1154     1.0  0.58810  0.37120  0.78167  1.0000
  C   C1155     1.0  0.59152  0.37351  0.76172  1.0000
  C   C1156     1.0  0.59679  0.39075  0.75098  1.0000
  C   C1157     1.0  0.59822  0.40576  0.76006  1.0000
  H   H1842     1.0  0.58610  0.38460  0.80616  1.0000
  H   H1843     1.0  0.58441  0.35787  0.79014  1.0000
  H   H1844     1.0  0.59955  0.39261  0.73554  1.0000
  H   H1845     1.0  0.60209  0.41906  0.75164  1.0000
  H   H1846     1.0  0.67168  0.46034  0.96083  1.0000
  H   H1847     1.0  0.50192  0.39580  0.76227  1.0000
  S   S471      1.0  0.59433  0.99562  0.76533  1.0000
  C   C1158     1.0  0.48972  0.27265  0.80599  1.0000
  H   H1848     1.0  0.53045  0.35592  0.79087  1.0000
  H   H1849     1.0  0.67619  0.18751  0.64268  1.0000
  N   N118      1.0  0.51458  0.26506  0.74941  1.0000
  H   H1850     1.0  0.51448  0.26622  0.71954  1.0000
  H   H1851     1.0  0.56717  0.01010  0.73837  1.0000
  C   C1159     1.0  0.71152  0.07721  0.90174  1.0000
  C   C1160     1.0  0.67118  0.46968  0.81733  1.0000
  H   H1852     1.0  0.69697  0.07923  0.90941  1.0000
  N   N119      1.0  0.70014  0.46641  0.95869  1.0000
  C   C1161     1.0  0.58477  0.05088  0.72127  1.0000
  C   C1162     1.0  0.58227  0.06765  0.70763  1.0000
  C   C1163     1.0  0.57159  0.08484  0.71301  1.0000
  C   C1164     1.0  0.56288  0.08520  0.73200  1.0000
  C   C1165     1.0  0.56538  0.06844  0.74568  1.0000
  C   C1166     1.0  0.57649  0.05136  0.74038  1.0000
  H   H1853     1.0  0.58863  0.06737  0.69282  1.0000
  H   H1854     1.0  0.56980  0.09771  0.70238  1.0000
  H   H1855     1.0  0.55869  0.06865  0.76040  1.0000
  H   H1856     1.0  0.57836  0.03852  0.75100  1.0000
  H   H1857     1.0  0.66926  0.00266  0.84401  1.0000
  H   H1858     1.0  0.68926  0.47159  0.85680  1.0000
  H   H1859     1.0  0.52394  0.35510  0.75888  1.0000
  H   H1860     1.0  0.52873  0.01852  0.70898  1.0000
  H   H1861     1.0  0.49920  0.29246  0.73805  1.0000
  H   H1862     1.0  0.53929  0.40534  0.77042  1.0000
  C   C1167     1.0  0.66765  0.47473  0.70381  1.0000
  H   H1863     1.0  0.66086  0.05535  0.65685  1.0000
  H   H1864     1.0  0.50097  0.37481  0.78053  1.0000
  C   C1168     1.0  0.65130  0.00098  0.82400  1.0000
  C   C1169     1.0  0.68526  0.47608  0.84278  1.0000
  C   C1170     1.0  0.64374  0.33543  0.96852  1.0000
  S   S472      1.0  0.60956  0.46693  0.79838  1.0000
  H   H1865     1.0  0.69118  0.37386  0.91202  1.0000
  H   H1866     1.0  0.53118  0.16983  0.65598  1.0000
  N   N120      1.0  0.67023  0.26693  0.84325  1.0000
  C   C1171     1.0  0.66161  0.27751  0.85913  1.0000
  C   C1172     1.0  0.67597  0.24640  0.85105  1.0000
  C   C1173     1.0  0.68732  0.27495  0.83244  1.0000
  C   C1174     1.0  0.65604  0.26898  0.83052  1.0000
  H   H1867     1.0  0.65749  0.29316  0.85387  1.0000
  H   H1868     1.0  0.67187  0.27606  0.86908  1.0000
  H   H1869     1.0  0.64856  0.27205  0.86760  1.0000
  H   H1870     1.0  0.68241  0.23788  0.83949  1.0000
  H   H1871     1.0  0.68679  0.24443  0.86062  1.0000
  H   H1872     1.0  0.66349  0.24000  0.85967  1.0000
  H   H1873     1.0  0.68354  0.29051  0.82665  1.0000
  H   H1874     1.0  0.69426  0.26739  0.82026  1.0000
  H   H1875     1.0  0.69827  0.27360  0.84173  1.0000
  H   H1876     1.0  0.65097  0.28438  0.82490  1.0000
  H   H1877     1.0  0.64310  0.26277  0.83818  1.0000
  H   H1878     1.0  0.66212  0.26157  0.81807  1.0000
  S   S473      1.0  0.73162  0.47183  0.67795  1.0000
  H   H1879     1.0  0.71199  0.03240  0.95878  1.0000
  C   C1175     1.0  0.49299  0.15885  0.67674  1.0000
  H   H1880     1.0  0.55759  0.14465  0.64562  1.0000
  H   H1881     1.0  0.73404  0.21284  0.88429  1.0000
  C   C1176     1.0  0.70689  0.47261  0.68736  1.0000
  C   C1177     1.0  0.66323  0.98352  0.69068  1.0000
  H   H1882     1.0  0.68261  0.21821  0.64852  1.0000
  C   C1178     1.0  0.48942  0.17836  0.67806  1.0000
  C   C1179     1.0  0.53798  0.36830  0.78413  1.0000
  S   S474      1.0  0.65969  0.45432  0.80912  1.0000
  H   H1883     1.0  0.54064  0.26465  0.75956  1.0000
  H   H1884     1.0  0.64875  0.98763  0.69785  1.0000
  H   H1885     1.0  0.73001  0.46913  0.95092  1.0000
  C   C1180     1.0  0.50164  0.28656  0.80249  1.0000
  H   H1886     1.0  0.70057  0.05759  0.66469  1.0000
  H   H1887     1.0  0.73504  0.24734  0.87142  1.0000
  H   H1888     1.0  0.53753  0.37694  0.79533  1.0000
  H   H1889     1.0  0.71838  0.46892  0.93148  1.0000
  H   H1890     1.0  0.71158  0.47041  0.71621  1.0000
  H   H1891     1.0  0.55326  0.36237  0.77950  1.0000
  C   C1181     1.0  0.49479  0.30566  0.79520  1.0000
  N   N121      1.0  0.64049  0.39513  0.82674  1.0000
  C   C1182     1.0  0.63121  0.38313  0.81829  1.0000
  C   C1183     1.0  0.62742  0.41344  0.82903  1.0000
  C   C1184     1.0  0.65846  0.39922  0.81402  1.0000
  C   C1185     1.0  0.64486  0.38477  0.84560  1.0000
  H   H1892     1.0  0.62763  0.39050  0.80406  1.0000
  H   H1893     1.0  0.61760  0.37977  0.82758  1.0000
  H   H1894     1.0  0.64059  0.36911  0.81649  1.0000
  H   H1895     1.0  0.63400  0.42289  0.83527  1.0000
  H   H1896     1.0  0.62392  0.42156  0.81500  1.0000
  H   H1897     1.0  0.61362  0.41093  0.83841  1.0000
  H   H1898     1.0  0.66873  0.38575  0.81202  1.0000
  H   H1899     1.0  0.66571  0.40838  0.81996  1.0000
  H   H1900     1.0  0.65566  0.40707  0.79967  1.0000
  H   H1901     1.0  0.65476  0.37091  0.84437  1.0000
  H   H1902     1.0  0.63166  0.38123  0.85554  1.0000
  H   H1903     1.0  0.65188  0.39335  0.85247  1.0000
  N   N122      1.0  0.59083  0.11526  0.76574  1.0000
  C   C1186     1.0  0.59991  0.10816  0.74775  1.0000
  C   C1187     1.0  0.57954  0.10110  0.77817  1.0000
  C   C1188     1.0  0.57804  0.13381  0.76142  1.0000
  C   C1189     1.0  0.60587  0.11801  0.77558  1.0000
  H   H1904     1.0  0.58896  0.10616  0.73984  1.0000
  H   H1905     1.0  0.60944  0.09403  0.75044  1.0000
  H   H1906     1.0  0.60862  0.11845  0.73803  1.0000
  H   H1907     1.0  0.57250  0.10597  0.79188  1.0000
  H   H1908     1.0  0.56800  0.09884  0.77115  1.0000
  H   H1909     1.0  0.58869  0.08685  0.78154  1.0000
  H   H1910     1.0  0.57109  0.13981  0.77457  1.0000
  H   H1911     1.0  0.56636  0.13231  0.75414  1.0000
  H   H1912     1.0  0.58605  0.14477  0.75187  1.0000
  H   H1913     1.0  0.61454  0.12874  0.76658  1.0000
  H   H1914     1.0  0.61587  0.10433  0.77899  1.0000
  H   H1915     1.0  0.59953  0.12335  0.78923  1.0000
  H   H1916     1.0  0.55501  0.39129  0.75409  1.0000
  C   C1190     1.0  0.53962  0.39632  0.75956  1.0000
  C   C1191     1.0  0.71835  0.06111  0.89262  1.0000
  S   S475      1.0  0.72938  0.46514  0.86357  1.0000
  C   C1192     1.0  0.66772  0.99542  0.83287  1.0000
  C   C1193     1.0  0.68622  0.45777  0.95215  1.0000
  H   H1917     1.0  0.72761  0.99902  0.97089  1.0000
  C   C1194     1.0  0.67351  0.47559  0.68398  1.0000
  C   C1195     1.0  0.52788  0.25735  0.76325  1.0000
  H   H1918     1.0  0.67718  0.47209  0.73064  1.0000
  H   H1919     1.0  0.71795  0.10322  0.90788  1.0000
  H   H1920     1.0  0.59744  0.18408  0.65110  1.0000
  H   H1921     1.0  0.52094  0.25948  0.77796  1.0000
  Fe  Fe233     1.0  0.71410  0.98613  0.85837  1.0000
  H   H1922     1.0  0.50713  0.39605  0.78545  1.0000
  H   H1923     1.0  0.52152  0.29346  0.74500  1.0000
  Fe  Fe234     1.0  0.72142  0.46044  0.89532  1.0000
  H   H1924     1.0  0.64025  0.01252  0.82843  1.0000
  C   C1196     1.0  0.67406  0.04723  0.64942  1.0000
  H   H1925     1.0  0.66002  0.00517  0.66569  1.0000
  C   C1197     1.0  0.72250  0.24318  0.88111  1.0000
  C   C1198     1.0  0.72338  0.09085  0.90088  1.0000
  S   S476      1.0  0.72265  0.01536  0.84952  1.0000
  C   C1199     1.0  0.53115  0.36786  0.75305  1.0000
  H   H1926     1.0  0.54201  0.01225  0.74763  1.0000
  C   C1200     1.0  0.68845  0.98835  0.66316  1.0000
  H   H1927     1.0  0.49517  0.25788  0.81155  1.0000
  N   N123      1.0  0.55102  0.99933  0.72231  1.0000
  H   H1928     1.0  0.54649  0.36240  0.74774  1.0000
  H   H1929     1.0  0.72447  0.44694  0.94722  1.0000
  C   C1201     1.0  0.50880  0.28602  0.74875  1.0000
  H   H1930     1.0  0.69077  0.44194  0.95300  1.0000
  H   H1931     1.0  0.52971  0.24564  0.73035  1.0000
  S   S477      1.0  0.62773  0.99847  0.79947  1.0000
  S   S478      1.0  0.64291  0.47678  0.71356  1.0000
  H   H1932     1.0  0.52469  0.37604  0.74049  1.0000
  H   H1933     1.0  0.48982  0.25815  0.76984  1.0000
  S   S479      1.0  0.69597  0.00106  0.64033  1.0000
  Fe  Fe235     1.0  0.62421  0.98900  0.77247  1.0000
  H   H1934     1.0  0.71867  0.01262  0.78448  1.0000
  Fe  Fe236     1.0  0.64080  0.46470  0.78637  1.0000
  H   H1935     1.0  0.52988  0.99354  0.70817  1.0000
  C   C1202     1.0  0.50892  0.38700  0.77427  1.0000
  H   H1936     1.0  0.73281  0.42431  0.85412  1.0000
  C   C1203     1.0  0.64623  0.31610  0.96671  1.0000
  H   H1937     1.0  0.71913  0.00562  0.80969  1.0000
  C   C1204     1.0  0.52428  0.26125  0.73024  1.0000
  C   C1205     1.0  0.49742  0.25565  0.75536  1.0000
  H   H1938     1.0  0.56462  0.99103  0.69526  1.0000
  C   C1206     1.0  0.71912  0.46262  0.94665  1.0000
  C   C1207     1.0  0.71908  0.99364  0.96254  1.0000
  Fe  Fe237     1.0  0.63282  0.47195  0.74565  1.0000
  C   C1208     1.0  0.73333  0.01150  0.93303  1.0000
  H   H1939     1.0  0.53683  0.26884  0.72507  1.0000
  H   H1940     1.0  0.70033  0.01019  0.92177  1.0000
  H   H1941     1.0  0.71192  0.98629  0.93003  1.0000
  C   C1209     1.0  0.53163  0.00368  0.71715  1.0000
  H   H1942     1.0  0.73077  0.02222  0.91997  1.0000
  S   S480      1.0  0.70444  0.98933  0.88941  1.0000
  C   C1210     1.0  0.72255  0.00030  0.79580  1.0000
  Fe  Fe238     1.0  0.73260  0.17306  0.90757  1.0000
  C   C1211     1.0  0.70395  0.02594  0.95085  1.0000
  H   H1943     1.0  0.68130  0.07749  0.66146  1.0000
  H   H1944     1.0  0.50093  0.28940  0.76280  1.0000
  H   H1945     1.0  0.68997  0.02374  0.96003  1.0000
  C   C1212     1.0  0.66966  0.99346  0.67248  1.0000
  C   C1213     1.0  0.70098  0.47180  0.70716  1.0000
  H   H1946     1.0  0.70078  0.03678  0.93799  1.0000
  C   C1214     1.0  0.68149  0.47276  0.71538  1.0000
  H   H1947     1.0  0.56429  0.17684  0.64617  1.0000
  C   C1215     1.0  0.69307  0.47442  0.67578  1.0000
  H   H1948     1.0  0.66290  0.47707  0.67493  1.0000
  H   H1949     1.0  0.52036  0.00249  0.73011  1.0000
  H   H1950     1.0  0.52261  0.18984  0.63910  1.0000
  H   H1951     1.0  0.73342  0.39311  0.87655  1.0000
  H   H1952     1.0  0.58033  0.99767  0.70812  1.0000
  C   C1216     1.0  0.56552  0.00104  0.70474  1.0000
  H   H1953     1.0  0.70451  0.07833  0.64683  1.0000
  H   H1954     1.0  0.50131  0.23983  0.75588  1.0000
  H   H1955     1.0  0.69745  0.47507  0.66052  1.0000
  H   H1956     1.0  0.66971  0.04002  0.63916  1.0000
  C   C1217     1.0  0.52908  0.17433  0.64084  1.0000
  C   C1218     1.0  0.60755  0.17764  0.64007  1.0000
  H   H1957     1.0  0.48693  0.26127  0.74537  1.0000
  C   C1219     1.0  0.60931  0.15802  0.63978  1.0000
  H   H1958     1.0  0.71200  0.03670  0.64029  1.0000
  N   N124      1.0  0.68811  0.05989  0.63962  1.0000
  C   C1220     1.0  0.68187  0.98022  0.82757  1.0000
  Fe  Fe239     1.0  0.70988  0.83380  0.01974  1.0000
  S   S481      1.0  0.69950  0.80545  0.02160  1.0000
  Fe  Fe240     1.0  0.72296  0.85822  0.04392  1.0000
  H   H1959     1.0  0.73509  0.91313  0.98128  1.0000
  H   H1960     1.0  0.70775  0.97619  0.24521  1.0000
  S   S482      1.0  0.69588  0.86070  0.03170  1.0000
  C   C1221     1.0  0.69150  0.89841  0.13063  1.0000
  H   H1961     1.0  0.71261  0.87192  0.15321  1.0000
  H   H1962     1.0  0.73056  0.77537  0.97929  1.0000
  Fe  Fe241     1.0  0.61878  0.76246  0.99838  1.0000
  S   S483      1.0  0.62765  0.73807  0.02110  1.0000
  S   S484      1.0  0.72372  0.84969  0.99214  1.0000
  S   S485      1.0  0.61457  0.70990  0.99741  1.0000
  Fe  Fe242     1.0  0.60064  0.72800  0.01985  1.0000
  S   S486      1.0  0.57906  0.71734  0.04507  1.0000
  Fe  Fe243     1.0  0.64085  0.72238  0.99667  1.0000
  S   S487      1.0  0.59030  0.75375  0.99882  1.0000
  Fe  Fe244     1.0  0.57239  0.70289  0.15498  1.0000
  S   S488      1.0  0.55712  0.67868  0.15540  1.0000
  S   S489      1.0  0.59440  0.71203  0.12938  1.0000
  Fe  Fe245     1.0  0.55434  0.70688  0.19666  1.0000
  S   S490      1.0  0.53886  0.68196  0.20015  1.0000
  S   S491      1.0  0.54376  0.72716  0.21815  1.0000
  Fe  Fe246     1.0  0.56623  0.66755  0.18411  1.0000
  S   S492      1.0  0.57788  0.63567  0.18839  1.0000
  Fe  Fe247     1.0  0.53145  0.69541  0.17135  1.0000
  C   C1222     1.0  0.72608  0.87644  0.26253  1.0000
  S   S493      1.0  0.58259  0.69124  0.18319  1.0000
  S   S494      1.0  0.54595  0.72083  0.16821  1.0000
  Fe  Fe248     1.0  0.69884  0.55916  0.16072  1.0000
  S   S495      1.0  0.67053  0.55508  0.17960  1.0000
  H   H1963     1.0  0.71533  0.75699  0.01943  1.0000
  Fe  Fe249     1.0  0.71963  0.55259  0.19520  1.0000
  S   S496      1.0  0.69278  0.54859  0.21593  1.0000
  H   H1964     1.0  0.68563  0.61494  0.22406  1.0000
  Fe  Fe250     1.0  0.68785  0.53033  0.19643  1.0000
  S   S497      1.0  0.68545  0.49934  0.20860  1.0000
  Fe  Fe251     1.0  0.67838  0.57379  0.19704  1.0000
  S   S498      1.0  0.66047  0.59957  0.20916  1.0000
  S   S499      1.0  0.71545  0.53305  0.17637  1.0000
  S   S500      1.0  0.70582  0.57926  0.17743  1.0000
  H   H1965     1.0  0.69575  0.88419  0.12584  1.0000
  C   C1223     1.0  0.71752  0.76857  0.98183  1.0000
  S   S501      1.0  0.58613  0.73233  0.28526  1.0000
  C   C1224     1.0  0.70094  0.65392  0.99903  1.0000
  H   H1966     1.0  0.59447  0.77468  0.03038  1.0000
  H   H1967     1.0  0.65546  0.86160  0.29805  1.0000
  H   H1968     1.0  0.71190  0.52140  0.13894  1.0000
  H   H1969     1.0  0.67186  0.48940  0.12959  1.0000
  H   H1970     1.0  0.65398  0.76629  0.01509  1.0000
  S   S502      1.0  0.70565  0.88978  0.21237  1.0000
  C   C1225     1.0  0.70947  0.87889  0.27626  1.0000
  C   C1226     1.0  0.70717  0.88599  0.23693  1.0000
  C   C1227     1.0  0.69047  0.88833  0.25065  1.0000
  C   C1228     1.0  0.69163  0.88506  0.27027  1.0000
  H   H1971     1.0  0.67666  0.89297  0.24607  1.0000
  H   H1972     1.0  0.67877  0.88722  0.28073  1.0000
  H   H1973     1.0  0.67719  0.82784  0.26412  1.0000
  S   S503      1.0  0.62186  0.79262  0.00065  1.0000
  C   C1229     1.0  0.57350  0.68673  0.00388  1.0000
  C   C1230     1.0  0.65536  0.49812  0.19091  1.0000
  H   H1974     1.0  0.72025  0.89465  0.15023  1.0000
  H   H1975     1.0  0.50533  0.71253  0.22624  1.0000
  H   H1976     1.0  0.60294  0.80285  0.03885  1.0000
  H   H1977     1.0  0.70796  0.88467  0.17297  1.0000
  N   N125      1.0  0.66857  0.83316  0.29296  1.0000
  H   H1978     1.0  0.57886  0.68870  0.01663  1.0000
  Fe  Fe252     1.0  0.60583  0.73625  0.97622  1.0000
  H   H1979     1.0  0.56379  0.72299  0.01134  1.0000
  C   C1231     1.0  0.64729  0.81505  0.00428  1.0000
  H   H1980     1.0  0.63714  0.82715  0.99885  1.0000
  C   C1232     1.0  0.69629  0.67400  0.99740  1.0000
  C   C1233     1.0  0.67012  0.82111  0.27832  1.0000
  C   C1234     1.0  0.70338  0.74000  0.99480  1.0000
  C   C1235     1.0  0.72498  0.88015  0.24297  1.0000
  C   C1236     1.0  0.67723  0.68326  0.99753  1.0000
  C   C1237     1.0  0.55579  0.72806  0.23680  1.0000
  C   C1238     1.0  0.57319  0.71608  0.23953  1.0000
  C   C1239     1.0  0.58236  0.71745  0.25449  1.0000
  C   C1240     1.0  0.57424  0.73084  0.26671  1.0000
  C   C1241     1.0  0.55677  0.74271  0.26404  1.0000
  C   C1242     1.0  0.54758  0.74129  0.24916  1.0000
  H   H1981     1.0  0.57960  0.70583  0.23009  1.0000
  H   H1982     1.0  0.59586  0.70822  0.25649  1.0000
  H   H1983     1.0  0.55031  0.75296  0.27346  1.0000
  H   H1984     1.0  0.53407  0.75052  0.24721  1.0000
  H   H1985     1.0  0.70751  0.68234  0.99604  1.0000
  H   H1986     1.0  0.51106  0.66186  0.17337  1.0000
  C   C1243     1.0  0.60101  0.62612  0.19392  1.0000
  C   C1244     1.0  0.60924  0.60732  0.19108  1.0000
  C   C1245     1.0  0.62770  0.59924  0.19514  1.0000
  C   C1246     1.0  0.63787  0.60974  0.20255  1.0000
  C   C1247     1.0  0.62964  0.62853  0.20545  1.0000
  C   C1248     1.0  0.61134  0.63679  0.20096  1.0000
  H   H1987     1.0  0.60125  0.59893  0.18580  1.0000
  H   H1988     1.0  0.63381  0.58469  0.19306  1.0000
  H   H1989     1.0  0.63740  0.63672  0.21124  1.0000
  H   H1990     1.0  0.60508  0.65124  0.20330  1.0000
  C   C1249     1.0  0.67004  0.48770  0.20069  1.0000
  H   H1991     1.0  0.65293  0.51366  0.18857  1.0000
  C   C1250     1.0  0.58362  0.71542  0.06849  1.0000
  C   C1251     1.0  0.56894  0.71217  0.08411  1.0000
  C   C1252     1.0  0.57205  0.71107  0.10288  1.0000
  C   C1253     1.0  0.58987  0.71328  0.10611  1.0000
  C   C1254     1.0  0.60460  0.71633  0.09050  1.0000
  C   C1255     1.0  0.60153  0.71730  0.07177  1.0000
  H   H1992     1.0  0.55506  0.71061  0.08171  1.0000
  H   H1993     1.0  0.56060  0.70867  0.11482  1.0000
  H   H1994     1.0  0.61850  0.71781  0.09294  1.0000
  H   H1995     1.0  0.61307  0.71929  0.05990  1.0000
  H   H1996     1.0  0.51037  0.71918  0.20082  1.0000
  S   S504      1.0  0.73583  0.83024  0.03369  1.0000
  H   H1997     1.0  0.72914  0.89648  0.06443  1.0000
  C   C1256     1.0  0.49329  0.83089  0.26554  1.0000
  C   C1257     1.0  0.66282  0.67234  0.99923  1.0000
  H   H1998     1.0  0.72804  0.51093  0.24233  1.0000
  Fe  Fe253     1.0  0.71184  0.87653  0.00476  1.0000
  C   C1258     1.0  0.71414  0.56627  0.10938  1.0000
  N   N126      1.0  0.69005  0.89648  0.15155  1.0000
  H   H1999     1.0  0.48735  0.82619  0.23135  1.0000
  C   C1259     1.0  0.49110  0.79883  0.26230  1.0000
  H   H2000     1.0  0.67786  0.87064  0.15762  1.0000
  H   H2001     1.0  0.53719  0.68254  0.01966  1.0000
  H   H2002     1.0  0.70590  0.77755  0.99036  1.0000
  C   C1260     1.0  0.67746  0.80267  0.01611  1.0000
  C   C1261     1.0  0.67333  0.78402  0.01864  1.0000
  C   C1262     1.0  0.65669  0.78079  0.01340  1.0000
  C   C1263     1.0  0.64349  0.79629  0.00629  1.0000
  C   C1264     1.0  0.66432  0.81824  0.00896  1.0000
  H   H2003     1.0  0.68307  0.77197  0.02470  1.0000
  H   H2004     1.0  0.57163  0.77891  0.08039  1.0000
  N   N127      1.0  0.61307  0.64931  0.13335  1.0000
  C   C1265     1.0  0.63258  0.63997  0.12600  1.0000
  C   C1266     1.0  0.60050  0.63463  0.14038  1.0000
  C   C1267     1.0  0.60528  0.66365  0.11790  1.0000
  C   C1268     1.0  0.61389  0.65900  0.14919  1.0000
  H   H2005     1.0  0.63255  0.63257  0.11396  1.0000
  H   H2006     1.0  0.63878  0.62898  0.13735  1.0000
  H   H2007     1.0  0.64247  0.65064  0.12074  1.0000
  H   H2008     1.0  0.58565  0.64117  0.14613  1.0000
  H   H2009     1.0  0.59953  0.62696  0.12887  1.0000
  H   H2010     1.0  0.60582  0.62371  0.15222  1.0000
  H   H2011     1.0  0.60429  0.65692  0.10571  1.0000
  H   H2012     1.0  0.61439  0.67499  0.11229  1.0000
  H   H2013     1.0  0.59065  0.67110  0.12309  1.0000
  H   H2014     1.0  0.62223  0.67102  0.14422  1.0000
  H   H2015     1.0  0.62055  0.64882  0.16072  1.0000
  H   H2016     1.0  0.59930  0.66521  0.15577  1.0000
  N   N128      1.0  0.59683  0.77742  0.05872  1.0000
  C   C1269     1.0  0.58702  0.77214  0.07854  1.0000
  C   C1270     1.0  0.61723  0.76833  0.05704  1.0000
  H   H2017     1.0  0.58750  0.75631  0.08257  1.0000
  H   H2018     1.0  0.59382  0.77667  0.08900  1.0000
  H   H2019     1.0  0.61883  0.75241  0.06076  1.0000
  H   H2020     1.0  0.62475  0.77326  0.06665  1.0000
  H   H2021     1.0  0.62495  0.77191  0.04219  1.0000
  H   H2022     1.0  0.58860  0.75478  0.04852  1.0000
  H   H2023     1.0  0.71568  0.64693  0.99890  1.0000
  H   H2024     1.0  0.70908  0.49807  0.24201  1.0000
  C   C1271     1.0  0.59555  0.79852  0.05374  1.0000
  H   H2025     1.0  0.70423  0.52591  0.11628  1.0000
  H   H2026     1.0  0.57104  0.67162  0.00622  1.0000
  H   H2027     1.0  0.65628  0.64387  0.00216  1.0000
  H   H2028     1.0  0.69701  0.82163  0.29921  1.0000
  H   H2029     1.0  0.70541  0.72481  0.00231  1.0000
  C   C1272     1.0  0.68459  0.49651  0.12326  1.0000
  H   H2030     1.0  0.66061  0.89243  0.15757  1.0000
  H   H2031     1.0  0.60497  0.85648  0.29513  1.0000
  C   C1273     1.0  0.70922  0.57385  0.09123  1.0000
  S   S505      1.0  0.69776  0.90181  0.98491  1.0000
  H   H2032     1.0  0.50324  0.74279  0.28557  1.0000
  C   C1274     1.0  0.68792  0.83562  0.29477  1.0000
  S   S506      1.0  0.72666  0.92631  0.17126  1.0000
  H   H2033     1.0  0.67814  0.52613  0.15565  1.0000
  C   C1275     1.0  0.49651  0.66568  0.17047  1.0000
  H   H2034     1.0  0.57173  0.72300  0.98634  1.0000
  C   C1276     1.0  0.54965  0.69799  0.98325  1.0000
  H   H2035     1.0  0.73547  0.85099  0.11235  1.0000
  H   H2036     1.0  0.69438  0.57948  0.08991  1.0000
  H   H2037     1.0  0.64811  0.67935  0.99932  1.0000
  H   H2038     1.0  0.49801  0.82549  0.27971  1.0000
  H   H2039     1.0  0.69654  0.92472  0.14932  1.0000
  C   C1277     1.0  0.72332  0.57419  0.07473  1.0000
  H   H2040     1.0  0.49633  0.79311  0.27610  1.0000
  S   S507      1.0  0.67192  0.70844  0.99558  1.0000
  C   C1278     1.0  0.66746  0.65226  0.00081  1.0000
  C   C1279     1.0  0.48820  0.68501  0.16647  1.0000
  H   H2041     1.0  0.69882  0.73994  0.98102  1.0000
  H   H2042     1.0  0.66727  0.83270  0.00701  1.0000
  C   C1280     1.0  0.73589  0.86581  0.10576  1.0000
  C   C1281     1.0  0.72653  0.74807  0.01047  1.0000
  H   H2043     1.0  0.71932  0.58010  0.06084  1.0000
  H   H2044     1.0  0.58038  0.80592  0.05467  1.0000
  H   H2045     1.0  0.48717  0.74266  0.18354  1.0000
  C   C1282     1.0  0.72342  0.50131  0.23455  1.0000
  H   H2046     1.0  0.72147  0.50965  0.22014  1.0000
  S   S508      1.0  0.71174  0.87281  0.30066  1.0000
  S   S509      1.0  0.63348  0.74743  0.97382  1.0000
  S   S510      1.0  0.50054  0.70348  0.16706  1.0000
  C   C1283     1.0  0.73167  0.87219  0.08713  1.0000
  C   C1284     1.0  0.69519  0.49010  0.15379  1.0000
  H   H2047     1.0  0.63204  0.49645  0.17708  1.0000
  H   H2048     1.0  0.50390  0.79795  0.25084  1.0000
  Fe  Fe254     1.0  0.73182  0.89965  0.19297  1.0000
  C   C1285     1.0  0.70851  0.88645  0.15725  1.0000
  H   H2049     1.0  0.49223  0.63627  0.17436  1.0000
  H   H2050     1.0  0.50093  0.74666  0.22926  1.0000
  C   C1286     1.0  0.58759  0.77068  0.04547  1.0000
  H   H2051     1.0  0.54494  0.69916  0.03069  1.0000
  S   S511      1.0  0.69562  0.56542  0.12944  1.0000
  H   H2052     1.0  0.67106  0.53200  0.13263  1.0000
  C   C1287     1.0  0.65712  0.85218  0.28722  1.0000
  H   H2053     1.0  0.67352  0.88353  0.17725  1.0000
  H   H2054     1.0  0.65901  0.96435  0.28449  1.0000
  H   H2055     1.0  0.68505  0.91486  0.17260  1.0000
  N   N129      1.0  0.68766  0.60087  0.25292  1.0000
  C   C1288     1.0  0.69173  0.58128  0.24827  1.0000
  C   C1289     1.0  0.69370  0.61465  0.23570  1.0000
  C   C1290     1.0  0.69834  0.60136  0.26816  1.0000
  C   C1291     1.0  0.66684  0.60615  0.25950  1.0000
  H   H2056     1.0  0.68721  0.57049  0.26085  1.0000
  H   H2057     1.0  0.70728  0.57672  0.24324  1.0000
  H   H2058     1.0  0.68396  0.58049  0.23675  1.0000
  H   H2059     1.0  0.70913  0.61074  0.22989  1.0000
  C   C1292     1.0  0.73334  0.55894  0.11094  1.0000
  H   H2060     1.0  0.69126  0.62952  0.23877  1.0000
  H   H2061     1.0  0.69569  0.61592  0.27205  1.0000
  H   H2062     1.0  0.71410  0.59744  0.26361  1.0000
  H   H2063     1.0  0.69424  0.59104  0.28133  1.0000
  H   H2064     1.0  0.66318  0.62091  0.26299  1.0000
  H   H2065     1.0  0.66171  0.59604  0.27243  1.0000
  H   H2066     1.0  0.65844  0.60580  0.24826  1.0000
  S   S512      1.0  0.73490  0.57486  0.00873  1.0000
  H   H2067     1.0  0.66118  0.51364  0.15049  1.0000
  C   C1293     1.0  0.68551  0.91577  0.15698  1.0000
  Fe  Fe255     1.0  0.72329  0.60656  0.00414  1.0000
  H   H2068     1.0  0.68075  0.50755  0.11083  1.0000
  C   C1294     1.0  0.67481  0.88528  0.16143  1.0000
  N   N130      1.0  0.72102  0.74845  0.99181  1.0000
  N   N131      1.0  0.55583  0.70056  0.00068  1.0000
  H   H2069     1.0  0.69555  0.84270  0.28105  1.0000
  C   C1295     1.0  0.67446  0.51986  0.14435  1.0000
  C   C1296     1.0  0.55971  0.72032  0.99826  1.0000
  C   C1297     1.0  0.70736  0.51441  0.12863  1.0000
  N   N132      1.0  0.69042  0.50521  0.13750  1.0000
  H   H2070     1.0  0.64249  0.85086  0.28551  1.0000
  H   H2071     1.0  0.54692  0.73120  0.99517  1.0000
  S   S513      1.0  0.69210  0.61786  0.00275  1.0000
  C   C1298     1.0  0.50503  0.76180  0.30435  1.0000
  H   H2072     1.0  0.52708  0.70765  0.01548  1.0000
  C   C1299     1.0  0.49427  0.75048  0.21607  1.0000
  H   H2073     1.0  0.50610  0.75295  0.20382  1.0000
  H   H2074     1.0  0.68285  0.48252  0.16046  1.0000
  H   H2075     1.0  0.54648  0.68327  0.98454  1.0000
  H   H2076     1.0  0.67768  0.90542  0.12582  1.0000
  H   H2077     1.0  0.66398  0.85975  0.27335  1.0000
  H   H2078     1.0  0.52037  0.75761  0.30372  1.0000
  S   S514      1.0  0.55718  0.78539  0.29378  1.0000
  H   H2079     1.0  0.58520  0.68858  0.99137  1.0000
  H   H2080     1.0  0.60244  0.80414  0.06340  1.0000
  C   C1300     1.0  0.65431  0.96725  0.29891  1.0000
  H   H2081     1.0  0.70251  0.90732  0.12282  1.0000
  H   H2082     1.0  0.67141  0.92361  0.15340  1.0000
  Fe  Fe256     1.0  0.57377  0.75609  0.30260  1.0000
  H   H2083     1.0  0.57211  0.77703  0.04651  1.0000
  H   H2084     1.0  0.65569  0.81902  0.27666  1.0000
  C   C1301     1.0  0.68652  0.64302  0.00077  1.0000
  C   C1302     1.0  0.64354  0.48837  0.18445  1.0000
  S   S515      1.0  0.58908  0.82251  0.29673  1.0000
  H   H2085     1.0  0.69901  0.49620  0.16519  1.0000
  S   S516      1.0  0.72465  0.85591  0.07554  1.0000
  C   C1303     1.0  0.73240  0.89134  0.07871  1.0000
  C   C1304     1.0  0.49531  0.75345  0.29405  1.0000
  H   H2086     1.0  0.69113  0.74810  0.00345  1.0000
  H   H2087     1.0  0.72875  0.73318  0.01865  1.0000
  H   H2088     1.0  0.69631  0.48540  0.11775  1.0000
  H   H2089     1.0  0.70388  0.59045  0.97919  1.0000
  H   H2090     1.0  0.67865  0.80663  0.28218  1.0000
  H   H2091     1.0  0.71980  0.50385  0.12338  1.0000
  H   H2092     1.0  0.50649  0.83102  0.25454  1.0000
  H   H2093     1.0  0.49191  0.70519  0.21125  1.0000
  C   C1305     1.0  0.54056  0.69731  0.01735  1.0000
  H   H2094     1.0  0.53651  0.70841  0.98019  1.0000
  C   C1306     1.0  0.49856  0.71715  0.21316  1.0000
  H   H2095     1.0  0.69383  0.91710  0.38988  1.0000
  S   S517      1.0  0.64825  0.93663  0.35275  1.0000
  C   C1307     1.0  0.58002  0.70152  0.35716  1.0000
  H   H2096     1.0  0.64111  0.92065  0.39274  1.0000
  C   C1308     1.0  0.64185  0.97451  0.33615  1.0000
  S   S518      1.0  0.50457  0.78088  0.57226  1.0000
  H   H2097     1.0  0.57026  0.74188  0.50179  1.0000
  H   H2098     1.0  0.71434  0.59800  0.51636  1.0000
  H   H2099     1.0  0.63689  0.97737  0.35055  1.0000
  H   H2100     1.0  0.61110  0.81471  0.35770  1.0000
  Fe  Fe257     1.0  0.72279  0.84505  0.51272  1.0000
  C   C1309     1.0  0.61704  0.84122  0.33948  1.0000
  S   S519      1.0  0.70438  0.82239  0.52627  1.0000
  H   H2101     1.0  0.57083  0.68464  0.33108  1.0000
  S   S520      1.0  0.71839  0.90441  0.53945  1.0000
  C   C1310     1.0  0.57914  0.69657  0.32539  1.0000
  C   C1311     1.0  0.71413  0.58448  0.56408  1.0000
  S   S521      1.0  0.70993  0.87591  0.50429  1.0000
  C   C1312     1.0  0.71092  0.77889  0.48155  1.0000
  Fe  Fe258     1.0  0.63106  0.78414  0.48512  1.0000
  S   S522      1.0  0.63755  0.75625  0.50495  1.0000
  S   S523      1.0  0.64288  0.81187  0.47968  1.0000
  Fe  Fe259     1.0  0.60694  0.76777  0.46406  1.0000
  S   S524      1.0  0.61181  0.73827  0.48180  1.0000
  S   S525      1.0  0.58792  0.78049  0.44165  1.0000
  Fe  Fe260     1.0  0.60629  0.75429  0.50667  1.0000
  S   S526      1.0  0.58768  0.74279  0.53428  1.0000
  Fe  Fe261     1.0  0.64255  0.74231  0.47891  1.0000
  S   S527      1.0  0.67154  0.72504  0.46869  1.0000
  S   S528      1.0  0.59959  0.78344  0.48906  1.0000
  S   S529      1.0  0.63783  0.77051  0.45900  1.0000
  C   C1313     1.0  0.60983  0.82391  0.34408  1.0000
  H   H2102     1.0  0.69948  0.74890  0.50680  1.0000
  C   C1314     1.0  0.60117  0.81821  0.33102  1.0000
  S   S530      1.0  0.70649  0.63710  0.49424  1.0000
  H   H2103     1.0  0.72075  0.77265  0.49210  1.0000
  H   H2104     1.0  0.55460  0.75476  0.45424  1.0000
  Fe  Fe262     1.0  0.57356  0.76276  0.34300  1.0000
  S   S531      1.0  0.55655  0.79259  0.33794  1.0000
  S   S532      1.0  0.58643  0.74507  0.36858  1.0000
  H   H2105     1.0  0.58907  0.70296  0.36739  1.0000
  H   H2106     1.0  0.57171  0.68976  0.36388  1.0000
  S   S533      1.0  0.55413  0.74977  0.33044  1.0000
  H   H2107     1.0  0.52546  0.73649  0.48695  1.0000
  Fe  Fe263     1.0  0.68167  0.87005  0.36916  1.0000
  S   S534      1.0  0.65078  0.88337  0.37085  1.0000
  S   S535      1.0  0.68932  0.85440  0.39783  1.0000
  Fe  Fe264     1.0  0.65001  0.86731  0.34785  1.0000
  S   S536      1.0  0.62836  0.84729  0.35615  1.0000
  H   H2108     1.0  0.71713  0.62197  0.55636  1.0000
  S   S537      1.0  0.68048  0.85264  0.34727  1.0000
  S   S538      1.0  0.69166  0.89442  0.34720  1.0000
  C   C1315     1.0  0.60242  0.71405  0.33035  1.0000
  H   H2109     1.0  0.67621  0.94699  0.40275  1.0000
  N   N133      1.0  0.67423  0.86585  0.55731  1.0000
  H   H2110     1.0  0.67519  0.92155  0.37587  1.0000
  H   H2111     1.0  0.65692  0.94873  0.38989  1.0000
  Fe  Fe265     1.0  0.48779  0.77040  0.60154  1.0000
  H   H2112     1.0  0.55431  0.72543  0.50297  1.0000
  H   H2113     1.0  0.54664  0.74554  0.51535  1.0000
  H   H2114     1.0  0.55782  0.73064  0.46748  1.0000
  H   H2115     1.0  0.68262  0.74443  0.49385  1.0000
  N   N134      1.0  0.71072  0.59820  0.54644  1.0000
  H   H2116     1.0  0.56866  0.71006  0.32276  1.0000
  H   H2117     1.0  0.69564  0.78027  0.45049  1.0000
  H   H2118     1.0  0.61136  0.71206  0.31625  1.0000
  C   C1316     1.0  0.58848  0.77065  0.42108  1.0000
  C   C1317     1.0  0.57831  0.78150  0.40675  1.0000
  C   C1318     1.0  0.57790  0.77401  0.39041  1.0000
  C   C1319     1.0  0.58745  0.75545  0.38840  1.0000
  C   C1320     1.0  0.59771  0.74462  0.40270  1.0000
  C   C1321     1.0  0.59834  0.75223  0.41894  1.0000
  H   H2119     1.0  0.57059  0.79576  0.40831  1.0000
  H   H2120     1.0  0.56994  0.78247  0.37951  1.0000
  H   H2121     1.0  0.60516  0.73026  0.40124  1.0000
  H   H2122     1.0  0.60624  0.74373  0.42987  1.0000
  C   C1322     1.0  0.68087  0.70065  0.47659  1.0000
  C   C1323     1.0  0.66974  0.68816  0.48926  1.0000
  C   C1324     1.0  0.67775  0.66872  0.49463  1.0000
  C   C1325     1.0  0.69697  0.66169  0.48757  1.0000
  C   C1326     1.0  0.70815  0.67428  0.47518  1.0000
  C   C1327     1.0  0.70009  0.69361  0.46964  1.0000
  H   H2123     1.0  0.65492  0.69339  0.49468  1.0000
  H   H2124     1.0  0.66899  0.65908  0.50419  1.0000
  N   N135      1.0  0.59176  0.69800  0.33861  1.0000
  H   H2125     1.0  0.70878  0.70309  0.45972  1.0000
  C   C1328     1.0  0.72036  0.87908  0.43404  1.0000
  C   C1329     1.0  0.70992  0.86426  0.44232  1.0000
  C   C1330     1.0  0.70075  0.85658  0.43097  1.0000
  C   C1331     1.0  0.70203  0.86361  0.41129  1.0000
  C   C1332     1.0  0.71306  0.87795  0.40291  1.0000
  C   C1333     1.0  0.72180  0.93249  0.55878  1.0000
  H   H2126     1.0  0.70864  0.85894  0.45751  1.0000
  H   H2127     1.0  0.69238  0.84536  0.43751  1.0000
  H   H2128     1.0  0.71465  0.88301  0.38766  1.0000
  C   C1334     1.0  0.61535  0.85300  0.32180  1.0000
  C   C1335     1.0  0.68723  0.81965  0.51332  1.0000
  C   C1336     1.0  0.68485  0.83149  0.49583  1.0000
  C   C1337     1.0  0.67106  0.82906  0.48574  1.0000
  C   C1338     1.0  0.65969  0.81471  0.49300  1.0000
  C   C1339     1.0  0.66202  0.80290  0.51052  1.0000
  C   C1340     1.0  0.67576  0.80539  0.52067  1.0000
  H   H2129     1.0  0.69361  0.84253  0.49009  1.0000
  H   H2130     1.0  0.66927  0.83827  0.47220  1.0000
  H   H2131     1.0  0.65307  0.79203  0.51636  1.0000
  H   H2132     1.0  0.67747  0.79627  0.53427  1.0000
  H   H2133     1.0  0.70755  0.93893  0.55594  1.0000
  H   H2134     1.0  0.68462  0.61384  0.55989  1.0000
  H   H2135     1.0  0.68643  0.91627  0.42421  1.0000
  C   C1341     1.0  0.66708  0.85776  0.54345  1.0000
  C   C1342     1.0  0.52791  0.77029  0.56221  1.0000
  C   C1343     1.0  0.53726  0.75268  0.57083  1.0000
  C   C1344     1.0  0.55559  0.74458  0.56215  1.0000
  C   C1345     1.0  0.56487  0.75401  0.54488  1.0000
  C   C1346     1.0  0.55558  0.77168  0.53630  1.0000
  C   C1347     1.0  0.53716  0.77969  0.54487  1.0000
  H   H2136     1.0  0.53035  0.74527  0.58414  1.0000
  H   H2137     1.0  0.56263  0.73091  0.56891  1.0000
  H   H2138     1.0  0.56260  0.77920  0.52313  1.0000
  H   H2139     1.0  0.53008  0.79336  0.53815  1.0000
  H   H2140     1.0  0.59797  0.66746  0.34777  1.0000
  H   H2141     1.0  0.70829  0.73767  0.46696  1.0000
  H   H2142     1.0  0.69542  0.84068  0.56329  1.0000
  C   C1348     1.0  0.66212  0.86229  0.57627  1.0000
  C   C1349     1.0  0.69422  0.85653  0.55867  1.0000
  H   H2143     1.0  0.67598  0.86004  0.52900  1.0000
  H   H2144     1.0  0.66716  0.86820  0.58705  1.0000
  H   H2145     1.0  0.70362  0.85891  0.54461  1.0000
  H   H2146     1.0  0.65200  0.94747  0.41538  1.0000
  H   H2147     1.0  0.68251  0.88996  0.53657  1.0000
  H   H2148     1.0  0.67473  0.89613  0.42619  1.0000
  H   H2149     1.0  0.71951  0.78552  0.46822  1.0000
  Fe  Fe266     1.0  0.73305  0.87560  0.47856  1.0000
  H   H2150     1.0  0.65871  0.89439  0.54984  1.0000
  H   H2151     1.0  0.65976  0.93733  0.31187  1.0000
  C   C1350     1.0  0.70905  0.95340  0.61933  1.0000
  Fe  Fe267     1.0  0.68761  0.87813  0.32524  1.0000
  S   S539      1.0  0.73138  0.88963  0.44790  1.0000
  H   H2152     1.0  0.70850  0.90560  0.62472  1.0000
  H   H2153     1.0  0.68035  0.89850  0.39025  1.0000
  H   H2154     1.0  0.65731  0.83265  0.32284  1.0000
  C   C1351     1.0  0.72159  0.61407  0.54412  1.0000
  C   C1352     1.0  0.71538  0.74894  0.46981  1.0000
  S   S540      1.0  0.65678  0.89161  0.32390  1.0000
  C   C1353     1.0  0.73100  0.91557  0.55169  1.0000
  H   H2155     1.0  0.70028  0.86240  0.56879  1.0000
  S   S541      1.0  0.50680  0.78794  0.32663  1.0000
  H   H2156     1.0  0.66759  0.84194  0.54776  1.0000
  N   N136      1.0  0.54788  0.75277  0.48484  1.0000
  C   C1354     1.0  0.55918  0.74572  0.46749  1.0000
  C   C1355     1.0  0.52747  0.75157  0.48607  1.0000
  C   C1356     1.0  0.54982  0.77297  0.48388  1.0000
  H   H2157     1.0  0.72554  0.74166  0.47976  1.0000
  H   H2158     1.0  0.70935  0.59148  0.57694  1.0000
  C   C1357     1.0  0.66247  0.94193  0.40344  1.0000
  C   C1358     1.0  0.70971  0.92041  0.61696  1.0000
  H   H2159     1.0  0.72382  0.95442  0.57440  1.0000
  H   H2160     1.0  0.72967  0.57843  0.56356  1.0000
  H   H2161     1.0  0.51857  0.75691  0.49897  1.0000
  H   H2162     1.0  0.57470  0.74614  0.46633  1.0000
  H   H2163     1.0  0.54464  0.78240  0.47109  1.0000
  H   H2164     1.0  0.56505  0.77437  0.48275  1.0000
  H   H2165     1.0  0.59584  0.80472  0.33464  1.0000
  H   H2166     1.0  0.70974  0.57574  0.53132  1.0000
  C   C1359     1.0  0.71719  0.58817  0.52986  1.0000
  H   H2167     1.0  0.70640  0.57213  0.56615  1.0000
  S   S542      1.0  0.59424  0.76718  0.31552  1.0000
  C   C1360     1.0  0.67929  0.91417  0.38982  1.0000
  H   H2168     1.0  0.68719  0.61655  0.53437  1.0000
  H   H2169     1.0  0.67663  0.78464  0.47003  1.0000
  H   H2170     1.0  0.67934  0.89326  0.56075  1.0000
  H   H2171     1.0  0.52164  0.76035  0.47333  1.0000
  H   H2172     1.0  0.63563  0.91968  0.41816  1.0000
  C   C1361     1.0  0.60551  0.67990  0.34152  1.0000
  H   H2173     1.0  0.62058  0.86654  0.31834  1.0000
  H   H2174     1.0  0.64828  0.89876  0.40837  1.0000
  C   C1362     1.0  0.69005  0.60611  0.54757  1.0000
  H   H2175     1.0  0.61527  0.68059  0.35136  1.0000
  H   H2176     1.0  0.56958  0.71517  0.35550  1.0000
  H   H2177     1.0  0.69844  0.92503  0.60774  1.0000
  C   C1363     1.0  0.64673  0.91470  0.40637  1.0000
  C   C1364     1.0  0.67357  0.88677  0.55088  1.0000
  C   C1365     1.0  0.64836  0.95553  0.33304  1.0000
  C   C1366     1.0  0.72202  0.88581  0.41430  1.0000
  N   N137      1.0  0.62818  0.81717  0.41249  1.0000
  C   C1367     1.0  0.64263  0.82925  0.40226  1.0000
  C   C1368     1.0  0.62358  0.81937  0.43282  1.0000
  C   C1369     1.0  0.63594  0.79683  0.41101  1.0000
  C   C1370     1.0  0.61055  0.82316  0.40387  1.0000
  H   H2178     1.0  0.64713  0.82724  0.38710  1.0000
  H   H2179     1.0  0.65580  0.82578  0.40894  1.0000
  H   H2180     1.0  0.63692  0.84481  0.40211  1.0000
  H   H2181     1.0  0.63653  0.81495  0.43984  1.0000
  H   H2182     1.0  0.61768  0.83454  0.43445  1.0000
  H   H2183     1.0  0.61273  0.81042  0.44098  1.0000
  H   H2184     1.0  0.62539  0.78732  0.41859  1.0000
  H   H2185     1.0  0.64929  0.79178  0.41730  1.0000
  H   H2186     1.0  0.63935  0.79468  0.39584  1.0000
  H   H2187     1.0  0.59922  0.81458  0.41154  1.0000
  H   H2188     1.0  0.61338  0.82118  0.38869  1.0000
  H   H2189     1.0  0.60456  0.83861  0.40409  1.0000
  H   H2190     1.0  0.54168  0.77875  0.49683  1.0000
  H   H2191     1.0  0.73286  0.58259  0.52821  1.0000
  H   H2192     1.0  0.66217  0.91669  0.43659  1.0000
  C   C1371     1.0  0.67241  0.91212  0.42404  1.0000
  H   H2193     1.0  0.66240  0.84661  0.58151  1.0000
  N   N138      1.0  0.66522  0.92075  0.40595  1.0000
  Fe  Fe268     1.0  0.66038  0.90645  0.34720  1.0000
  H   H2194     1.0  0.64690  0.86908  0.57577  1.0000
  H   H2195     1.0  0.68047  0.76267  0.46087  1.0000
  H   H2196     1.0  0.59243  0.72780  0.32787  1.0000
  C   C1372     1.0  0.60652  0.84732  0.30873  1.0000
  H   H2197     1.0  0.72293  0.95391  0.60939  1.0000
  Fe  Fe269     1.0  0.53905  0.77991  0.32273  1.0000
  H   H2198     1.0  0.65203  0.86441  0.54199  1.0000
  N   N139      1.0  0.70108  0.76423  0.47790  1.0000
  C   C1373     1.0  0.68790  0.77336  0.46421  1.0000
  C   C1374     1.0  0.69006  0.75571  0.49603  1.0000
  H   H2199     1.0  0.70044  0.79072  0.48740  1.0000
  C   C1375     1.0  0.55505  0.74087  0.50195  1.0000
  H   H2200     1.0  0.61458  0.67689  0.32775  1.0000
  H   H2201     1.0  0.73029  0.89712  0.40778  1.0000
  H   H2202     1.0  0.72388  0.75477  0.45603  1.0000
  H   H2203     1.0  0.69740  0.95849  0.61061  1.0000
  H   H2204     1.0  0.61181  0.71591  0.34004  1.0000
  H   H2205     1.0  0.68140  0.59456  0.54915  1.0000
  H   H2206     1.0  0.72292  0.66904  0.46960  1.0000
  C   C1376     1.0  0.65472  0.95192  0.31439  1.0000
  H   H2207     1.0  0.66746  0.80951  0.31649  1.0000
  H   H2208     1.0  0.67886  0.76672  0.50235  1.0000
  H   H2209     1.0  0.71936  0.62466  0.53090  1.0000
  Fe  Fe270     1.0  0.73154  0.88235  0.51973  1.0000
  Fe  Fe271     1.0  0.57588  0.79593  0.30940  1.0000
  H   H2210     1.0  0.64453  0.82137  0.31062  1.0000
  C   C1377     1.0  0.59949  0.82988  0.31332  1.0000
  H   H2211     1.0  0.70764  0.96398  0.62895  1.0000
  S   S543      1.0  0.49871  0.76283  0.62964  1.0000
  N   N140      1.0  0.70808  0.93386  0.63031  1.0000
  C   C1378     1.0  0.73099  0.94130  0.56930  1.0000
  C   C1379     1.0  0.65908  0.82375  0.31152  1.0000
  C   C1380     1.0  0.49490  0.77581  0.31510  1.0000
  H   H2212     1.0  0.67724  0.93863  0.63573  1.0000
  H   H2213     1.0  0.58751  0.69421  0.31114  1.0000
  H   H2214     1.0  0.72386  0.91959  0.60728  1.0000
  H   H2215     1.0  0.68718  0.84477  0.30561  1.0000
  C   C1381     1.0  0.54937  0.79132  0.87885  1.0000
  S   S544      1.0  0.62890  0.95838  0.76807  1.0000
  H   H2216     1.0  0.62454  0.50468  0.85765  1.0000
  C   C1382     1.0  0.49023  0.67601  0.67403  1.0000
  S   S545      1.0  0.50358  0.87550  0.71385  1.0000
  H   H2217     1.0  0.50843  0.77496  0.90213  1.0000
  S   S546      1.0  0.57625  0.94790  0.77246  1.0000
  H   H2218     1.0  0.62867  0.51434  0.69410  1.0000
  H   H2219     1.0  0.70830  0.62539  0.93392  1.0000
  Fe  Fe272     1.0  0.50446  0.72758  0.90043  1.0000
  Fe  Fe273     1.0  0.49886  0.70056  0.87450  1.0000
  H   H2220     1.0  0.59462  0.49978  0.84794  1.0000
  H   H2221     1.0  0.58155  0.50759  0.72394  1.0000
  H   H2222     1.0  0.70588  0.94736  0.92451  1.0000
  H   H2223     1.0  0.73308  0.73716  0.96593  1.0000
  S   S547      1.0  0.59600  0.73079  0.94987  1.0000
  H   H2224     1.0  0.59325  0.50299  0.82298  1.0000
  C   C1383     1.0  0.50145  0.81470  0.69900  1.0000
  S   S548      1.0  0.52163  0.71817  0.87342  1.0000
  H   H2225     1.0  0.70376  0.95113  0.69687  1.0000
  S   S549      1.0  0.51453  0.73529  0.92557  1.0000
  S   S550      1.0  0.50334  0.66976  0.86950  1.0000
  H   H2226     1.0  0.64129  0.51717  0.80581  1.0000
  C   C1384     1.0  0.69366  0.48739  0.95707  1.0000
  H   H2227     1.0  0.72748  0.58259  0.96714  1.0000
  H   H2228     1.0  0.71536  0.96930  0.66510  1.0000
  H   H2229     1.0  0.51511  0.80749  0.86824  1.0000
  S   S551      1.0  0.51675  0.57336  0.74638  1.0000
  C   C1385     1.0  0.61753  0.52755  0.69371  1.0000
  H   H2230     1.0  0.73386  0.58551  0.93176  1.0000
  Fe  Fe274     1.0  0.51569  0.88112  0.73819  1.0000
  S   S552      1.0  0.53961  0.89938  0.72867  1.0000
  S   S553      1.0  0.51647  0.81962  0.71315  1.0000
  S   S554      1.0  0.52019  0.84974  0.75162  1.0000
  H   H2231     1.0  0.54495  0.80654  0.88099  1.0000
  H   H2232     1.0  0.50786  0.81078  0.75735  1.0000
  C   C1386     1.0  0.63194  0.50378  0.84277  1.0000
  N   N141      1.0  0.60227  0.52601  0.71067  1.0000
  H   H2233     1.0  0.68840  0.91960  0.65231  1.0000
  S   S555      1.0  0.58668  0.52026  0.78338  1.0000
  H   H2234     1.0  0.58084  0.54607  0.69674  1.0000
  C   C1387     1.0  0.51743  0.79570  0.80997  1.0000
  S   S556      1.0  0.63634  0.49166  0.76467  1.0000
  H   H2235     1.0  0.51972  0.68856  0.70742  1.0000
  H   H2236     1.0  0.59422  0.55662  0.70909  1.0000
  S   S557      1.0  0.69716  0.51021  0.84214  1.0000
  H   H2237     1.0  0.70399  0.49440  0.96164  1.0000
  C   C1388     1.0  0.68643  0.59858  0.94862  1.0000
  C   C1389     1.0  0.68203  0.50010  0.81446  1.0000
  C   C1390     1.0  0.68770  0.49430  0.83247  1.0000
  H   H2238     1.0  0.70844  0.56958  0.96816  1.0000
  H   H2239     1.0  0.68404  0.51412  0.80635  1.0000
  H   H2240     1.0  0.51738  0.82251  0.79014  1.0000
  H   H2241     1.0  0.55871  0.78379  0.88955  1.0000
  C   C1391     1.0  0.62907  0.50909  0.80949  1.0000
  C   C1392     1.0  0.49722  0.79858  0.67401  1.0000
  H   H2242     1.0  0.51213  0.71699  0.72413  1.0000
  C   C1393     1.0  0.67961  0.97093  0.81309  1.0000
  H   H2243     1.0  0.50608  0.66934  0.71607  1.0000
  C   C1394     1.0  0.49814  0.76528  0.76945  1.0000
  C   C1395     1.0  0.50897  0.80238  0.68564  1.0000
  H   H2244     1.0  0.52401  0.79605  0.68400  1.0000
  C   C1396     1.0  0.53524  0.55820  0.75788  1.0000
  C   C1397     1.0  0.54355  0.54057  0.75184  1.0000
  C   C1398     1.0  0.55897  0.52855  0.75984  1.0000
  C   C1399     1.0  0.56650  0.53424  0.77371  1.0000
  C   C1400     1.0  0.55807  0.55175  0.77990  1.0000
  C   C1401     1.0  0.54245  0.56363  0.77212  1.0000
  H   H2245     1.0  0.53791  0.53616  0.74098  1.0000
  H   H2246     1.0  0.56496  0.51489  0.75532  1.0000
  H   H2247     1.0  0.56370  0.55626  0.79069  1.0000
  H   H2248     1.0  0.53622  0.57715  0.77689  1.0000
  C   C1402     1.0  0.58776  0.54372  0.70961  1.0000
  C   C1403     1.0  0.55426  0.97954  0.73311  1.0000
  H   H2249     1.0  0.49923  0.87960  0.64824  1.0000
  H   H2250     1.0  0.62088  0.54031  0.82608  1.0000
  H   H2251     1.0  0.50856  0.75891  0.75794  1.0000
  C   C1404     1.0  0.68961  0.93404  0.64357  1.0000
  H   H2252     1.0  0.67802  0.60554  0.96082  1.0000
  H   H2253     1.0  0.52130  0.79003  0.74806  1.0000
  H   H2254     1.0  0.50322  0.78945  0.66340  1.0000
  Fe  Fe275     1.0  0.73345  0.49765  0.89914  1.0000
  H   H2255     1.0  0.63055  0.95294  0.80902  1.0000
  C   C1405     1.0  0.57326  0.73276  0.94298  1.0000
  C   C1406     1.0  0.57205  0.72375  0.92787  1.0000
  C   C1407     1.0  0.55429  0.72444  0.92222  1.0000
  C   C1408     1.0  0.53745  0.73415  0.93167  1.0000
  C   C1409     1.0  0.53867  0.74337  0.94662  1.0000
  C   C1410     1.0  0.55646  0.74285  0.95213  1.0000
  H   H2256     1.0  0.58496  0.71600  0.92060  1.0000
  H   H2257     1.0  0.55360  0.71723  0.91072  1.0000
  H   H2258     1.0  0.52576  0.75110  0.95390  1.0000
  H   H2259     1.0  0.72283  0.52341  0.96237  1.0000
  H   H2260     1.0  0.62207  0.51036  0.72908  1.0000
  H   H2261     1.0  0.53203  0.78986  0.80437  1.0000
  S   S558      1.0  0.51746  0.76113  0.83376  1.0000
  N   N142      1.0  0.60276  0.94886  0.82513  1.0000
  H   H2262     1.0  0.59982  0.52170  0.74126  1.0000
  H   H2263     1.0  0.60781  0.93574  0.80004  1.0000
  H   H2264     1.0  0.50317  0.66984  0.66542  1.0000
  C   C1411     1.0  0.72875  0.92046  0.96889  1.0000
  S   S559      1.0  0.61167  0.97462  0.72792  1.0000
  H   H2265     1.0  0.49618  0.63082  0.82372  1.0000
  Fe  Fe276     1.0  0.71568  0.49565  0.86443  1.0000
  S   S560      1.0  0.49873  0.62953  0.74749  1.0000
  H   H2266     1.0  0.60169  0.53261  0.84422  1.0000
  Fe  Fe277     1.0  0.60464  0.49232  0.77520  1.0000
  H   H2267     1.0  0.63115  0.93621  0.83100  1.0000
  C   C1412     1.0  0.60114  0.93328  0.81537  1.0000
  C   C1413     1.0  0.71228  0.94002  0.93686  1.0000
  C   C1414     1.0  0.71052  0.91772  0.96737  1.0000
  S   S561      1.0  0.72877  0.51120  0.92616  1.0000
  C   C1415     1.0  0.50004  0.68161  0.83146  1.0000
  H   H2268     1.0  0.51642  0.66575  0.74798  1.0000
  C   C1416     1.0  0.56646  0.93408  0.76025  1.0000
  C   C1417     1.0  0.57384  0.93203  0.74128  1.0000
  C   C1418     1.0  0.56541  0.92136  0.73193  1.0000
  C   C1419     1.0  0.54964  0.91245  0.74142  1.0000
  C   C1420     1.0  0.54232  0.91443  0.76044  1.0000
  C   C1421     1.0  0.55068  0.92522  0.76977  1.0000
  H   H2269     1.0  0.58608  0.93856  0.73379  1.0000
  H   H2270     1.0  0.57125  0.91984  0.71726  1.0000
  H   H2271     1.0  0.53019  0.90770  0.76792  1.0000
  H   H2272     1.0  0.54484  0.92669  0.78444  1.0000
  H   H2273     1.0  0.52978  0.77420  0.91135  1.0000
  H   H2274     1.0  0.68230  0.60766  0.93523  1.0000
  H   H2275     1.0  0.57817  0.94421  0.84666  1.0000
  H   H2276     1.0  0.63483  0.49385  0.80803  1.0000
  C   C1422     1.0  0.50682  0.78463  0.82499  1.0000
  Fe  Fe278     1.0  0.50563  0.84492  0.72873  1.0000
  H   H2277     1.0  0.54852  0.75358  0.88808  1.0000
  H   H2278     1.0  0.55829  0.79127  0.86441  1.0000
  C   C1423     1.0  0.49811  0.67862  0.81345  1.0000
  H   H2279     1.0  0.62496  0.53986  0.69290  1.0000
  H   H2280     1.0  0.55719  0.75044  0.96330  1.0000
  H   H2281     1.0  0.68193  0.58441  0.95004  1.0000
  C   C1424     1.0  0.51514  0.68170  0.74546  1.0000
  H   H2282     1.0  0.61759  0.53584  0.72838  1.0000
  H   H2283     1.0  0.50781  0.78539  0.86730  1.0000
  H   H2284     1.0  0.52863  0.79239  0.85158  1.0000
  C   C1425     1.0  0.71196  0.58420  0.96653  1.0000
  H   H2285     1.0  0.48842  0.64989  0.69477  1.0000
  C   C1426     1.0  0.73415  0.53036  0.95328  1.0000
  C   C1427     1.0  0.53912  0.76184  0.87772  1.0000
  H   H2286     1.0  0.71484  0.57248  0.93326  1.0000
  Fe  Fe279     1.0  0.50192  0.74224  0.85839  1.0000
  H   H2287     1.0  0.57617  0.54308  0.72231  1.0000
  C   C1428     1.0  0.50917  0.81417  0.80188  1.0000
  C   C1429     1.0  0.52118  0.78210  0.90015  1.0000
  H   H2288     1.0  0.59952  0.53628  0.81942  1.0000
  H   H2289     1.0  0.60943  0.48317  0.83347  1.0000
  H   H2290     1.0  0.50025  0.63592  0.85552  1.0000
  H   H2291     1.0  0.71477  0.59576  0.91835  1.0000
  C   C1430     1.0  0.67547  0.96814  0.69945  1.0000
  H   H2292     1.0  0.49488  0.69255  0.70542  1.0000
  H   H2293     1.0  0.72832  0.61438  0.94573  1.0000
  H   H2294     1.0  0.52945  0.68532  0.73848  1.0000
  N   N143      1.0  0.49334  0.78638  0.76409  1.0000
  C   C1431     1.0  0.69421  0.96290  0.69003  1.0000
  Fe  Fe280     1.0  0.59992  0.96556  0.75887  1.0000
  S   S562      1.0  0.66753  0.95523  0.72204  1.0000
  H   H2295     1.0  0.48717  0.71960  0.72263  1.0000
  H   H2296     1.0  0.70553  0.62233  0.95953  1.0000
  H   H2297     1.0  0.64378  0.51237  0.83959  1.0000
  C   C1432     1.0  0.62322  0.94988  0.82407  1.0000
  C   C1433     1.0  0.49707  0.64500  0.82588  1.0000
  Fe  Fe281     1.0  0.64016  0.97007  0.73756  1.0000
  C   C1434     1.0  0.51103  0.79481  0.76052  1.0000
  H   H2298     1.0  0.51591  0.79699  0.90302  1.0000
  H   H2299     1.0  0.58587  0.93232  0.81562  1.0000
  C   C1435     1.0  0.59307  0.50929  0.71127  1.0000
  H   H2300     1.0  0.50475  0.76125  0.78268  1.0000
  H   H2301     1.0  0.62493  0.96166  0.83112  1.0000
  S   S563      1.0  0.49513  0.65756  0.78729  1.0000
  H   H2302     1.0  0.51857  0.79070  0.77304  1.0000
  N   N144      1.0  0.53254  0.78191  0.88077  1.0000
  C   C1436     1.0  0.52051  0.79230  0.86638  1.0000
  H   H2303     1.0  0.63880  0.48854  0.84237  1.0000
  H   H2304     1.0  0.52677  0.75426  0.87964  1.0000
  H   H2305     1.0  0.54711  0.76104  0.86299  1.0000
  H   H2306     1.0  0.60067  0.93116  0.85292  1.0000
  H   H2307     1.0  0.68802  0.94424  0.65370  1.0000
  H   H2308     1.0  0.55306  0.96873  0.72461  1.0000
  C   C1437     1.0  0.73069  0.94239  0.93819  1.0000
  H   H2309     1.0  0.56879  0.97575  0.73717  1.0000
  C   C1438     1.0  0.61079  0.52339  0.72812  1.0000
  H   H2310     1.0  0.61971  0.51501  0.79853  1.0000
  C   C1439     1.0  0.70077  0.97313  0.67201  1.0000
  S   S564      1.0  0.49215  0.70847  0.64700  1.0000
  H   H2311     1.0  0.71311  0.76947  0.96778  1.0000
  C   C1440     1.0  0.50074  0.66629  0.84675  1.0000
  N   N145      1.0  0.70725  0.59636  0.94852  1.0000
  C   C1441     1.0  0.59363  0.94501  0.84536  1.0000
  C   C1442     1.0  0.72404  0.92766  0.64136  1.0000
  C   C1443     1.0  0.49938  0.64794  0.84387  1.0000
  H   H2312     1.0  0.58653  0.51071  0.69831  1.0000
  H   H2313     1.0  0.68806  0.92589  0.95024  1.0000
  H   H2314     1.0  0.60366  0.49568  0.71211  1.0000
  H   H2315     1.0  0.67001  0.49214  0.79276  1.0000
  C   C1444     1.0  0.70223  0.92780  0.95145  1.0000
  S   S565      1.0  0.70254  0.97206  0.83859  1.0000
  C   C1445     1.0  0.49658  0.66036  0.81057  1.0000
  C   C1446     1.0  0.71808  0.58716  0.93223  1.0000
  H   H2316     1.0  0.61167  0.52950  0.68025  1.0000
  C   C1447     1.0  0.71255  0.61546  0.94684  1.0000
  N   N146      1.0  0.61850  0.51060  0.82893  1.0000
  C   C1448     1.0  0.66341  0.97676  0.80394  1.0000
  C   C1449     1.0  0.60977  0.53086  0.82973  1.0000
  H   H2317     1.0  0.69047  0.95913  0.80890  1.0000
  C   C1450     1.0  0.60327  0.49862  0.83357  1.0000
  C   C1451     1.0  0.49839  0.71215  0.73141  1.0000
  H   H2318     1.0  0.59460  0.95655  0.85309  1.0000
  C   C1452     1.0  0.59300  0.96735  0.81572  1.0000
  Fe  Fe282     1.0  0.49018  0.85627  0.76755  1.0000
  S   S566      1.0  0.70538  0.49031  0.89603  1.0000
  H   H2319     1.0  0.59973  0.97072  0.80055  1.0000
  C   C1453     1.0  0.49033  0.82181  0.80900  1.0000
  H   H2320     1.0  0.72399  0.91282  0.64951  1.0000
  C   C1454     1.0  0.50547  0.68511  0.71485  1.0000
  H   H2321     1.0  0.60830  0.91906  0.82204  1.0000
  C   C1455     1.0  0.48812  0.79240  0.83245  1.0000
  H   H2322     1.0  0.66191  0.96951  0.79279  1.0000
  H   H2323     1.0  0.67937  0.49089  0.96594  1.0000
  H   H2324     1.0  0.54376  0.97765  0.74660  1.0000
  H   H2325     1.0  0.49437  0.71706  0.74549  1.0000
  Fe  Fe283     1.0  0.49541  0.59841  0.75739  1.0000
  H   H2326     1.0  0.49469  0.78580  0.73430  1.0000
  H   H2327     1.0  0.73126  0.87869  0.95573  1.0000
  C   C1456     1.0  0.67402  0.48772  0.80680  1.0000
  H   H2328     1.0  0.49011  0.86101  0.68034  1.0000
  H   H2329     1.0  0.69258  0.49424  0.94200  1.0000
  H   H2330     1.0  0.50146  0.69569  0.83336  1.0000
  Fe  Fe284     1.0  0.73466  0.97592  0.89324  1.0000
  H   H2331     1.0  0.51179  0.68611  0.75977  1.0000
  H   H2332     1.0  0.49792  0.69052  0.80166  1.0000
  H   H2333     1.0  0.72313  0.93726  0.65186  1.0000
  H   H2334     1.0  0.57760  0.96710  0.81589  1.0000
  N   N147      1.0  0.50013  0.69106  0.73379  1.0000
  S   S567      1.0  0.48642  0.88805  0.75570  1.0000
  H   H2335     1.0  0.59395  0.97952  0.82262  1.0000
  H   H2336     1.0  0.72740  0.97977  0.95863  1.0000
  H   H2337     1.0  0.56097  0.70031  0.97046  1.0000
  S   S568      1.0  0.94765  0.33657  0.22398  1.0000
  C   C1457     1.0  0.78752  0.47150  0.29941  1.0000
  Fe  Fe285     1.0  0.94016  0.36513  0.23381  1.0000
  S   S569      1.0  0.91302  0.37373  0.25447  1.0000
  S   S570      1.0  0.95053  0.38155  0.20503  1.0000
  S   S571      1.0  0.94520  0.08753  0.26558  1.0000
  Fe  Fe286     1.0  0.96281  0.12970  0.22848  1.0000
  S   S572      1.0  0.93817  0.13407  0.25230  1.0000
  H   H2338     1.0  0.85628  0.44246  0.27051  1.0000
  Fe  Fe287     1.0  0.95670  0.11258  0.27063  1.0000
  H   H2339     1.0  0.88058  0.43734  0.24174  1.0000
  Fe  Fe288     1.0  0.92877  0.10891  0.24493  1.0000
  S   S573      1.0  0.89699  0.11218  0.24379  1.0000
  S   S574      1.0  0.95217  0.10628  0.21956  1.0000
  Fe  Fe289     1.0  0.92907  0.24897  0.09442  1.0000
  S   S575      1.0  0.95431  0.22745  0.08395  1.0000
  S   S576      1.0  0.90123  0.25996  0.08241  1.0000
  Fe  Fe290     1.0  0.94715  0.25409  0.12751  1.0000
  S   S577      1.0  0.94343  0.26570  0.15518  1.0000
  Fe  Fe291     1.0  0.95309  0.21489  0.11524  1.0000
  H   H2340     1.0  0.95926  0.20464  0.15455  1.0000
  S   S578      1.0  0.94748  0.26984  0.09744  1.0000
  S   S579      1.0  0.92686  0.23512  0.12525  1.0000
  Fe  Fe292     1.0  0.80306  0.39750  0.25692  1.0000
  S   S580      1.0  0.80708  0.41048  0.28109  1.0000
  S   S581      1.0  0.82813  0.38227  0.23823  1.0000
  Fe  Fe293     1.0  0.75987  0.41323  0.26148  1.0000
  S   S582      1.0  0.76091  0.42691  0.28637  1.0000
  H   H2341     1.0  0.74705  0.08819  0.16785  1.0000
  Fe  Fe294     1.0  0.78760  0.43652  0.26904  1.0000
  C   C1458     1.0  0.86712  0.15884  0.10491  1.0000
  S   S583      1.0  0.78557  0.42450  0.24354  1.0000
  S   S584      1.0  0.77695  0.38477  0.27270  1.0000
  Fe  Fe295     1.0  0.77726  0.21667  0.06630  1.0000
  S   S585      1.0  0.80138  0.22578  0.04341  1.0000
  S   S586      1.0  0.75322  0.24037  0.07513  1.0000
  Fe  Fe296     1.0  0.79476  0.17451  0.06917  1.0000
  S   S587      1.0  0.81949  0.18052  0.04592  1.0000
  S   S588      1.0  0.79575  0.14312  0.08203  1.0000
  Fe  Fe297     1.0  0.82116  0.20439  0.06102  1.0000
  S   S589      1.0  0.85119  0.20221  0.06795  1.0000
  Fe  Fe298     1.0  0.79762  0.20113  0.03057  1.0000
  S   S590      1.0  0.79516  0.20701  0.99908  1.0000
  S   S591      1.0  0.79724  0.19724  0.08508  1.0000
  S   S592      1.0  0.77258  0.19319  0.05259  1.0000
  Fe  Fe299     1.0  0.82782  0.06281  0.20296  1.0000
  S   S593      1.0  0.80247  0.08325  0.21489  1.0000
  S   S594      1.0  0.85931  0.05997  0.20549  1.0000
  Fe  Fe300     1.0  0.80318  0.04544  0.18310  1.0000
  S   S595      1.0  0.77623  0.06484  0.19301  1.0000
  S   S596      1.0  0.80303  0.02451  0.16370  1.0000
  Fe  Fe301     1.0  0.79439  0.08805  0.18565  1.0000
  S   S597      1.0  0.78276  0.11802  0.17172  1.0000
  Fe  Fe302     1.0  0.78645  0.05829  0.22114  1.0000
  S   S598      1.0  0.76554  0.04943  0.24774  1.0000
  S   S599      1.0  0.82063  0.06929  0.17323  1.0000
  S   S600      1.0  0.81250  0.03719  0.21174  1.0000
  C   C1459     1.0  0.84709  0.14890  0.08709  1.0000
  C   C1460     1.0  0.78709  0.00783  0.17151  1.0000
  C   C1461     1.0  0.77450  0.00785  0.18888  1.0000
  H   H2342     1.0  0.74823  0.23827  0.03620  1.0000
  H   H2343     1.0  0.96737  0.13543  0.18331  1.0000
  H   H2344     1.0  0.77450  0.01817  0.19782  1.0000
  C   C1462     1.0  0.79336  0.13692  0.10698  1.0000
  C   C1463     1.0  0.78268  0.14968  0.11884  1.0000
  C   C1464     1.0  0.78005  0.14391  0.13876  1.0000
  C   C1465     1.0  0.78840  0.12555  0.14690  1.0000
  C   C1466     1.0  0.79991  0.11318  0.13503  1.0000
  C   C1467     1.0  0.80199  0.11868  0.11510  1.0000
  H   H2345     1.0  0.77591  0.16376  0.11266  1.0000
  H   H2346     1.0  0.77116  0.15357  0.14789  1.0000
  H   H2347     1.0  0.80694  0.09925  0.14117  1.0000
  H   H2348     1.0  0.81043  0.10884  0.10594  1.0000
  C   C1468     1.0  0.95019  0.32191  0.14589  1.0000
  C   C1469     1.0  0.78832  0.18987  0.98867  1.0000
  C   C1470     1.0  0.78965  0.17058  0.99735  1.0000
  C   C1471     1.0  0.96485  0.18363  0.17947  1.0000
  H   H2349     1.0  0.79466  0.16593  0.01092  1.0000
  H   H2350     1.0  0.75482  0.05456  0.13319  1.0000
  H   H2351     1.0  0.94734  0.27951  0.18819  1.0000
  C   C1472     1.0  0.83592  0.43523  0.23475  1.0000
  H   H2352     1.0  0.89970  0.31354  0.26777  1.0000
  H   H2353     1.0  0.94020  0.15241  0.28521  1.0000
  N   N148      1.0  0.84996  0.44215  0.24283  1.0000
  H   H2354     1.0  0.79663  0.99432  0.14655  1.0000
  H   H2355     1.0  0.87962  0.14808  0.10014  1.0000
  H   H2356     1.0  0.74281  0.25272  0.98489  1.0000
  H   H2357     1.0  0.82103  0.44232  0.23948  1.0000
  H   H2358     1.0  0.78727  0.45622  0.30306  1.0000
  C   C1473     1.0  0.96693  0.16415  0.18774  1.0000
  C   C1474     1.0  0.96117  0.18955  0.16069  1.0000
  H   H2359     1.0  0.96772  0.18581  0.23797  1.0000
  H   H2360     1.0  0.91424  0.33122  0.25545  1.0000
  H   H2361     1.0  0.90677  0.17037  0.21254  1.0000
  H   H2362     1.0  0.75460  0.20494  0.01507  1.0000
  C   C1475     1.0  0.93555  0.30205  0.27547  1.0000
  H   H2363     1.0  0.83451  0.12882  0.12135  1.0000
  H   H2364     1.0  0.76560  0.10446  0.11698  1.0000
  H   H2365     1.0  0.85912  0.13807  0.08164  1.0000
  C   C1476     1.0  0.94716  0.30411  0.14293  1.0000
  C   C1477     1.0  0.76186  0.99446  0.19474  1.0000
  H   H2366     1.0  0.84958  0.13596  0.13446  1.0000
  S   S601      1.0  0.95641  0.34698  0.16707  1.0000
  C   C1478     1.0  0.88716  0.24384  0.07879  1.0000
  C   C1479     1.0  0.86890  0.25101  0.07370  1.0000
  C   C1480     1.0  0.85753  0.23854  0.07049  1.0000
  C   C1481     1.0  0.86444  0.21879  0.07215  1.0000
  C   C1482     1.0  0.88269  0.21169  0.07727  1.0000
  C   C1483     1.0  0.89392  0.22409  0.08070  1.0000
  H   H2367     1.0  0.86357  0.26628  0.07208  1.0000
  H   H2368     1.0  0.84357  0.24423  0.06649  1.0000
  H   H2369     1.0  0.88835  0.19652  0.07834  1.0000
  H   H2370     1.0  0.90797  0.21837  0.08447  1.0000
  C   C1484     1.0  0.88679  0.09750  0.23306  1.0000
  C   C1485     1.0  0.86690  0.10129  0.23308  1.0000
  C   C1486     1.0  0.85825  0.09003  0.22462  1.0000
  C   C1487     1.0  0.86944  0.07484  0.21606  1.0000
  C   C1488     1.0  0.88938  0.07122  0.21587  1.0000
  C   C1489     1.0  0.89804  0.08249  0.22429  1.0000
  H   H2371     1.0  0.85807  0.11285  0.23986  1.0000
  H   H2372     1.0  0.84290  0.09295  0.22490  1.0000
  H   H2373     1.0  0.89814  0.05949  0.20929  1.0000
  H   H2374     1.0  0.91335  0.07941  0.22416  1.0000
  C   C1490     1.0  0.95991  0.17594  0.14995  1.0000
  H   H2375     1.0  0.74112  0.45774  0.22122  1.0000
  S   S602      1.0  0.96257  0.11575  0.29938  1.0000
  C   C1491     1.0  0.78510  0.15711  0.98812  1.0000
  H   H2376     1.0  0.78795  0.07654  0.12961  1.0000
  H   H2377     1.0  0.87310  0.43640  0.21978  1.0000
  C   C1492     1.0  0.95227  0.32448  0.16404  1.0000
  C   C1493     1.0  0.94738  0.15451  0.29614  1.0000
  H   H2378     1.0  0.87119  0.41691  0.23939  1.0000
  C   C1494     1.0  0.86956  0.43285  0.23562  1.0000
  C   C1495     1.0  0.88966  0.37557  0.24965  1.0000
  C   C1496     1.0  0.88636  0.37268  0.23218  1.0000
  C   C1497     1.0  0.86743  0.37455  0.22891  1.0000
  C   C1498     1.0  0.85172  0.37934  0.24303  1.0000
  C   C1499     1.0  0.85508  0.38196  0.26058  1.0000
  C   C1500     1.0  0.87396  0.38009  0.26386  1.0000
  H   H2379     1.0  0.89837  0.36915  0.22114  1.0000
  H   H2380     1.0  0.86496  0.37243  0.21531  1.0000
  H   H2381     1.0  0.84315  0.38522  0.27171  1.0000
  H   H2382     1.0  0.87643  0.38220  0.27746  1.0000
  N   N149      1.0  0.92093  0.31739  0.28306  1.0000
  C   C1501     1.0  0.95120  0.30908  0.17924  1.0000
  C   C1502     1.0  0.94808  0.29133  0.17632  1.0000
  C   C1503     1.0  0.94624  0.28869  0.15815  1.0000
  H   H2383     1.0  0.95282  0.31084  0.19326  1.0000
  Fe  Fe303     1.0  0.77999  0.39946  0.29618  1.0000
  N   N150      1.0  0.90576  0.15069  0.19422  1.0000
  C   C1504     1.0  0.90860  0.16515  0.17669  1.0000
  N   N151      1.0  0.84879  0.15217  0.10611  1.0000
  H   H2384     1.0  0.98462  0.27104  0.15743  1.0000
  H   H2385     1.0  0.92896  0.29039  0.27279  1.0000
  H   H2386     1.0  0.90338  0.16146  0.16468  1.0000
  H   H2387     1.0  0.92402  0.16625  0.17188  1.0000
  H   H2388     1.0  0.90095  0.17972  0.17903  1.0000
  S   S603      1.0  0.98221  0.10963  0.24723  1.0000
  C   C1505     1.0  0.74122  0.05851  0.24655  1.0000
  H   H2389     1.0  0.98228  0.29662  0.11772  1.0000
  C   C1506     1.0  0.96549  0.15051  0.17710  1.0000
  Fe  Fe304     1.0  0.96947  0.08628  0.24063  1.0000
  Fe  Fe305     1.0  0.97267  0.24703  0.08940  1.0000
  H   H2390     1.0  0.75798  0.11120  0.14015  1.0000
  H   H2391     1.0  0.96080  0.18533  0.26322  1.0000
  H   H2392     1.0  0.76671  0.23461  0.01625  1.0000
  H   H2393     1.0  0.83638  0.41949  0.23930  1.0000
  H   H2394     1.0  0.91135  0.14549  0.22300  1.0000
  H   H2395     1.0  0.84709  0.16238  0.07637  1.0000
  C   C1507     1.0  0.96214  0.15640  0.15817  1.0000
  H   H2396     1.0  0.84739  0.42149  0.26877  1.0000
  S   S604      1.0  0.79268  0.46722  0.26160  1.0000
  S   S605      1.0  0.97130  0.15737  0.21138  1.0000
  H   H2397     1.0  0.97899  0.07826  0.29170  1.0000
  H   H2398     1.0  0.74059  0.10767  0.12729  1.0000
  H   H2399     1.0  0.85079  0.46747  0.22126  1.0000
  H   H2400     1.0  0.77965  0.05924  0.14952  1.0000
  H   H2401     1.0  0.73816  0.07478  0.12393  1.0000
  H   H2402     1.0  0.85863  0.46897  0.24286  1.0000
  H   H2403     1.0  0.89585  0.33667  0.27499  1.0000
  C   C1508     1.0  0.84820  0.46323  0.23708  1.0000
  H   H2404     1.0  0.97957  0.32846  0.27599  1.0000
  Fe  Fe306     1.0  0.96028  0.35251  0.19587  1.0000
  C   C1509     1.0  0.84607  0.43730  0.26390  1.0000
  H   H2405     1.0  0.93706  0.18504  0.29275  1.0000
  N   N152      1.0  0.75748  0.08161  0.13959  1.0000
  C   C1510     1.0  0.90703  0.32496  0.26978  1.0000
  N   N153      1.0  0.88557  0.29215  0.12608  1.0000
  C   C1511     1.0  0.89354  0.29977  0.10617  1.0000
  C   C1512     1.0  0.86921  0.30622  0.13330  1.0000
  C   C1513     1.0  0.90060  0.28872  0.13813  1.0000
  C   C1514     1.0  0.87899  0.27387  0.12669  1.0000
  H   H2406     1.0  0.88290  0.30175  0.09645  1.0000
  H   H2407     1.0  0.90624  0.28971  0.10048  1.0000
  H   H2408     1.0  0.89821  0.31380  0.10504  1.0000
  H   H2409     1.0  0.85763  0.30909  0.12449  1.0000
  H   H2410     1.0  0.86289  0.30094  0.14831  1.0000
  H   H2411     1.0  0.87368  0.32019  0.13303  1.0000
  H   H2412     1.0  0.89533  0.28265  0.15323  1.0000
  H   H2413     1.0  0.90590  0.30217  0.13817  1.0000
  H   H2414     1.0  0.91320  0.27830  0.13290  1.0000
  H   H2415     1.0  0.87245  0.26790  0.14139  1.0000
  H   H2416     1.0  0.89109  0.26278  0.12182  1.0000
  H   H2417     1.0  0.86826  0.27568  0.11709  1.0000
  H   H2418     1.0  0.93142  0.13135  0.18543  1.0000
  H   H2419     1.0  0.88243  0.13944  0.21374  1.0000
  H   H2420     1.0  0.96557  0.16341  0.25364  1.0000
  H   H2421     1.0  0.96589  0.19424  0.18765  1.0000
  H   H2422     1.0  0.92938  0.15579  0.20542  1.0000
  C   C1515     1.0  0.97975  0.27477  0.29884  1.0000
  C   C1516     1.0  0.73972  0.21267  0.01874  1.0000
  Fe  Fe307     1.0  0.97912  0.37705  0.21502  1.0000
  C   C1517     1.0  0.97029  0.17749  0.25222  1.0000
  C   C1518     1.0  0.94555  0.17299  0.30051  1.0000
  S   S606      1.0  0.98483  0.05709  0.23373  1.0000
  H   H2423     1.0  0.91008  0.12704  0.17902  1.0000
  C   C1519     1.0  0.75530  0.10210  0.13058  1.0000
  C   C1520     1.0  0.93031  0.33312  0.28506  1.0000
  H   H2424     1.0  0.86005  0.12248  0.11549  1.0000
  H   H2425     1.0  0.83350  0.14370  0.08748  1.0000
  C   C1521     1.0  0.97455  0.30822  0.30214  1.0000
  H   H2426     1.0  0.75052  0.25706  0.01587  1.0000
  H   H2427     1.0  0.95872  0.04675  0.28576  1.0000
  C   C1522     1.0  0.83266  0.16693  0.11247  1.0000
  H   H2428     1.0  0.86878  0.16174  0.11892  1.0000
  H   H2429     1.0  0.86797  0.17242  0.09447  1.0000
  H   H2430     1.0  0.81859  0.16265  0.11288  1.0000
  H   H2431     1.0  0.83296  0.18094  0.10261  1.0000
  H   H2432     1.0  0.83309  0.16943  0.12699  1.0000
  C   C1523     1.0  0.84826  0.13406  0.11996  1.0000
  C   C1524     1.0  0.75150  0.24125  0.02036  1.0000
  C   C1525     1.0  0.77443  0.98084  0.16600  1.0000
  H   H2433     1.0  0.74664  0.08178  0.22342  1.0000
  S   S607      1.0  0.97330  0.23256  0.11992  1.0000
  S   S608      1.0  0.95491  0.18312  0.12654  1.0000
  C   C1526     1.0  0.77739  0.07474  0.14306  1.0000
  S   S609      1.0  0.96801  0.36237  0.24452  1.0000
  C   C1527     1.0  0.91366  0.15584  0.20943  1.0000
  H   H2434     1.0  0.96126  0.14583  0.14987  1.0000
  H   H2435     1.0  0.87702  0.16437  0.20375  1.0000
  H   H2436     1.0  0.78674  0.14209  0.99464  1.0000
  C   C1528     1.0  0.76186  0.98086  0.18339  1.0000
  C   C1529     1.0  0.91576  0.13154  0.19028  1.0000
  H   H2437     1.0  0.74429  0.38627  0.23762  1.0000
  H   H2438     1.0  0.93998  0.32829  0.29585  1.0000
  C   C1530     1.0  0.78700  0.99431  0.16008  1.0000
  H   H2439     1.0  0.83355  0.47061  0.24249  1.0000
  H   H2440     1.0  0.87864  0.14619  0.18947  1.0000
  H   H2441     1.0  0.95091  0.33381  0.13409  1.0000
  H   H2442     1.0  0.78097  0.08274  0.15307  1.0000
  C   C1531     1.0  0.88505  0.15021  0.20051  1.0000
  H   H2443     1.0  0.91397  0.12032  0.20328  1.0000
  H   H2444     1.0  0.94554  0.30234  0.12892  1.0000
  C   C1532     1.0  0.74392  0.23708  0.99071  1.0000
  H   H2445     1.0  0.93904  0.33870  0.27131  1.0000
  H   H2446     1.0  0.83871  0.43810  0.21886  1.0000
  H   H2447     1.0  0.83130  0.44396  0.26978  1.0000
  H   H2448     1.0  0.75901  0.23025  0.98630  1.0000
  H   H2449     1.0  0.75218  0.99457  0.20820  1.0000
  H   H2450     1.0  0.94440  0.30769  0.26180  1.0000
  Fe  Fe308     1.0  0.97632  0.33508  0.23224  1.0000
  H   H2451     1.0  0.91962  0.34549  0.28959  1.0000
  C   C1533     1.0  0.75311  0.07012  0.12681  1.0000
  H   H2452     1.0  0.75054  0.45939  0.25165  1.0000
  N   N154      1.0  0.98231  0.04751  0.29941  1.0000
  H   H2453     1.0  0.76293  0.07152  0.11281  1.0000
  C   C1534     1.0  0.73994  0.47289  0.25239  1.0000
  H   H2454     1.0  0.94553  0.29530  0.28571  1.0000
  H   H2455     1.0  0.97554  0.27328  0.12553  1.0000
  H   H2456     1.0  0.98459  0.06562  0.27191  1.0000
  C   C1535     1.0  0.96179  0.04705  0.30016  1.0000
  C   C1536     1.0  0.74420  0.07945  0.15800  1.0000
  H   H2457     1.0  0.74150  0.36183  0.29041  1.0000
  H   H2458     1.0  0.74580  0.06421  0.16544  1.0000
  H   H2459     1.0  0.76735  0.47560  0.22138  1.0000
  H   H2460     1.0  0.90372  0.29743  0.30106  1.0000
  C   C1537     1.0  0.97964  0.31350  0.28229  1.0000
  C   C1538     1.0  0.91089  0.30942  0.30199  1.0000
  C   C1539     1.0  0.98487  0.29941  0.27067  1.0000
  N   N155      1.0  0.73840  0.23357  0.01173  1.0000
  H   H2461     1.0  0.98531  0.16973  0.28493  1.0000
  H   H2462     1.0  0.97953  0.25984  0.30513  1.0000
  C   C1540     1.0  0.98533  0.28000  0.27902  1.0000
  H   H2463     1.0  0.95249  0.05998  0.30522  1.0000
  S   S610      1.0  0.96125  0.24334  0.37917  1.0000
  S   S611      1.0  0.93818  0.23928  0.34604  1.0000
  Fe  Fe309     1.0  0.93767  0.22805  0.37730  1.0000
  S   S612      1.0  0.91229  0.22818  0.40167  1.0000
  S   S613      1.0  0.95750  0.20043  0.37258  1.0000
  H   H2464     1.0  0.76145  0.23891  0.58898  1.0000
  H   H2465     1.0  0.78134  0.23118  0.49527  1.0000
  Fe  Fe310     1.0  0.76745  0.32714  0.57291  1.0000
  Fe  Fe311     1.0  0.76975  0.44014  0.62190  1.0000
  S   S614      1.0  0.78141  0.40892  0.61894  1.0000
  H   H2466     1.0  0.94573  0.22801  0.41965  1.0000
  Fe  Fe312     1.0  0.78965  0.47051  0.63016  1.0000
  Fe  Fe313     1.0  0.76241  0.28689  0.38718  1.0000
  S   S615      1.0  0.77714  0.25767  0.38156  1.0000
  C   C1541     1.0  0.73666  0.21038  0.57436  1.0000
  Fe  Fe314     1.0  0.76725  0.27640  0.42919  1.0000
  S   S616      1.0  0.78299  0.24661  0.42607  1.0000
  S   S617      1.0  0.75541  0.28494  0.45829  1.0000
  Fe  Fe315     1.0  0.79870  0.26117  0.39849  1.0000
  S   S618      1.0  0.82837  0.25595  0.38073  1.0000
  Fe  Fe316     1.0  0.76010  0.24605  0.40925  1.0000
  C   C1542     1.0  0.83672  0.29658  0.34952  1.0000
  S   S619      1.0  0.78462  0.29123  0.40285  1.0000
  H   H2467     1.0  0.78217  0.38383  0.50776  1.0000
  S   S620      1.0  0.74597  0.21955  0.41512  1.0000
  H   H2468     1.0  0.78660  0.25302  0.49944  1.0000
  Fe  Fe317     1.0  0.79349  0.29291  0.59084  1.0000
  Fe  Fe318     1.0  0.75686  0.01248  0.59786  1.0000
  S   S621      1.0  0.81174  0.28260  0.61418  1.0000
  Fe  Fe319     1.0  0.78975  0.29709  0.54893  1.0000
  H   H2469     1.0  0.95727  0.03412  0.30992  1.0000
  S   S622      1.0  0.80446  0.29279  0.51899  1.0000
  H   H2470     1.0  0.98199  0.03470  0.32896  1.0000
  H   H2471     1.0  0.83810  0.31169  0.31226  1.0000
  H   H2472     1.0  0.74212  0.35790  0.50976  1.0000
  S   S623      1.0  0.79890  0.31605  0.56543  1.0000
  S   S624      1.0  0.78747  0.27263  0.57362  1.0000
  C   C1543     1.0  0.74627  0.07893  0.57535  1.0000
  H   H2473     1.0  0.76822  0.36215  0.48179  1.0000
  C   C1544     1.0  0.76947  0.28795  0.47439  1.0000
  C   C1545     1.0  0.78943  0.28640  0.46981  1.0000
  C   C1546     1.0  0.80002  0.28832  0.48346  1.0000
  C   C1547     1.0  0.79075  0.29159  0.50178  1.0000
  C   C1548     1.0  0.77080  0.29325  0.50624  1.0000
  C   C1549     1.0  0.76022  0.29155  0.49258  1.0000
  H   H2474     1.0  0.79669  0.28364  0.45581  1.0000
  H   H2475     1.0  0.81547  0.28698  0.47989  1.0000
  H   H2476     1.0  0.76347  0.29550  0.52029  1.0000
  H   H2477     1.0  0.97626  0.20161  0.45525  1.0000
  C   C1550     1.0  0.75952  0.32811  0.35185  1.0000
  C   C1551     1.0  0.75935  0.33598  0.33249  1.0000
  C   C1552     1.0  0.76514  0.35384  0.32481  1.0000
  H   H2478     1.0  0.78849  0.36146  0.63762  1.0000
  C   C1553     1.0  0.77075  0.35630  0.35594  1.0000
  C   C1554     1.0  0.76538  0.33823  0.36354  1.0000
  H   H2479     1.0  0.77500  0.36423  0.36510  1.0000
  H   H2480     1.0  0.79266  0.29654  0.33946  1.0000
  H   H2481     1.0  0.77368  0.20864  0.54654  1.0000
  H   H2482     1.0  0.76542  0.33230  0.37850  1.0000
  Fe  Fe320     1.0  0.75680  0.28669  0.58014  1.0000
  C   C1555     1.0  0.95866  0.22112  0.42626  1.0000
  H   H2483     1.0  0.81901  0.32102  0.59621  1.0000
  H   H2484     1.0  0.74695  0.41472  0.60158  1.0000
  H   H2485     1.0  0.79013  0.35567  0.58408  1.0000
  N   N156      1.0  0.82032  0.30372  0.33916  1.0000
  H   H2486     1.0  0.94038  0.21058  0.46168  1.0000
  C   C1556     1.0  0.77439  0.39667  0.60344  1.0000
  C   C1557     1.0  0.78661  0.38015  0.59813  1.0000
  C   C1558     1.0  0.82548  0.29806  0.61929  1.0000
  H   H2487     1.0  0.97050  0.31917  0.31110  1.0000
  C   C1559     1.0  0.78792  0.23732  0.50477  1.0000
  C   C1560     1.0  0.76252  0.37350  0.58250  1.0000
  H   H2488     1.0  0.77369  0.20538  0.52278  1.0000
  S   S625      1.0  0.74357  0.27494  0.41374  1.0000
  H   H2489     1.0  0.82258  0.47688  0.59049  1.0000
  C   C1561     1.0  0.82639  0.31632  0.60835  1.0000
  H   H2490     1.0  0.78841  0.33088  0.52300  1.0000
  S   S626      1.0  0.75220  0.30570  0.36086  1.0000
  C   C1562     1.0  0.95554  0.18961  0.42218  1.0000
  C   C1563     1.0  0.88890  0.23598  0.39598  1.0000
  C   C1564     1.0  0.87297  0.23796  0.41066  1.0000
  C   C1565     1.0  0.85423  0.24407  0.40637  1.0000
  C   C1566     1.0  0.85136  0.24812  0.38734  1.0000
  C   C1567     1.0  0.86729  0.24610  0.37273  1.0000
  C   C1568     1.0  0.88595  0.24010  0.37701  1.0000
  H   H2491     1.0  0.87512  0.23477  0.42538  1.0000
  H   H2492     1.0  0.84206  0.24556  0.41773  1.0000
  H   H2493     1.0  0.86523  0.24898  0.35800  1.0000
  H   H2494     1.0  0.89802  0.23843  0.36561  1.0000
  H   H2495     1.0  0.97372  0.17800  0.45257  1.0000
  H   H2496     1.0  0.89985  0.32063  0.30822  1.0000
  S   S627      1.0  0.77939  0.98578  0.60074  1.0000
  C   C1569     1.0  0.76862  0.37783  0.51260  1.0000
  C   C1570     1.0  0.96562  0.16041  0.32468  1.0000
  C   C1571     1.0  0.74314  0.05982  0.57896  1.0000
  S   S628      1.0  0.77753  0.38679  0.32758  1.0000
  H   H2497     1.0  0.93805  0.18701  0.45874  1.0000
  H   H2498     1.0  0.94283  0.19578  0.41499  1.0000
  H   H2499     1.0  0.81467  0.30803  0.31048  1.0000
  H   H2500     1.0  0.76543  0.35960  0.30983  1.0000
  H   H2501     1.0  0.76076  0.08183  0.57320  1.0000
  Fe  Fe321     1.0  0.76934  0.98442  0.63235  1.0000
  C   C1572     1.0  0.98586  0.04765  0.31875  1.0000
  H   H2502     1.0  0.80068  0.37623  0.60221  1.0000
  H   H2503     1.0  0.80352  0.23131  0.50296  1.0000
  C   C1573     1.0  0.77879  0.35453  0.49122  1.0000
  H   H2504     1.0  0.96850  0.18887  0.41085  1.0000
  H   H2505     1.0  0.76393  0.20535  0.58393  1.0000
  H   H2506     1.0  0.79593  0.20537  0.53038  1.0000
  H   H2507     1.0  0.80034  0.32977  0.33353  1.0000
  C   C1574     1.0  0.96733  0.14182  0.32041  1.0000
  H   H2508     1.0  0.78149  0.33901  0.48996  1.0000
  H   H2509     1.0  0.83217  0.29651  0.36517  1.0000
  N   N157      1.0  0.95709  0.20132  0.43613  1.0000
  C   C1575     1.0  0.78610  0.34655  0.52318  1.0000
  H   H2510     1.0  0.78148  0.34861  0.53831  1.0000
  H   H2511     1.0  0.74794  0.35120  0.53342  1.0000
  H   H2512     1.0  0.73658  0.39450  0.58287  1.0000
  C   C1576     1.0  0.77064  0.36415  0.33657  1.0000
  C   C1577     1.0  0.75012  0.23487  0.58368  1.0000
  C   C1578     1.0  0.95500  0.17615  0.31445  1.0000
  H   H2513     1.0  0.78628  0.25769  0.53259  1.0000
  S   S629      1.0  0.95548  0.20020  0.31614  1.0000
  C   C1579     1.0  0.78059  0.21226  0.53141  1.0000
  H   H2514     1.0  0.76320  0.38013  0.52765  1.0000
  H   H2515     1.0  0.73987  0.22672  0.47626  1.0000
  C   C1580     1.0  0.75343  0.34987  0.51815  1.0000
  H   H2516     1.0  0.78126  0.23886  0.55224  1.0000
  H   H2517     1.0  0.97306  0.16266  0.33538  1.0000
  H   H2518     1.0  0.82939  0.41155  0.62991  1.0000
  H   H2519     1.0  0.75062  0.23916  0.54166  1.0000
  S   S630      1.0  0.96533  0.28323  0.33495  1.0000
  S   S631      1.0  0.76275  0.04080  0.57961  1.0000
  Fe  Fe322     1.0  0.98128  0.21656  0.37278  1.0000
  H   H2520     1.0  0.75790  0.38642  0.50375  1.0000
  H   H2521     1.0  0.97132  0.22121  0.41466  1.0000
  H   H2522     1.0  0.73691  0.25160  0.46500  1.0000
  C   C1581     1.0  0.82677  0.30276  0.31866  1.0000
  Fe  Fe323     1.0  0.95983  0.21264  0.34122  1.0000
  N   N158      1.0  0.77859  0.23328  0.52493  1.0000
  H   H2523     1.0  0.92657  0.20800  0.44458  1.0000
  S   S632      1.0  0.75425  0.35866  0.57044  1.0000
  H   H2524     1.0  0.80699  0.32498  0.35679  1.0000
  H   H2525     1.0  0.84819  0.30553  0.34440  1.0000
  H   H2526     1.0  0.75053  0.23565  0.51791  1.0000
  C   C1582     1.0  0.93977  0.20172  0.45100  1.0000
  H   H2527     1.0  0.79987  0.29228  0.36235  1.0000
  H   H2528     1.0  0.80025  0.35133  0.51813  1.0000
  S   S633      1.0  0.73890  0.18646  0.57082  1.0000
  C   C1583     1.0  0.75803  0.24179  0.52662  1.0000
  H   H2529     1.0  0.81075  0.27631  0.34591  1.0000
  H   H2530     1.0  0.75515  0.33443  0.51699  1.0000
  H   H2531     1.0  0.75496  0.32810  0.32338  1.0000
  C   C1584     1.0  0.75145  0.21587  0.58088  1.0000
  C   C1585     1.0  0.80526  0.29171  0.34697  1.0000
  H   H2532     1.0  0.79253  0.36001  0.48550  1.0000
  S   S634      1.0  0.74847  0.01207  0.62946  1.0000
  S   S635      1.0  0.75877  0.30998  0.55452  1.0000
  Fe  Fe324     1.0  0.96355  0.25212  0.34738  1.0000
  N   N159      1.0  0.77173  0.35721  0.51126  1.0000
  S   S636      1.0  0.78632  0.46205  0.60315  1.0000
  C   C1586     1.0  0.75061  0.39049  0.58705  1.0000
  H   H2533     1.0  0.80342  0.23605  0.53575  1.0000
  C   C1587     1.0  0.78069  0.36853  0.58781  1.0000
  H   H2534     1.0  0.83272  0.28771  0.31647  1.0000
  H   H2535     1.0  0.83748  0.34270  0.60461  1.0000
  S   S637      1.0  0.76237  0.30513  0.59934  1.0000
  C   C1588     1.0  0.79143  0.34584  0.63681  1.0000
  H   H2536     1.0  0.82346  0.33333  0.33610  1.0000
  H   H2537     1.0  0.79693  0.34446  0.62162  1.0000
  H   H2538     1.0  0.84321  0.28153  0.34780  1.0000
  H   H2539     1.0  0.74478  0.29278  0.49620  1.0000
  C   C1589     1.0  0.83687  0.32858  0.61314  1.0000
  C   C1590     1.0  0.78779  0.24179  0.53690  1.0000
  H   H2540     1.0  0.75598  0.25764  0.52185  1.0000
  C   C1591     1.0  0.81247  0.32383  0.34149  1.0000
  H   H2541     1.0  0.95408  0.17461  0.42909  1.0000
  C   C1592     1.0  0.75648  0.40202  0.59757  1.0000
  H   H2542     1.0  0.97728  0.06056  0.32448  1.0000
  H   H2543     1.0  0.78414  0.31406  0.62778  1.0000
  C   C1593     1.0  0.97413  0.28892  0.31041  1.0000
  H   H2544     1.0  0.97592  0.12980  0.32808  1.0000
  S   S638      1.0  0.81955  0.47264  0.63351  1.0000
  S   S639      1.0  0.98545  0.22640  0.34075  1.0000
  H   H2545     1.0  0.92113  0.30356  0.31227  1.0000
  H   H2546     1.0  0.96032  0.23035  0.43616  1.0000
  C   C1594     1.0  0.84657  0.32271  0.62885  1.0000
  S   S640      1.0  0.74123  0.46008  0.62227  1.0000
  H   H2547     1.0  0.76348  0.34382  0.61735  1.0000
  H   H2548     1.0  0.87516  0.00040  0.63101  1.0000
  C   C1595     1.0  0.83519  0.29216  0.63501  1.0000
  H   H2549     1.0  0.75593  0.36220  0.63190  1.0000
  H   H2550     1.0  0.78438  0.47535  0.32869  1.0000
  H   H2551     1.0  0.74295  0.23301  0.45073  1.0000
  C   C1596     1.0  0.97438  0.19294  0.44491  1.0000
  H   H2552     1.0  0.74016  0.09956  0.51862  1.0000
  H   H2553     1.0  0.74539  0.34068  0.63798  1.0000
  C   C1597     1.0  0.75905  0.34633  0.63236  1.0000
  S   S641      1.0  0.85884  0.33900  0.63470  1.0000
  C   C1598     1.0  0.95856  0.13887  0.30583  1.0000
  H   H2554     1.0  0.73630  0.38650  0.31186  1.0000
  Fe  Fe325     1.0  0.85337  0.00606  0.71173  1.0000
  S   S642      1.0  0.83831  0.01929  0.68628  1.0000
  Fe  Fe326     1.0  0.87511  0.01451  0.74060  1.0000
  H   H2555     1.0  0.80526  0.40055  0.68008  1.0000
  S   S643      1.0  0.88591  0.03309  0.75673  1.0000
  S   S644      1.0  0.78153  0.45845  0.85041  1.0000
  H   H2556     1.0  0.79510  0.17030  0.92726  1.0000
  S   S645      1.0  0.88414  0.00913  0.71035  1.0000
  S   S646      1.0  0.84392  0.01432  0.74092  1.0000
  H   H2557     1.0  0.76348  0.07026  0.87411  1.0000
  H   H2558     1.0  0.85699  0.40400  0.67005  1.0000
  H   H2559     1.0  0.86758  0.16906  0.73954  1.0000
  H   H2560     1.0  0.82523  0.18765  0.93919  1.0000
  Fe  Fe327     1.0  0.88273  0.45967  0.74006  1.0000
  S   S647      1.0  0.89791  0.42895  0.73983  1.0000
  C   C1599     1.0  0.96375  0.30760  0.65410  1.0000
  C   C1600     1.0  0.96480  0.17022  0.78063  1.0000
  H   H2561     1.0  0.74973  0.38181  0.85843  1.0000
  H   H2562     1.0  0.84922  0.16030  0.73239  1.0000
  H   H2563     1.0  0.86281  0.20858  0.71467  1.0000
  Fe  Fe328     1.0  0.88077  0.34784  0.69158  1.0000
  C   C1601     1.0  0.80645  0.10995  0.85787  1.0000
  S   S648      1.0  0.86265  0.37357  0.70379  1.0000
  Fe  Fe329     1.0  0.89713  0.30535  0.68988  1.0000
  S   S649      1.0  0.90663  0.31121  0.65792  1.0000
  S   S650      1.0  0.90916  0.27527  0.70379  1.0000
  Fe  Fe330     1.0  0.91755  0.33598  0.66384  1.0000
  H   H2564     1.0  0.78996  0.46158  0.76429  1.0000
  H   H2565     1.0  0.79041  0.14698  0.85452  1.0000
  H   H2566     1.0  0.76614  0.30896  0.64815  1.0000
  S   S651      1.0  0.90936  0.32963  0.69570  1.0000
  S   S652      1.0  0.86750  0.32297  0.68878  1.0000
  Fe  Fe331     1.0  0.89206  0.13953  0.76114  1.0000
  S   S653      1.0  0.86783  0.15610  0.77897  1.0000
  S   S654      1.0  0.88394  0.12377  0.74056  1.0000
  Fe  Fe332     1.0  0.92213  0.15731  0.77343  1.0000
  S   S655      1.0  0.89992  0.17508  0.79206  1.0000
  S   S656      1.0  0.95369  0.15988  0.76661  1.0000
  Fe  Fe333     1.0  0.88664  0.14831  0.80136  1.0000
  S   S657      1.0  0.87493  0.13691  0.83193  1.0000
  Fe  Fe334     1.0  0.88334  0.18121  0.76772  1.0000
  S   S658      1.0  0.86646  0.21010  0.75700  1.0000
  S   S659      1.0  0.91012  0.12981  0.78438  1.0000
  S   S660      1.0  0.90634  0.16534  0.74842  1.0000
  Fe  Fe335     1.0  0.75364  0.13316  0.90029  1.0000
  S   S661      1.0  0.74747  0.16159  0.88089  1.0000
  C   C1602     1.0  0.80070  0.00854  0.80217  1.0000
  Fe  Fe336     1.0  0.76384  0.15254  0.93032  1.0000
  S   S662      1.0  0.75863  0.18210  0.91306  1.0000
  H   H2567     1.0  0.88510  0.19308  0.71752  1.0000
  H   H2568     1.0  0.93105  0.36395  0.68153  1.0000
  Fe  Fe337     1.0  0.77403  0.16815  0.88799  1.0000
  S   S663      1.0  0.79490  0.18286  0.86494  1.0000
  C   C1603     1.0  0.84144  0.17219  0.90720  1.0000
  S   S664      1.0  0.78138  0.13926  0.90554  1.0000
  H   H2569     1.0  0.75584  0.37925  0.88179  1.0000
  Fe  Fe338     1.0  0.87806  0.33068  0.65733  1.0000
  H   H2570     1.0  0.77134  0.18711  0.94877  1.0000
  H   H2571     1.0  0.74222  0.01737  0.94058  1.0000
  S   S665      1.0  0.85124  0.46677  0.75125  1.0000
  C   C1604     1.0  0.81196  0.12872  0.82625  1.0000
  C   C1605     1.0  0.95570  0.17429  0.79864  1.0000
  H   H2572     1.0  0.95844  0.18469  0.82370  1.0000
  H   H2573     1.0  0.94141  0.17115  0.80428  1.0000
  C   C1606     1.0  0.85300  0.15001  0.84130  1.0000
  C   C1607     1.0  0.84521  0.16749  0.83108  1.0000
  C   C1608     1.0  0.82749  0.17757  0.83862  1.0000
  C   C1609     1.0  0.81732  0.17009  0.85624  1.0000
  C   C1610     1.0  0.82511  0.15262  0.86648  1.0000
  C   C1611     1.0  0.84300  0.14267  0.85910  1.0000
  H   H2574     1.0  0.85287  0.17330  0.81738  1.0000
  H   H2575     1.0  0.82154  0.19113  0.83067  1.0000
  H   H2576     1.0  0.81733  0.14675  0.88002  1.0000
  H   H2577     1.0  0.84902  0.12914  0.86702  1.0000
  C   C1612     1.0  0.89609  0.25729  0.71688  1.0000
  C   C1613     1.0  0.90570  0.23821  0.71953  1.0000
  C   C1614     1.0  0.89653  0.22355  0.73127  1.0000
  C   C1615     1.0  0.87778  0.22792  0.74084  1.0000
  C   C1616     1.0  0.86794  0.24689  0.73776  1.0000
  C   C1617     1.0  0.87706  0.26157  0.72578  1.0000
  H   H2578     1.0  0.92039  0.23481  0.71254  1.0000
  H   H2579     1.0  0.90410  0.20893  0.73310  1.0000
  H   H2580     1.0  0.85335  0.25035  0.74499  1.0000
  H   H2581     1.0  0.86956  0.27625  0.72386  1.0000
  H   H2582     1.0  0.79572  0.10422  0.86986  1.0000
  H   H2583     1.0  0.84136  0.16556  0.94491  1.0000
  C   C1618     1.0  0.82722  0.17175  0.94043  1.0000
  C   C1619     1.0  0.91887  0.39636  0.65697  1.0000
  H   H2584     1.0  0.81702  0.09750  0.85339  1.0000
  H   H2585     1.0  0.81973  0.13823  0.83109  1.0000
  H   H2586     1.0  0.83740  0.19655  0.70401  1.0000
  C   C1620     1.0  0.75520  0.00604  0.79001  1.0000
  H   H2587     1.0  0.74258  0.04660  0.87539  1.0000
  H   H2588     1.0  0.95482  0.38290  0.66342  1.0000
  H   H2589     1.0  0.84068  0.18806  0.90473  1.0000
  H   H2590     1.0  0.84061  0.16825  0.89334  1.0000
  C   C1621     1.0  0.75585  0.41687  0.88057  1.0000
  H   H2591     1.0  0.84539  0.18473  0.73672  1.0000
  C   C1622     1.0  0.85612  0.17318  0.73063  1.0000
  H   H2592     1.0  0.85623  0.00282  0.65096  1.0000
  H   H2593     1.0  0.97770  0.27808  0.65605  1.0000
  S   S666      1.0  0.77528  0.14519  0.95837  1.0000
  C   C1623     1.0  0.91610  0.41115  0.68464  1.0000
  H   H2594     1.0  0.80585  0.17205  0.90264  1.0000
  H   H2595     1.0  0.80551  0.13732  0.81381  1.0000
  C   C1624     1.0  0.88716  0.41347  0.73091  1.0000
  C   C1625     1.0  0.89535  0.39395  0.73219  1.0000
  C   C1626     1.0  0.88774  0.38147  0.72427  1.0000
  C   C1627     1.0  0.87200  0.38849  0.71484  1.0000
  C   C1628     1.0  0.86351  0.40791  0.71396  1.0000
  C   C1629     1.0  0.87112  0.42039  0.72188  1.0000
  H   H2596     1.0  0.90763  0.38848  0.73935  1.0000
  H   H2597     1.0  0.89403  0.36641  0.72550  1.0000
  H   H2598     1.0  0.85115  0.41341  0.70694  1.0000
  H   H2599     1.0  0.86468  0.43541  0.72086  1.0000
  C   C1630     1.0  0.78339  0.13786  0.84838  1.0000
  H   H2600     1.0  0.85872  0.98037  0.68176  1.0000
  H   H2601     1.0  0.81105  0.44543  0.82092  1.0000
  C   C1631     1.0  0.84857  0.18476  0.69892  1.0000
  C   C1632     1.0  0.96537  0.18195  0.80960  1.0000
  H   H2602     1.0  0.80702  0.40866  0.64523  1.0000
  C   C1633     1.0  0.94695  0.39505  0.67082  1.0000
  H   H2603     1.0  0.85576  0.16538  0.91094  1.0000
  H   H2604     1.0  0.89059  0.15965  0.71180  1.0000
  H   H2605     1.0  0.78559  0.41449  0.85183  1.0000
  C   C1634     1.0  0.88476  0.05838  0.75202  1.0000
  C   C1635     1.0  0.89107  0.06703  0.76480  1.0000
  C   C1636     1.0  0.89072  0.08703  0.76158  1.0000
  C   C1637     1.0  0.88414  0.09859  0.74544  1.0000
  C   C1638     1.0  0.87770  0.08997  0.73270  1.0000
  C   C1639     1.0  0.87794  0.06996  0.73600  1.0000
  H   H2606     1.0  0.89644  0.05821  0.77719  1.0000
  H   H2607     1.0  0.89575  0.09347  0.77146  1.0000
  H   H2608     1.0  0.87260  0.09878  0.72017  1.0000
  H   H2609     1.0  0.87306  0.06348  0.72604  1.0000
  H   H2610     1.0  0.78618  0.39188  0.86782  1.0000
  N   N160      1.0  0.75790  0.40693  0.86418  1.0000
  H   H2611     1.0  0.88900  0.99357  0.81141  1.0000
  H   H2612     1.0  0.79762  0.01170  0.64237  1.0000
  Fe  Fe339     1.0  0.75582  0.47438  0.86782  1.0000
  H   H2613     1.0  0.81488  0.42176  0.67961  1.0000
  H   H2614     1.0  0.84097  0.13741  0.92976  1.0000
  H   H2615     1.0  0.92110  0.41046  0.69838  1.0000
  C   C1640     1.0  0.82282  0.00710  0.67884  1.0000
  C   C1641     1.0  0.81481  0.01531  0.66227  1.0000
  N   N161      1.0  0.86414  0.17960  0.71045  1.0000
  C   C1642     1.0  0.92508  0.21210  0.76430  1.0000
  S   S667      1.0  0.77635  0.01174  0.83553  1.0000
  H   H2616     1.0  0.77943  0.11751  0.82286  1.0000
  H   H2617     1.0  0.81414  0.11870  0.86370  1.0000
  H   H2618     1.0  0.90034  0.41126  0.68808  1.0000
  H   H2619     1.0  0.89862  0.21978  0.79473  1.0000
  H   H2620     1.0  0.91180  0.23397  0.80330  1.0000
  H   H2621     1.0  0.82287  0.11679  0.82111  1.0000
  C   C1643     1.0  0.87324  0.19657  0.70903  1.0000
  N   N162      1.0  0.79718  0.12145  0.84181  1.0000
  C   C1644     1.0  0.78684  0.10927  0.83482  1.0000
  H   H2622     1.0  0.79675  0.09673  0.82968  1.0000
  H   H2623     1.0  0.77565  0.10355  0.84640  1.0000
  C   C1645     1.0  0.91331  0.22245  0.79470  1.0000
  H   H2624     1.0  0.92121  0.20906  0.80222  1.0000
  H   H2625     1.0  0.89928  0.98802  0.67412  1.0000
  H   H2626     1.0  0.87935  0.20202  0.69401  1.0000
  H   H2627     1.0  0.77655  0.14725  0.83654  1.0000
  H   H2628     1.0  0.77170  0.13287  0.85964  1.0000
  C   C1646     1.0  0.87864  0.16389  0.70335  1.0000
  H   H2629     1.0  0.92621  0.37559  0.70193  1.0000
  H   H2630     1.0  0.87234  0.15070  0.70461  1.0000
  H   H2631     1.0  0.88499  0.16809  0.68813  1.0000
  H   H2632     1.0  0.84141  0.17224  0.69974  1.0000
  H   H2633     1.0  0.85412  0.18972  0.68360  1.0000
  N   N163      1.0  0.92610  0.39482  0.67499  1.0000
  H   H2634     1.0  0.91846  0.42519  0.67561  1.0000
  N   N164      1.0  0.92334  0.22788  0.77501  1.0000
  H   H2635     1.0  0.93370  0.19869  0.77079  1.0000
  H   H2636     1.0  0.91077  0.20870  0.76420  1.0000
  H   H2637     1.0  0.91927  0.24997  0.75048  1.0000
  H   H2638     1.0  0.80326  0.33885  0.64497  1.0000
  S   S668      1.0  0.74899  0.46709  0.89986  1.0000
  C   C1647     1.0  0.83609  0.38280  0.65881  1.0000
  H   H2639     1.0  0.78063  0.39399  0.84431  1.0000
  H   H2640     1.0  0.89756  0.24332  0.76477  1.0000
  H   H2641     1.0  0.75397  0.33267  0.67014  1.0000
  H   H2642     1.0  0.84562  0.38013  0.64515  1.0000
  C   C1648     1.0  0.91224  0.24551  0.76546  1.0000
  H   H2643     1.0  0.77807  0.33256  0.67328  1.0000
  H   H2644     1.0  0.93211  0.21578  0.74920  1.0000
  H   H2645     1.0  0.95146  0.21823  0.78263  1.0000
  C   C1649     1.0  0.79978  0.47207  0.76270  1.0000
  H   H2646     1.0  0.75312  0.01177  0.80358  1.0000
  H   H2647     1.0  0.90316  0.39620  0.65965  1.0000
  H   H2648     1.0  0.94199  0.24310  0.78365  1.0000
  C   C1650     1.0  0.94270  0.23133  0.77558  1.0000
  C   C1651     1.0  0.77849  0.40154  0.85670  1.0000
  C   C1652     1.0  0.81302  0.99857  0.78856  1.0000
  C   C1653     1.0  0.79842  0.47051  0.83376  1.0000
  H   H2649     1.0  0.91060  0.25778  0.77311  1.0000
  S   S669      1.0  0.89008  0.35613  0.66016  1.0000
  H   H2650     1.0  0.92596  0.38411  0.64945  1.0000
  H   H2651     1.0  0.79893  0.02406  0.80006  1.0000
  S   S670      1.0  0.75801  0.10486  0.88914  1.0000
  H   H2652     1.0  0.95285  0.39365  0.68418  1.0000
  H   H2653     1.0  0.74199  0.99811  0.92837  1.0000
  H   H2654     1.0  0.95064  0.23540  0.76093  1.0000
  H   H2655     1.0  0.85179  0.47245  0.65150  1.0000
  C   C1654     1.0  0.92246  0.37659  0.68757  1.0000
  C   C1655     1.0  0.82717  0.14497  0.92522  1.0000
  H   H2656     1.0  0.89806  0.00392  0.65158  1.0000
  H   H2657     1.0  0.83583  0.46132  0.79776  1.0000
  C   C1656     1.0  0.81884  0.40625  0.67837  1.0000
  H   H2658     1.0  0.84008  0.01593  0.83194  1.0000
  H   H2659     1.0  0.74334  0.99539  0.76144  1.0000
  H   H2660     1.0  0.94954  0.30399  0.65904  1.0000
  C   C1657     1.0  0.80715  0.17536  0.91660  1.0000
  H   H2661     1.0  0.85564  0.03511  0.79099  1.0000
  H   H2662     1.0  0.81605  0.16663  0.95231  1.0000
  C   C1658     1.0  0.74898  0.07229  0.88186  1.0000
  H   H2663     1.0  0.80886  0.47220  0.74831  1.0000
  H   H2664     1.0  0.74053  0.42165  0.88621  1.0000
  H   H2665     1.0  0.78076  0.21058  0.96421  1.0000
  H   H2666     1.0  0.88660  0.01791  0.79862  1.0000
  Fe  Fe340     1.0  0.75161  0.00012  0.85558  1.0000
  H   H2667     1.0  0.90714  0.37504  0.68951  1.0000
  H   H2668     1.0  0.84370  0.37458  0.67066  1.0000
  N   N165      1.0  0.86009  0.00684  0.80794  1.0000
  H   H2669     1.0  0.85561  0.98308  0.79655  1.0000
  C   C1659     1.0  0.85026  0.02119  0.79383  1.0000
  C   C1660     1.0  0.96611  0.32685  0.64914  1.0000
  N   N166      1.0  0.77406  0.33695  0.64405  1.0000
  Fe  Fe341     1.0  0.74779  0.46922  0.64798  1.0000
  H   H2670     1.0  0.83456  0.27805  0.64353  1.0000
  H   H2671     1.0  0.76280  0.42989  0.87648  1.0000
  N   N167      1.0  0.88078  0.98167  0.65720  1.0000
  C   C1661     1.0  0.97975  0.29292  0.65244  1.0000
  C   C1662     1.0  0.80358  0.00534  0.65521  1.0000
  H   H2672     1.0  0.80504  0.19128  0.91513  1.0000
  H   H2673     1.0  0.92152  0.40985  0.64701  1.0000
  H   H2674     1.0  0.77067  0.99986  0.78660  1.0000
  S   S671      1.0  0.94610  0.34548  0.65057  1.0000
  H   H2675     1.0  0.81745  0.02935  0.65474  1.0000
  H   H2676     1.0  0.74962  0.41286  0.83639  1.0000
  H   H2677     1.0  0.86073  0.02772  0.82500  1.0000
  H   H2678     1.0  0.95028  0.40864  0.66145  1.0000
  H   H2679     1.0  0.88469  0.99885  0.78720  1.0000
  C   C1663     1.0  0.77660  0.18235  0.96217  1.0000
  H   H2680     1.0  0.82609  0.14015  0.91191  1.0000
  H   H2681     1.0  0.82072  0.00639  0.77613  1.0000
  C   C1664     1.0  0.79065  0.99859  0.81847  1.0000
  C   C1665     1.0  0.81156  0.46036  0.82071  1.0000
  S   S672      1.0  0.77487  0.44748  0.64885  1.0000
  N   N168      1.0  0.83117  0.40353  0.65987  1.0000
  H   H2682     1.0  0.74508  0.98094  0.82125  1.0000
  H   H2683     1.0  0.83453  0.02414  0.79877  1.0000
  H   H2684     1.0  0.82305  0.37645  0.65969  1.0000
  H   H2685     1.0  0.80943  0.46654  0.77352  1.0000
  N   N169      1.0  0.82578  0.16607  0.92236  1.0000
  C   C1666     1.0  0.76700  0.33935  0.66414  1.0000
  C   C1667     1.0  0.85580  0.01375  0.82642  1.0000
  C   C1668     1.0  0.74889  0.38950  0.87049  1.0000
  H   H2686     1.0  0.82505  0.98257  0.70136  1.0000
  H   H2687     1.0  0.82624  0.39870  0.69060  1.0000
  H   H2688     1.0  0.85271  0.01619  0.77986  1.0000
  H   H2689     1.0  0.85314  0.29978  0.65193  1.0000
  H   H2690     1.0  0.81535  0.13998  0.93646  1.0000
  C   C1669     1.0  0.82083  0.41377  0.64410  1.0000
  C   C1670     1.0  0.98418  0.18549  0.80269  1.0000
  S   S673      1.0  0.74566  0.00396  0.88610  1.0000
  C   C1671     1.0  0.98466  0.33132  0.64281  1.0000
  C   C1672     1.0  0.82558  0.46934  0.80756  1.0000
  H   H2691     1.0  0.76316  0.35485  0.66545  1.0000
  C   C1673     1.0  0.74662  0.98382  0.77366  1.0000
  H   H2692     1.0  0.87841  0.00594  0.67097  1.0000
  C   C1674     1.0  0.74220  0.08842  0.89091  1.0000
  C   C1675     1.0  0.74838  0.41990  0.84898  1.0000
  C   C1676     1.0  0.88101  0.00413  0.80109  1.0000
  N   N170      1.0  0.74295  0.99145  0.79173  1.0000
  H   H2693     1.0  0.75202  0.01842  0.77849  1.0000
  H   H2694     1.0  0.75480  0.43324  0.84395  1.0000
  C   C1677     1.0  0.82087  0.47808  0.65577  1.0000
  H   H2695     1.0  0.83765  0.98970  0.81617  1.0000
  C   C1678     1.0  0.81925  0.98896  0.68846  1.0000
  H   H2696     1.0  0.79039  0.30870  0.65113  1.0000
  C   C1679     1.0  0.77871  0.16289  0.97043  1.0000
  C   C1680     1.0  0.83881  0.47692  0.66103  1.0000
  H   H2697     1.0  0.86297  0.00328  0.83744  1.0000
  C   C1681     1.0  0.98339  0.17423  0.77354  1.0000
  H   H2698     1.0  0.76240  0.40739  0.89254  1.0000
  S   S674      1.0  0.88168  0.98301  0.75308  1.0000
  C   C1682     1.0  0.73715  0.05875  0.88267  1.0000
  C   C1683     1.0  0.86752  0.99224  0.64402  1.0000
  C   C1684     1.0  0.85327  0.98835  0.81040  1.0000
  C   C1685     1.0  0.78178  0.19570  0.97106  1.0000
  C   C1686     1.0  0.77883  0.31627  0.64281  1.0000
  C   C1687     1.0  0.80042  0.98700  0.66462  1.0000
  C   C1688     1.0  0.84893  0.41138  0.65827  1.0000
  C   C1689     1.0  0.88957  0.99547  0.66372  1.0000
  H   H2699     1.0  0.84568  0.42703  0.65900  1.0000
  S   S675      1.0  0.73658  0.14405  0.92671  1.0000
  H   H2700     1.0  0.85859  0.40953  0.64451  1.0000
  C   C1690     1.0  0.84573  0.30443  0.63978  1.0000
  Fe  Fe342     1.0  0.85101  0.98265  0.75159  1.0000
  H   H2701     1.0  0.81742  0.42954  0.64412  1.0000
  H   H2702     1.0  0.85997  0.98238  0.63942  1.0000
  S   S676      1.0  0.89114  0.47941  0.75640  1.0000
  Fe  Fe343     1.0  0.87282  0.72885  0.99271  1.0000
  S   S677      1.0  0.87329  0.70939  0.02137  1.0000
  Fe  Fe344     1.0  0.82891  0.73794  0.99925  1.0000
  S   S678      1.0  0.82622  0.71922  0.02801  1.0000
  H   H2703     1.0  0.74250  0.60623  0.23070  1.0000
  Fe  Fe345     1.0  0.85019  0.73220  0.03313  1.0000
  S   S679      1.0  0.84364  0.74632  0.05975  1.0000
  Fe  Fe346     1.0  0.84904  0.69823  0.01388  1.0000
  S   S680      1.0  0.84651  0.66665  0.01823  1.0000
  S   S681      1.0  0.85127  0.75241  0.00506  1.0000
  H   H2704     1.0  0.73724  0.58610  0.20876  1.0000
  H   H2705     1.0  0.82458  0.77626  0.23316  1.0000
  Fe  Fe347     1.0  0.76255  0.61840  0.99925  1.0000
  S   S682      1.0  0.77369  0.64667  0.99421  1.0000
  H   H2706     1.0  0.79359  0.81372  0.20389  1.0000
  Fe  Fe348     1.0  0.77022  0.58345  0.29229  1.0000
  H   H2707     1.0  0.79059  0.60680  0.08577  1.0000
  S   S683      1.0  0.77753  0.58770  0.00256  1.0000
  C   C1691     1.0  0.92037  0.72152  0.22528  1.0000
  H   H2708     1.0  0.77424  0.97067  0.15697  1.0000
  H   H2709     1.0  0.84651  0.80276  0.18765  1.0000
  C   C1692     1.0  0.80903  0.81504  0.20112  1.0000
  H   H2710     1.0  0.95109  0.82132  0.20380  1.0000
  H   H2711     1.0  0.74881  0.60878  0.06249  1.0000
  H   H2712     1.0  0.80058  0.60874  0.04303  1.0000
  H   H2713     1.0  0.87244  0.81454  0.06700  1.0000
  H   H2714     1.0  0.80128  0.96723  0.19275  1.0000
  Fe  Fe349     1.0  0.89274  0.75710  0.14538  1.0000
  S   S684      1.0  0.86481  0.76971  0.16152  1.0000
  S   S685      1.0  0.89760  0.73988  0.12123  1.0000
  Fe  Fe350     1.0  0.91615  0.77337  0.16781  1.0000
  S   S686      1.0  0.88990  0.78800  0.18524  1.0000
  S   S687      1.0  0.94762  0.76940  0.17006  1.0000
  Fe  Fe351     1.0  0.87871  0.76047  0.18780  1.0000
  S   S688      1.0  0.86258  0.74506  0.21471  1.0000
  Fe  Fe352     1.0  0.87807  0.79613  0.15756  1.0000
  S   S689      1.0  0.86026  0.82281  0.14373  1.0000
  S   S690      1.0  0.90554  0.74530  0.17210  1.0000
  S   S691      1.0  0.90544  0.78403  0.13991  1.0000
  Fe  Fe353     1.0  0.74969  0.91068  0.15129  1.0000
  S   S692      1.0  0.75327  0.88309  0.17247  1.0000
  C   C1693     1.0  0.74246  0.56662  0.07622  1.0000
  Fe  Fe354     1.0  0.75037  0.93593  0.18071  1.0000
  S   S693      1.0  0.75387  0.91022  0.20378  1.0000
  C   C1694     1.0  0.75624  0.48865  0.22276  1.0000
  Fe  Fe355     1.0  0.77514  0.89612  0.18156  1.0000
  S   S694      1.0  0.80286  0.88109  0.19184  1.0000
  H   H2715     1.0  0.82687  0.96088  0.18844  1.0000
  S   S695      1.0  0.77326  0.92267  0.15900  1.0000
  H   H2716     1.0  0.85536  0.64876  0.98230  1.0000
  C   C1695     1.0  0.95909  0.78341  0.18016  1.0000
  C   C1696     1.0  0.94902  0.79890  0.18893  1.0000
  H   H2717     1.0  0.81749  0.80089  0.23644  1.0000
  H   H2718     1.0  0.93369  0.80290  0.18937  1.0000
  H   H2719     1.0  0.80035  0.78819  0.23180  1.0000
  C   C1697     1.0  0.84437  0.83877  0.15742  1.0000
  C   C1698     1.0  0.82777  0.84916  0.15058  1.0000
  C   C1699     1.0  0.81483  0.86209  0.16110  1.0000
  C   C1700     1.0  0.81862  0.86488  0.17839  1.0000
  C   C1701     1.0  0.83530  0.85460  0.18518  1.0000
  C   C1702     1.0  0.84815  0.84155  0.17474  1.0000
  H   H2720     1.0  0.82488  0.84723  0.13708  1.0000
  H   H2721     1.0  0.80206  0.87004  0.15570  1.0000
  H   H2722     1.0  0.83837  0.85686  0.19848  1.0000
  H   H2723     1.0  0.86118  0.83397  0.17985  1.0000
  C   C1703     1.0  0.87886  0.79409  0.10112  1.0000
  H   H2724     1.0  0.75499  0.49691  0.20818  1.0000
  H   H2725     1.0  0.77644  0.76619  0.07232  1.0000
  C   C1704     1.0  0.81561  0.79022  0.22811  1.0000
  C   C1705     1.0  0.88394  0.73659  0.27184  1.0000
  C   C1706     1.0  0.87433  0.72311  0.26811  1.0000
  C   C1707     1.0  0.86763  0.72597  0.25064  1.0000
  C   C1708     1.0  0.87083  0.74211  0.23662  1.0000
  C   C1709     1.0  0.88030  0.75568  0.24039  1.0000
  C   C1710     1.0  0.88666  0.75300  0.25802  1.0000
  H   H2726     1.0  0.87202  0.71049  0.27872  1.0000
  H   H2727     1.0  0.86016  0.71549  0.24789  1.0000
  H   H2728     1.0  0.88257  0.76832  0.22983  1.0000
  H   H2729     1.0  0.89385  0.76360  0.26095  1.0000
  H   H2730     1.0  0.82804  0.76786  0.20107  1.0000
  H   H2731     1.0  0.82287  0.78628  0.18117  1.0000
  C   C1711     1.0  0.95890  0.80931  0.19709  1.0000
  H   H2732     1.0  0.81304  0.82027  0.18553  1.0000
  C   C1712     1.0  0.74330  0.57940  0.22149  1.0000
  H   H2733     1.0  0.98481  0.89277  0.19837  1.0000
  H   H2734     1.0  0.92054  0.75712  0.23195  1.0000
  H   H2735     1.0  0.73966  0.72189  0.98725  1.0000
  H   H2736     1.0  0.76261  0.63558  0.03858  1.0000
  H   H2737     1.0  0.81320  0.69048  0.00379  1.0000
  H   H2738     1.0  0.76455  0.77713  0.99296  1.0000
  C   C1713     1.0  0.81880  0.78189  0.19689  1.0000
  H   H2739     1.0  0.82695  0.90799  0.20234  1.0000
  C   C1714     1.0  0.74875  0.55944  0.22522  1.0000
  C   C1715     1.0  0.75410  0.58225  0.25046  1.0000
  H   H2740     1.0  0.84372  0.81083  0.21009  1.0000
  C   C1716     1.0  0.79602  0.67083  0.99969  1.0000
  H   H2741     1.0  0.85092  0.78578  0.20877  1.0000
  C   C1717     1.0  0.78974  0.48042  0.28025  1.0000
  N   N171      1.0  0.82119  0.79659  0.20736  1.0000
  H   H2742     1.0  0.92524  0.70577  0.22605  1.0000
  H   H2743     1.0  0.79949  0.94552  0.17057  1.0000
  H   H2744     1.0  0.80065  0.80821  0.02863  1.0000
  H   H2745     1.0  0.81052  0.82653  0.20866  1.0000
  H   H2746     1.0  0.78964  0.76911  0.02950  1.0000
  H   H2747     1.0  0.80377  0.75605  0.04727  1.0000
  H   H2748     1.0  0.79281  0.93322  0.22332  1.0000
  H   H2749     1.0  0.81713  0.59986  0.24510  1.0000
  C   C1718     1.0  0.85853  0.74345  0.07718  1.0000
  C   C1719     1.0  0.87693  0.73249  0.07546  1.0000
  C   C1720     1.0  0.88846  0.73109  0.08939  1.0000
  C   C1721     1.0  0.88178  0.74066  0.10514  1.0000
  C   C1722     1.0  0.86327  0.75140  0.10700  1.0000
  C   C1723     1.0  0.85176  0.75285  0.09305  1.0000
  H   H2750     1.0  0.88232  0.72516  0.06335  1.0000
  H   H2751     1.0  0.90276  0.72271  0.08783  1.0000
  H   H2752     1.0  0.85785  0.75863  0.11917  1.0000
  H   H2753     1.0  0.83749  0.76124  0.09459  1.0000
  C   C1724     1.0  0.82590  0.66104  0.01230  1.0000
  C   C1725     1.0  0.82399  0.64173  0.01383  1.0000
  C   C1726     1.0  0.80817  0.63699  0.00819  1.0000
  C   C1727     1.0  0.79405  0.65158  0.00121  1.0000
  C   C1728     1.0  0.81185  0.67556  0.00517  1.0000
  H   H2754     1.0  0.83493  0.63040  0.01911  1.0000
  H   H2755     1.0  0.80700  0.62213  0.00898  1.0000
  C   C1729     1.0  0.79497  0.77693  0.98902  1.0000
  C   C1730     1.0  0.80928  0.78803  0.98695  1.0000
  H   H2756     1.0  0.80371  0.77939  0.19976  1.0000
  C   C1731     1.0  0.78496  0.81639  0.99036  1.0000
  C   C1732     1.0  0.77063  0.80534  0.99222  1.0000
  C   C1733     1.0  0.77565  0.78567  0.99134  1.0000
  H   H2757     1.0  0.75567  0.81189  0.99458  1.0000
  C   C1734     1.0  0.74624  0.59076  0.23393  1.0000
  C   C1735     1.0  0.84147  0.79913  0.20329  1.0000
  C   C1736     1.0  0.82799  0.92301  0.20324  1.0000
  Fe  Fe356     1.0  0.74835  0.84815  0.00708  1.0000
  H   H2758     1.0  0.80888  0.77206  0.07245  1.0000
  H   H2759     1.0  0.88381  0.82769  0.07877  1.0000
  Fe  Fe357     1.0  0.75317  0.58252  0.02698  1.0000
  H   H2760     1.0  0.76225  0.55313  0.09562  1.0000
  H   H2761     1.0  0.89676  0.81807  0.05794  1.0000
  S   S696      1.0  0.85026  0.71609  0.98451  1.0000
  H   H2762     1.0  0.81540  0.81630  0.98599  1.0000
  H   H2763     1.0  0.81386  0.95801  0.21247  1.0000
  H   H2764     1.0  0.77825  0.63113  0.08557  1.0000
  H   H2765     1.0  0.95314  0.71058  0.23952  1.0000
  S   S697      1.0  0.73932  0.61348  0.02451  1.0000
  H   H2766     1.0  0.79338  0.63978  0.24009  1.0000
  S   S698      1.0  0.80078  0.75201  0.98958  1.0000
  C   C1737     1.0  0.78675  0.60425  0.05044  1.0000
  H   H2767     1.0  0.79003  0.58973  0.05916  1.0000
  N   N172      1.0  0.89318  0.79712  0.08358  1.0000
  H   H2768     1.0  0.93845  0.72976  0.25077  1.0000
  C   C1738     1.0  0.89599  0.78081  0.07325  1.0000
  C   C1739     1.0  0.91161  0.79839  0.08878  1.0000
  C   C1740     1.0  0.88625  0.81516  0.07125  1.0000
  H   H2769     1.0  0.77892  0.60253  0.03931  1.0000
  H   H2770     1.0  0.82420  0.78143  0.98485  1.0000
  H   H2771     1.0  0.90594  0.78305  0.05944  1.0000
  H   H2772     1.0  0.76169  0.49782  0.23042  1.0000
  H   H2773     1.0  0.74428  0.87317  0.13001  1.0000
  H   H2774     1.0  0.84195  0.92616  0.19463  1.0000
  H   H2775     1.0  0.82835  0.92342  0.21842  1.0000
  H   H2776     1.0  0.88391  0.65345  0.99349  1.0000
  H   H2777     1.0  0.88358  0.78058  0.11074  1.0000
  H   H2778     1.0  0.91128  0.72369  0.23924  1.0000
  H   H2779     1.0  0.92270  0.80100  0.07590  1.0000
  H   H2780     1.0  0.78092  0.94186  0.20300  1.0000
  N   N173      1.0  0.77525  0.61828  0.06231  1.0000
  C   C1741     1.0  0.75711  0.55094  0.24149  1.0000
  H   H2781     1.0  0.90996  0.81021  0.09706  1.0000
  H   H2782     1.0  0.76075  0.59713  0.08209  1.0000
  C   C1742     1.0  0.78653  0.62069  0.07631  1.0000
  H   H2783     1.0  0.86780  0.60853  0.30005  1.0000
  C   C1743     1.0  0.97885  0.80428  0.19655  1.0000
  C   C1744     1.0  0.94938  0.72729  0.20337  1.0000
  H   H2784     1.0  0.80039  0.79739  0.07173  1.0000
  H   H2785     1.0  0.77674  0.80422  0.02956  1.0000
  C   C1745     1.0  0.77030  0.63698  0.04996  1.0000
  C   C1746     1.0  0.75956  0.56228  0.25422  1.0000
  H   H2786     1.0  0.94171  0.76124  0.21503  1.0000
  H   H2787     1.0  0.98130  0.86879  0.20954  1.0000
  C   C1747     1.0  0.74744  0.55902  0.09438  1.0000
  S   S699      1.0  0.76052  0.56680  0.05575  1.0000
  S   S700      1.0  0.75632  0.59708  0.26627  1.0000
  N   N174      1.0  0.81172  0.93681  0.19628  1.0000
  H   H2788     1.0  0.87834  0.67881  0.98612  1.0000
  C   C1748     1.0  0.79356  0.93205  0.20813  1.0000
  C   C1749     1.0  0.81174  0.93553  0.17620  1.0000
  C   C1750     1.0  0.81356  0.95656  0.19755  1.0000
  H   H2789     1.0  0.76571  0.55555  0.26688  1.0000
  H   H2790     1.0  0.96012  0.73397  0.23447  1.0000
  S   S701      1.0  0.74517  0.61394  0.97856  1.0000
  H   H2791     1.0  0.78836  0.52633  0.28648  1.0000
  C   C1751     1.0  0.79002  0.50023  0.27569  1.0000
  H   H2792     1.0  0.76158  0.53552  0.24437  1.0000
  H   H2793     1.0  0.84268  0.61477  0.26630  1.0000
  H   H2794     1.0  0.81054  0.92075  0.17474  1.0000
  S   S702      1.0  0.74584  0.96427  0.19145  1.0000
  H   H2795     1.0  0.96157  0.73546  0.19942  1.0000
  C   C1752     1.0  0.75750  0.61117  0.07258  1.0000
  N   N175      1.0  0.93676  0.73200  0.22112  1.0000
  H   H2796     1.0  0.97781  0.63091  0.30090  1.0000
  C   C1753     1.0  0.92966  0.75292  0.21869  1.0000
  H   H2797     1.0  0.81273  0.65303  0.23695  1.0000
  C   C1754     1.0  0.80923  0.63834  0.23886  1.0000
  H   H2798     1.0  0.81972  0.78891  0.05388  1.0000
  H   H2799     1.0  0.81170  0.62519  0.28611  1.0000
  H   H2800     1.0  0.76731  0.79136  0.07228  1.0000
  H   H2801     1.0  0.81590  0.63238  0.22560  1.0000
  H   H2802     1.0  0.79106  0.63604  0.27519  1.0000
  C   C1755     1.0  0.80698  0.63439  0.27304  1.0000
  N   N176      1.0  0.81605  0.62585  0.25585  1.0000
  H   H2803     1.0  0.79500  0.60737  0.26014  1.0000
  C   C1756     1.0  0.80428  0.80778  0.98743  1.0000
  H   H2804     1.0  0.84934  0.67424  0.97532  1.0000
  H   H2805     1.0  0.81082  0.64876  0.27217  1.0000
  C   C1757     1.0  0.81084  0.60665  0.25792  1.0000
  H   H2806     1.0  0.91099  0.72641  0.21416  1.0000
  S   S703      1.0  0.77895  0.84061  0.99299  1.0000
  H   H2807     1.0  0.81613  0.59674  0.27036  1.0000
  C   C1758     1.0  0.83713  0.62403  0.25361  1.0000
  H   H2808     1.0  0.84160  0.63824  0.25204  1.0000
  H   H2809     1.0  0.79165  0.50724  0.26091  1.0000
  H   H2810     1.0  0.82513  0.93924  0.16677  1.0000
  H   H2811     1.0  0.81326  0.77384  0.02876  1.0000
  H   H2812     1.0  0.90229  0.76718  0.08179  1.0000
  H   H2813     1.0  0.84452  0.61743  0.24092  1.0000
  S   S704      1.0  0.74503  0.91467  0.12039  1.0000
  H   H2814     1.0  0.87648  0.80604  0.10938  1.0000
  C   C1759     1.0  0.79991  0.77044  0.03853  1.0000
  H   H2815     1.0  0.91734  0.78479  0.09780  1.0000
  H   H2816     1.0  0.78169  0.81583  0.04712  1.0000
  N   N177      1.0  0.79178  0.78527  0.05067  1.0000
  C   C1760     1.0  0.78759  0.80420  0.03848  1.0000
  S   S705      1.0  0.74608  0.54493  0.20934  1.0000
  H   H2817     1.0  0.94145  0.73113  0.19107  1.0000
  C   C1761     1.0  0.77384  0.78043  0.06295  1.0000
  C   C1762     1.0  0.94765  0.72630  0.23718  1.0000
  H   H2818     1.0  0.76297  0.77984  0.05423  1.0000
  H   H2819     1.0  0.95543  0.71172  0.20472  1.0000
  Fe  Fe358     1.0  0.75792  0.58257  0.98396  1.0000
  H   H2820     1.0  0.92103  0.75772  0.20695  1.0000
  H   H2821     1.0  0.73791  0.87808  0.23259  1.0000
  H   H2822     1.0  0.88220  0.77850  0.07017  1.0000
  H   H2823     1.0  0.73710  0.91889  0.08242  1.0000
  C   C1763     1.0  0.80577  0.78601  0.06274  1.0000
  H   H2824     1.0  0.78522  0.68220  0.99420  1.0000
  N   N178      1.0  0.73761  0.48355  0.23306  1.0000
  H   H2825     1.0  0.86474  0.79304  0.09783  1.0000
  C   C1764     1.0  0.97897  0.77835  0.17974  1.0000
  H   H2826     1.0  0.76093  0.64771  0.05829  1.0000
  H   H2827     1.0  0.79192  0.91711  0.20778  1.0000
  H   H2828     1.0  0.98242  0.88598  0.22392  1.0000
  S   S706      1.0  0.79793  0.56264  0.29055  1.0000
  H   H2829     1.0  0.97807  0.70412  0.29618  1.0000
  S   S707      1.0  0.89331  0.73323  0.29321  1.0000
  H   H2830     1.0  0.80002  0.62609  0.06903  1.0000
  H   H2831     1.0  0.74827  0.62143  0.08154  1.0000
  C   C1765     1.0  0.78819  0.51109  0.29018  1.0000
  H   H2832     1.0  0.78336  0.64313  0.04263  1.0000
  H   H2833     1.0  0.90148  0.66611  0.97738  1.0000
  H   H2834     1.0  0.73992  0.87162  0.26706  1.0000
  C   C1766     1.0  0.74100  0.89767  0.10762  1.0000
  C   C1767     1.0  0.74075  0.87839  0.11586  1.0000
  H   H2835     1.0  0.74520  0.48154  0.26072  1.0000
  H   H2836     1.0  0.75620  0.87758  0.97389  1.0000
  C   C1768     1.0  0.88591  0.66526  0.98105  1.0000
  S   S708      1.0  0.73769  0.87605  0.01793  1.0000
  S   S709      1.0  0.83599  0.58933  0.30172  1.0000
  C   C1769     1.0  0.73693  0.90402  0.08896  1.0000
  H   H2837     1.0  0.73792  0.54504  0.97518  1.0000
  H   H2838     1.0  0.73729  0.55299  0.12484  1.0000
  S   S710      1.0  0.89892  0.73888  0.97248  1.0000
  H   H2839     1.0  0.74008  0.75387  0.00866  1.0000
  H   H2840     1.0  0.75033  0.74304  0.97767  1.0000
  H   H2841     1.0  0.98591  0.67875  0.30234  1.0000
  C   C1770     1.0  0.73672  0.73717  0.98014  1.0000
  H   H2842     1.0  0.84118  0.51814  0.55735  1.0000
  S   S711      1.0  0.75137  0.50099  0.57693  1.0000
  C   C1771     1.0  0.96344  0.73843  0.49789  1.0000
  S   S712      1.0  0.89239  0.67746  0.30752  1.0000
  C   C1772     1.0  0.93901  0.73681  0.48017  1.0000
  H   H2843     1.0  0.79624  0.51655  0.38775  1.0000
  H   H2844     1.0  0.79331  0.52345  0.36315  1.0000
  C   C1773     1.0  0.75042  0.60415  0.39659  1.0000
  C   C1774     1.0  0.78629  0.50217  0.30934  1.0000
  H   H2845     1.0  0.90442  0.97615  0.63465  1.0000
  H   H2846     1.0  0.76421  0.86879  0.42152  1.0000
  S   S713      1.0  0.78007  0.60268  0.30782  1.0000
  S   S714      1.0  0.95329  0.75310  0.59143  1.0000
  H   H2847     1.0  0.75674  0.89445  0.55013  1.0000
  H   H2848     1.0  0.80574  0.84908  0.41038  1.0000
  S   S715      1.0  0.77331  0.58255  0.53552  1.0000
  H   H2849     1.0  0.96776  0.75522  0.46097  1.0000
  H   H2850     1.0  0.76136  0.53859  0.35480  1.0000
  N   N179      1.0  0.81917  0.50706  0.57897  1.0000
  C   C1775     1.0  0.83140  0.52182  0.57053  1.0000
  Fe  Fe359     1.0  0.75548  0.96971  0.60094  1.0000
  S   S716      1.0  0.79524  0.84234  0.49344  1.0000
  S   S717      1.0  0.79265  0.60523  0.48062  1.0000
  H   H2851     1.0  0.79744  0.52694  0.59323  1.0000
  H   H2852     1.0  0.79679  0.87041  0.45464  1.0000
  H   H2853     1.0  0.92680  0.75138  0.51249  1.0000
  Fe  Fe360     1.0  0.77879  0.63613  0.47857  1.0000
  S   S718      1.0  0.79459  0.66146  0.46977  1.0000
  Fe  Fe361     1.0  0.89885  0.71997  0.51804  1.0000
  S   S719      1.0  0.88813  0.74776  0.49962  1.0000
  S   S720      1.0  0.92515  0.71329  0.53306  1.0000
  Fe  Fe362     1.0  0.87129  0.69840  0.50599  1.0000
  S   S721      1.0  0.85902  0.72443  0.48675  1.0000
  S   S722      1.0  0.86126  0.66967  0.51114  1.0000
  Fe  Fe363     1.0  0.88940  0.72945  0.47737  1.0000
  S   S723      1.0  0.90470  0.73524  0.44676  1.0000
  Fe  Fe364     1.0  0.85859  0.74005  0.51067  1.0000
  S   S724      1.0  0.82996  0.75576  0.52343  1.0000
  S   S725      1.0  0.90179  0.70223  0.49501  1.0000
  S   S726      1.0  0.86930  0.71349  0.53062  1.0000
  H   H2854     1.0  0.95749  0.72813  0.51023  1.0000
  S   S727      1.0  0.79598  0.56322  0.33621  1.0000
  S   S728      1.0  0.75354  0.88491  0.49298  1.0000
  H   H2855     1.0  0.96371  0.77332  0.47580  1.0000
  H   H2856     1.0  0.79666  0.50206  0.60276  1.0000
  H   H2857     1.0  0.77262  0.86635  0.46156  1.0000
  Fe  Fe365     1.0  0.88883  0.68957  0.35850  1.0000
  S   S729      1.0  0.89117  0.65942  0.35314  1.0000
  S   S730      1.0  0.87949  0.69264  0.38989  1.0000
  Fe  Fe366     1.0  0.86987  0.67223  0.33347  1.0000
  S   S731      1.0  0.84209  0.66059  0.33760  1.0000
  Fe  Fe367     1.0  0.91363  0.66727  0.32787  1.0000
  S   S732      1.0  0.75886  0.63469  0.45889  1.0000
  S   S733      1.0  0.86646  0.70207  0.33979  1.0000
  S   S734      1.0  0.91331  0.69635  0.33474  1.0000
  C   C1776     1.0  0.82344  0.63405  0.33064  1.0000
  C   C1777     1.0  0.84094  0.64076  0.32739  1.0000
  H   H2858     1.0  0.84038  0.52337  0.58076  1.0000
  H   H2859     1.0  0.81094  0.64127  0.33894  1.0000
  H   H2860     1.0  0.84017  0.48889  0.59489  1.0000
  H   H2861     1.0  0.79651  0.61914  0.38260  1.0000
  H   H2862     1.0  0.76118  0.55711  0.36801  1.0000
  S   S735      1.0  0.76323  0.49318  0.63087  1.0000
  H   H2863     1.0  0.92732  0.74489  0.47225  1.0000
  C   C1778     1.0  0.96447  0.65571  0.33787  1.0000
  H   H2864     1.0  0.95181  0.66302  0.34593  1.0000
  C   C1779     1.0  0.89701  0.72551  0.42961  1.0000
  C   C1780     1.0  0.90953  0.72199  0.41267  1.0000
  C   C1781     1.0  0.90405  0.71296  0.39955  1.0000
  C   C1782     1.0  0.88587  0.70767  0.40322  1.0000
  C   C1783     1.0  0.87310  0.71207  0.41968  1.0000
  C   C1784     1.0  0.87866  0.72076  0.43288  1.0000
  H   H2865     1.0  0.92372  0.72574  0.40994  1.0000
  H   H2866     1.0  0.91407  0.70954  0.38698  1.0000
  H   H2867     1.0  0.85889  0.70836  0.42243  1.0000
  H   H2868     1.0  0.86872  0.72378  0.44559  1.0000
  H   H2869     1.0  0.74904  0.60911  0.42533  1.0000
  C   C1785     1.0  0.78618  0.58196  0.40087  1.0000
  C   C1786     1.0  0.77926  0.58425  0.38360  1.0000
  C   C1787     1.0  0.85696  0.63151  0.31637  1.0000
  H   H2870     1.0  0.80008  0.57335  0.40245  1.0000
  H   H2871     1.0  0.78789  0.57759  0.37199  1.0000
  C   C1788     1.0  0.81333  0.66309  0.48126  1.0000
  C   C1789     1.0  0.81939  0.64875  0.49599  1.0000
  C   C1790     1.0  0.83433  0.65075  0.50488  1.0000
  C   C1791     1.0  0.84315  0.66713  0.49919  1.0000
  C   C1792     1.0  0.83723  0.68129  0.48429  1.0000
  C   C1793     1.0  0.82236  0.67930  0.47540  1.0000
  H   H2872     1.0  0.81254  0.63615  0.50053  1.0000
  H   H2873     1.0  0.83891  0.63966  0.51634  1.0000
  H   H2874     1.0  0.84410  0.69379  0.47953  1.0000
  H   H2875     1.0  0.81782  0.69037  0.46390  1.0000
  C   C1794     1.0  0.80453  0.81805  0.50131  1.0000
  C   C1795     1.0  0.82355  0.81059  0.49413  1.0000
  C   C1796     1.0  0.83146  0.79137  0.50047  1.0000
  C   C1797     1.0  0.82043  0.77962  0.51422  1.0000
  C   C1798     1.0  0.80136  0.78704  0.52123  1.0000
  C   C1799     1.0  0.79337  0.80615  0.51470  1.0000
  H   H2876     1.0  0.83227  0.81976  0.48383  1.0000
  H   H2877     1.0  0.84618  0.78580  0.49504  1.0000
  H   H2878     1.0  0.79278  0.77806  0.53193  1.0000
  H   H2879     1.0  0.77874  0.81180  0.52035  1.0000
  H   H2880     1.0  0.80851  0.61277  0.32615  1.0000
  H   H2881     1.0  0.87051  0.63661  0.31380  1.0000
  C   C1800     1.0  0.76688  0.55993  0.54677  1.0000
  C   C1801     1.0  0.76789  0.55365  0.56630  1.0000
  C   C1802     1.0  0.76286  0.53581  0.57585  1.0000
  H   H2882     1.0  0.77246  0.56271  0.57412  1.0000
  H   H2883     1.0  0.76338  0.53126  0.59093  1.0000
  C   C1803     1.0  0.94600  0.74199  0.57488  1.0000
  C   C1804     1.0  0.95706  0.72572  0.56808  1.0000
  C   C1805     1.0  0.95037  0.71713  0.55540  1.0000
  C   C1806     1.0  0.93260  0.72466  0.54932  1.0000
  C   C1807     1.0  0.92158  0.74099  0.55603  1.0000
  C   C1808     1.0  0.92825  0.74955  0.56876  1.0000
  H   H2884     1.0  0.97075  0.71973  0.57260  1.0000
  H   H2885     1.0  0.95904  0.70452  0.55030  1.0000
  H   H2886     1.0  0.90788  0.74697  0.55155  1.0000
  H   H2887     1.0  0.91954  0.76211  0.57395  1.0000
  Fe  Fe368     1.0  0.76351  0.85314  0.50133  1.0000
  C   C1809     1.0  0.82200  0.61797  0.32326  1.0000
  H   H2888     1.0  0.75805  0.85111  0.44182  1.0000
  S   S736      1.0  0.94025  0.64738  0.31673  1.0000
  H   H2889     1.0  0.78321  0.83194  0.46018  1.0000
  S   S737      1.0  0.74714  0.96644  0.63287  1.0000
  Fe  Fe369     1.0  0.76926  0.59913  0.50572  1.0000
  C   C1810     1.0  0.76970  0.85457  0.42970  1.0000
  C   C1811     1.0  0.75846  0.91603  0.56628  1.0000
  C   C1812     1.0  0.76070  0.54822  0.53690  1.0000
  H   H2890     1.0  0.79796  0.87419  0.41156  1.0000
  H   H2891     1.0  0.77263  0.90942  0.56930  1.0000
  H   H2892     1.0  0.73823  0.92779  0.63178  1.0000
  H   H2893     1.0  0.93260  0.72643  0.49211  1.0000
  H   H2894     1.0  0.78300  0.63282  0.41267  1.0000
  C   C1813     1.0  0.78828  0.52743  0.37763  1.0000
  H   H2895     1.0  0.75991  0.55280  0.52187  1.0000
  H   H2896     1.0  0.94559  0.77186  0.46260  1.0000
  H   H2897     1.0  0.93958  0.69191  0.61342  1.0000
  Fe  Fe370     1.0  0.76863  0.58424  0.33492  1.0000
  C   C1814     1.0  0.95673  0.76316  0.47095  1.0000
  N   N180      1.0  0.88791  0.65749  0.44796  1.0000
  C   C1815     1.0  0.86869  0.66777  0.44455  1.0000
  C   C1816     1.0  0.90264  0.66885  0.43693  1.0000
  C   C1817     1.0  0.89144  0.63861  0.44177  1.0000
  C   C1818     1.0  0.88881  0.65475  0.46854  1.0000
  H   H2898     1.0  0.85722  0.65943  0.45233  1.0000
  H   H2899     1.0  0.86763  0.67062  0.42906  1.0000
  H   H2900     1.0  0.86537  0.68187  0.44949  1.0000
  H   H2901     1.0  0.91734  0.66154  0.43911  1.0000
  H   H2902     1.0  0.90230  0.67130  0.42131  1.0000
  H   H2903     1.0  0.90040  0.68322  0.44120  1.0000
  H   H2904     1.0  0.89077  0.64033  0.42627  1.0000
  H   H2905     1.0  0.88057  0.62966  0.44981  1.0000
  H   H2906     1.0  0.90585  0.63045  0.44405  1.0000
  H   H2907     1.0  0.87770  0.64648  0.47738  1.0000
  H   H2908     1.0  0.88630  0.66881  0.47356  1.0000
  H   H2909     1.0  0.90305  0.64694  0.47176  1.0000
  N   N181      1.0  0.78752  0.85502  0.43656  1.0000
  H   H2910     1.0  0.94026  0.77069  0.50619  1.0000
  S   S738      1.0  0.74333  0.85121  0.52944  1.0000
  H   H2911     1.0  0.81478  0.51310  0.60758  1.0000
  H   H2912     1.0  0.76457  0.54863  0.40217  1.0000
  Fe  Fe371     1.0  0.97999  0.74609  0.60585  1.0000
  H   H2913     1.0  0.74154  0.54418  0.37324  1.0000
  H   H2914     1.0  0.95582  0.70854  0.61060  1.0000
  H   H2915     1.0  0.79722  0.82448  0.43868  1.0000
  H   H2916     1.0  0.82258  0.53615  0.56655  1.0000
  H   H2917     1.0  0.77840  0.88426  0.44137  1.0000
  C   C1819     1.0  0.75750  0.60216  0.41376  1.0000
  S   S739      1.0  0.75733  0.63059  0.50517  1.0000
  C   C1820     1.0  0.80251  0.85986  0.42008  1.0000
  C   C1821     1.0  0.79414  0.83598  0.44754  1.0000
  C   C1822     1.0  0.76122  0.59516  0.38147  1.0000
  N   N182      1.0  0.76731  0.52839  0.38332  1.0000
  H   H2918     1.0  0.79260  0.54150  0.37718  1.0000
  C   C1823     1.0  0.74947  0.90748  0.55538  1.0000
  C   C1824     1.0  0.80645  0.51260  0.59635  1.0000
  H   H2919     1.0  0.81650  0.50019  0.55217  1.0000
  H   H2920     1.0  0.93099  0.71740  0.60986  1.0000
  H   H2921     1.0  0.74547  0.53496  0.40713  1.0000
  C   C1825     1.0  0.96269  0.64707  0.32287  1.0000
  C   C1826     1.0  0.80745  0.50552  0.56496  1.0000
  N   N183      1.0  0.80644  0.70323  0.53580  1.0000
  C   C1827     1.0  0.78612  0.71256  0.53846  1.0000
  C   C1828     1.0  0.81597  0.71057  0.51645  1.0000
  C   C1829     1.0  0.80767  0.68219  0.53805  1.0000
  C   C1830     1.0  0.81609  0.70764  0.55015  1.0000
  H   H2922     1.0  0.77844  0.70743  0.55295  1.0000
  H   H2923     1.0  0.77848  0.70953  0.52779  1.0000
  H   H2924     1.0  0.78485  0.72847  0.53675  1.0000
  H   H2925     1.0  0.83144  0.70423  0.51425  1.0000
  H   H2926     1.0  0.80945  0.70708  0.50520  1.0000
  H   H2927     1.0  0.81501  0.72645  0.51401  1.0000
  H   H2928     1.0  0.80022  0.67614  0.55232  1.0000
  H   H2929     1.0  0.82288  0.67477  0.53660  1.0000
  H   H2930     1.0  0.80120  0.67826  0.52697  1.0000
  H   H2931     1.0  0.83147  0.70078  0.54851  1.0000
  H   H2932     1.0  0.80924  0.70245  0.56496  1.0000
  H   H2933     1.0  0.81571  0.72340  0.54865  1.0000
  N   N184      1.0  0.94824  0.74985  0.48730  1.0000
  Fe  Fe372     1.0  0.78427  0.54738  0.31863  1.0000
  H   H2934     1.0  0.79899  0.51968  0.55985  1.0000
  C   C1831     1.0  0.76235  0.50934  0.38394  1.0000
  Fe  Fe373     1.0  0.73839  0.62660  0.48584  1.0000
  H   H2935     1.0  0.92216  0.76998  0.49262  1.0000
  Fe  Fe374     1.0  0.80675  0.58059  0.30824  1.0000
  C   C1832     1.0  0.85541  0.61560  0.30865  1.0000
  S   S740      1.0  0.75157  0.59741  0.36037  1.0000
  C   C1833     1.0  0.98265  0.65445  0.34275  1.0000
  H   H2936     1.0  0.76952  0.49814  0.39443  1.0000
  H   H2937     1.0  0.80743  0.83589  0.45318  1.0000
  C   C1834     1.0  0.93375  0.76100  0.50017  1.0000
  S   S741      1.0  0.78461  0.51541  0.32777  1.0000
  C   C1835     1.0  0.97917  0.63755  0.31255  1.0000
  C   C1836     1.0  0.75580  0.53033  0.54642  1.0000
  H   H2938     1.0  0.79778  0.66862  0.38809  1.0000
  H   H2939     1.0  0.97465  0.72984  0.48864  1.0000
  H   H2940     1.0  0.94942  0.72825  0.47027  1.0000
  Fe  Fe375     1.0  0.89088  0.70621  0.31551  1.0000
  C   C1837     1.0  0.75706  0.52393  0.56587  1.0000
  H   H2941     1.0  0.83720  0.64407  0.38020  1.0000
  C   C1838     1.0  0.79762  0.63539  0.41301  1.0000
  H   H2942     1.0  0.78478  0.65353  0.38047  1.0000
  H   H2943     1.0  0.79593  0.64802  0.42022  1.0000
  H   H2944     1.0  0.80448  0.62263  0.42229  1.0000
  H   H2945     1.0  0.76857  0.52385  0.41334  1.0000
  H   H2946     1.0  0.81611  0.86034  0.42486  1.0000
  S   S742      1.0  0.74401  0.84408  0.48562  1.0000
  H   H2947     1.0  0.77191  0.84367  0.42027  1.0000
  C   C1839     1.0  0.81075  0.62127  0.38471  1.0000
  C   C1840     1.0  0.79935  0.65542  0.38182  1.0000
  C   C1841     1.0  0.83793  0.60877  0.31212  1.0000
  N   N185      1.0  0.80901  0.63840  0.39358  1.0000
  S   S743      1.0  0.78487  0.58763  0.43729  1.0000
  H   H2948     1.0  0.81696  0.60797  0.39377  1.0000
  S   S744      1.0  0.76099  0.94213  0.58812  1.0000
  H   H2949     1.0  0.82017  0.62257  0.37049  1.0000
  H   H2950     1.0  0.80769  0.65815  0.36711  1.0000
  Fe  Fe376     1.0  0.77155  0.60333  0.46224  1.0000
  C   C1842     1.0  0.82834  0.64153  0.39470  1.0000
  H   H2951     1.0  0.82758  0.65433  0.40137  1.0000
  C   C1843     1.0  0.77536  0.59091  0.41600  1.0000
  C   C1844     1.0  0.74933  0.93296  0.57331  1.0000
  C   C1845     1.0  0.78374  0.86971  0.44898  1.0000
  S   S745      1.0  0.75587  0.56718  0.31937  1.0000
  H   H2952     1.0  0.83616  0.62889  0.40328  1.0000
  H   H2953     1.0  0.75123  0.52127  0.53861  1.0000
  H   H2954     1.0  0.79703  0.49551  0.57126  1.0000
  H   H2955     1.0  0.84131  0.48367  0.57139  1.0000
  C   C1846     1.0  0.94110  0.70571  0.61708  1.0000
  H   H2956     1.0  0.98393  0.66091  0.35456  1.0000
  Fe  Fe377     1.0  0.75855  0.48283  0.60515  1.0000
  C   C1847     1.0  0.76122  0.53415  0.40234  1.0000
  C   C1848     1.0  0.83139  0.48833  0.58408  1.0000
  S   S746      1.0  0.74927  0.59473  0.48754  1.0000
  H   H2957     1.0  0.76692  0.50468  0.36970  1.0000
  C   C1849     1.0  0.75740  0.54268  0.36924  1.0000
  H   H2958     1.0  0.95462  0.72667  0.63616  1.0000
  H   H2959     1.0  0.97055  0.74775  0.50373  1.0000
  H   H2960     1.0  0.74660  0.50956  0.38793  1.0000
  C   C1850     1.0  0.78589  0.48235  0.31391  1.0000
  S   S747      1.0  0.97569  0.75585  0.63432  1.0000
  H   H2961     1.0  0.92995  0.73603  0.63516  1.0000
  N   N186      1.0  0.93749  0.70521  0.63797  1.0000
  H   H2962     1.0  0.73728  0.60864  0.54304  1.0000
  H   H2963     1.0  0.73645  0.61264  0.39506  1.0000
  H   H2964     1.0  0.95037  0.85392  0.74823  1.0000
  H   H2965     1.0  0.80580  0.96477  0.68867  1.0000
  C   C1851     1.0  0.79265  0.97859  0.82098  1.0000
  H   H2966     1.0  0.84808  0.56184  0.77680  1.0000
  S   S748      1.0  0.96619  0.61124  0.74820  1.0000
  H   H2967     1.0  0.91542  0.68788  0.64317  1.0000
  N   N187      1.0  0.76145  0.87539  0.94408  1.0000
  H   H2968     1.0  0.93750  0.72401  0.65756  1.0000
  H   H2969     1.0  0.78603  0.48564  0.79561  1.0000
  S   S749      1.0  0.95613  0.55578  0.76554  1.0000
  C   C1852     1.0  0.87941  0.55450  0.79387  1.0000
  S   S750      1.0  0.96374  0.69537  0.91493  1.0000
  H   H2970     1.0  0.85248  0.53935  0.76827  1.0000
  H   H2971     1.0  0.91459  0.70140  0.66166  1.0000
  S   S751      1.0  0.97026  0.89598  0.75499  1.0000
  C   C1853     1.0  0.98313  0.65772  0.70333  1.0000
  H   H2972     1.0  0.96756  0.79599  0.80829  1.0000
  C   C1854     1.0  0.82327  0.48808  0.69071  1.0000
  H   H2973     1.0  0.78496  0.97082  0.83360  1.0000
  H   H2974     1.0  0.90038  0.55458  0.75920  1.0000
  H   H2975     1.0  0.76463  0.89787  0.95805  1.0000
  H   H2976     1.0  0.85141  0.65865  0.95834  1.0000
  Fe  Fe378     1.0  0.88833  0.50152  0.72997  1.0000
  S   S752      1.0  0.90722  0.52453  0.71796  1.0000
  H   H2977     1.0  0.76840  0.51290  0.75128  1.0000
  S   S753      1.0  0.82396  0.49553  0.71221  1.0000
  S   S754      1.0  0.84465  0.49991  0.79195  1.0000
  S   S755      1.0  0.85703  0.51180  0.73938  1.0000
  H   H2978     1.0  0.93222  0.88569  0.73742  1.0000
  S   S756      1.0  0.97732  0.71227  0.86163  1.0000
  S   S757      1.0  0.83284  0.96569  0.77564  1.0000
  H   H2979     1.0  0.90058  0.52293  0.78249  1.0000
  H   H2980     1.0  0.96700  0.87671  0.72428  1.0000
  C   C1855     1.0  0.81351  0.49862  0.82058  1.0000
  C   C1856     1.0  0.81570  0.97853  0.79136  1.0000
  H   H2981     1.0  0.76623  0.48850  0.75123  1.0000
  H   H2982     1.0  0.81434  0.51340  0.82072  1.0000
  H   H2983     1.0  0.78918  0.49767  0.84350  1.0000
  H   H2984     1.0  0.93349  0.84216  0.74182  1.0000
  C   C1857     1.0  0.97629  0.65389  0.81901  1.0000
  H   H2985     1.0  0.88364  0.51737  0.77025  1.0000
  C   C1858     1.0  0.88505  0.52467  0.78190  1.0000
  H   H2986     1.0  0.80729  0.95303  0.80969  1.0000
  S   S758      1.0  0.97192  0.63275  0.79313  1.0000
  S   S759      1.0  0.74446  0.95672  0.91991  1.0000
  C   C1859     1.0  0.74037  0.52674  0.93447  1.0000
  H   H2987     1.0  0.87319  0.54746  0.80830  1.0000
  Fe  Fe379     1.0  0.85114  0.48944  0.72496  1.0000
  C   C1860     1.0  0.87004  0.97063  0.67390  1.0000
  S   S760      1.0  0.91326  0.95810  0.70794  1.0000
  C   C1861     1.0  0.75723  0.55194  0.94902  1.0000
  C   C1862     1.0  0.76350  0.54827  0.93023  1.0000
  H   H2988     1.0  0.79512  0.51951  0.76474  1.0000
  H   H2989     1.0  0.97994  0.66935  0.84033  1.0000
  S   S761      1.0  0.74256  0.50568  0.86703  1.0000
  H   H2990     1.0  0.78934  0.87747  0.92733  1.0000
  C   C1863     1.0  0.84002  0.48177  0.67856  1.0000
  H   H2991     1.0  0.76014  0.53311  0.90849  1.0000
  S   S762      1.0  0.97299  0.76570  0.84041  1.0000
  C   C1864     1.0  0.94655  0.70727  0.93177  1.0000
  C   C1865     1.0  0.94767  0.72545  0.93498  1.0000
  C   C1866     1.0  0.93305  0.73484  0.94761  1.0000
  C   C1867     1.0  0.79923  0.48976  0.83347  1.0000
  C   C1868     1.0  0.91655  0.70760  0.95476  1.0000
  C   C1869     1.0  0.93107  0.69827  0.94196  1.0000
  H   H2992     1.0  0.95989  0.73220  0.92788  1.0000
  H   H2993     1.0  0.96864  0.68609  0.70772  1.0000
  H   H2994     1.0  0.87816  0.51672  0.79555  1.0000
  H   H2995     1.0  0.93036  0.68404  0.93986  1.0000
  C   C1870     1.0  0.74744  0.97559  0.80749  1.0000
  S   S763      1.0  0.78746  0.97326  0.65585  1.0000
  H   H2996     1.0  0.77488  0.55520  0.92118  1.0000
  H   H2997     1.0  0.77998  0.84810  0.94906  1.0000
  H   H2998     1.0  0.75285  0.93477  0.95567  1.0000
  H   H2999     1.0  0.98433  0.73057  0.79788  1.0000
  C   C1871     1.0  0.93987  0.72381  0.64193  1.0000
  C   C1872     1.0  0.94424  0.54649  0.75111  1.0000
  C   C1873     1.0  0.93723  0.52915  0.75850  1.0000
  C   C1874     1.0  0.92648  0.52188  0.74821  1.0000
  C   C1875     1.0  0.92234  0.53206  0.73052  1.0000
  C   C1876     1.0  0.92972  0.54918  0.72291  1.0000
  C   C1877     1.0  0.94064  0.55636  0.73312  1.0000
  H   H3000     1.0  0.94010  0.52131  0.77231  1.0000
  H   H3001     1.0  0.92126  0.50849  0.75405  1.0000
  H   H3002     1.0  0.92670  0.55711  0.70918  1.0000
  H   H3003     1.0  0.94590  0.56973  0.72726  1.0000
  C   C1878     1.0  0.76597  0.88199  0.96042  1.0000
  H   H3004     1.0  0.95066  0.84464  0.69965  1.0000
  C   C1879     1.0  0.73873  0.93278  0.95439  1.0000
  H   H3005     1.0  0.93398  0.74897  0.94989  1.0000
  H   H3006     1.0  0.96256  0.65043  0.82655  1.0000
  C   C1880     1.0  0.98217  0.79432  0.81064  1.0000
  H   H3007     1.0  0.87798  0.57006  0.75669  1.0000
  C   C1881     1.0  0.98467  0.68659  0.67919  1.0000
  C   C1882     1.0  0.80526  0.96856  0.80746  1.0000
  H   H3008     1.0  0.79237  0.49387  0.69481  1.0000
  C   C1883     1.0  0.95127  0.68963  0.64696  1.0000
  C   C1884     1.0  0.80417  0.48389  0.66816  1.0000
  H   H3009     1.0  0.86276  0.96034  0.66962  1.0000
  H   H3010     1.0  0.88730  0.63156  0.97018  1.0000
  N   N188      1.0  0.87615  0.54515  0.77874  1.0000
  C   C1885     1.0  0.92933  0.94127  0.72114  1.0000
  C   C1886     1.0  0.94605  0.93139  0.71140  1.0000
  C   C1887     1.0  0.95898  0.91774  0.72152  1.0000
  C   C1888     1.0  0.95506  0.91358  0.74148  1.0000
  C   C1889     1.0  0.93841  0.92352  0.75119  1.0000
  C   C1890     1.0  0.92561  0.93732  0.74110  1.0000
  H   H3011     1.0  0.94910  0.93450  0.69596  1.0000
  H   H3012     1.0  0.97198  0.91057  0.71387  1.0000
  H   H3013     1.0  0.93529  0.92047  0.76663  1.0000
  H   H3014     1.0  0.91279  0.94478  0.74877  1.0000
  C   C1891     1.0  0.80267  0.50481  0.76283  1.0000
  C   C1892     1.0  0.77391  0.88269  0.92638  1.0000
  C   C1893     1.0  0.80538  0.48903  0.68548  1.0000
  H   H3015     1.0  0.88978  0.95766  0.64234  1.0000
  H   H3016     1.0  0.91483  0.87451  0.73108  1.0000
  N   N189      1.0  0.87833  0.66217  0.96462  1.0000
  C   C1894     1.0  0.75516  0.53574  0.92297  1.0000
  H   H3017     1.0  0.88337  0.54755  0.74815  1.0000
  C   C1895     1.0  0.76484  0.85415  0.94732  1.0000
  H   H3018     1.0  0.87474  0.67678  0.93626  1.0000
  S   S764      1.0  0.85822  0.97435  0.72248  1.0000
  C   C1896     1.0  0.74261  0.54274  0.96057  1.0000
  H   H3019     1.0  0.87960  0.96237  0.68415  1.0000
  C   C1897     1.0  0.85533  0.54662  0.77933  1.0000
  C   C1898     1.0  0.96223  0.87185  0.71269  1.0000
  C   C1899     1.0  0.74113  0.88278  0.94221  1.0000
  H   H3020     1.0  0.92663  0.89190  0.71373  1.0000
  N   N190      1.0  0.78903  0.49145  0.76495  1.0000
  H   H3021     1.0  0.84831  0.53954  0.79339  1.0000
  N   N191      1.0  0.92750  0.75275  0.88567  1.0000
  C   C1900     1.0  0.92024  0.77308  0.87844  1.0000
  C   C1901     1.0  0.91408  0.74545  0.90261  1.0000
  C   C1902     1.0  0.94647  0.75128  0.89103  1.0000
  C   C1903     1.0  0.92935  0.74115  0.87058  1.0000
  H   H3022     1.0  0.91892  0.78224  0.88943  1.0000
  H   H3023     1.0  0.90589  0.77482  0.87428  1.0000
  H   H3024     1.0  0.93014  0.77888  0.86560  1.0000
  H   H3025     1.0  0.91925  0.73012  0.90833  1.0000
  H   H3026     1.0  0.91256  0.75367  0.91444  1.0000
  H   H3027     1.0  0.89955  0.74643  0.89919  1.0000
  H   H3028     1.0  0.95298  0.73601  0.89526  1.0000
  H   H3029     1.0  0.94555  0.75886  0.90318  1.0000
  H   H3030     1.0  0.95665  0.75771  0.87895  1.0000
  H   H3031     1.0  0.93467  0.72569  0.87567  1.0000
  H   H3032     1.0  0.93974  0.74603  0.85775  1.0000
  H   H3033     1.0  0.91538  0.74213  0.86590  1.0000
  H   H3034     1.0  0.75572  0.84822  0.96061  1.0000
  C   C1904     1.0  0.88889  0.64408  0.95843  1.0000
  C   C1905     1.0  0.89597  0.96831  0.64733  1.0000
  Fe  Fe380     1.0  0.97488  0.57924  0.75677  1.0000
  H   H3035     1.0  0.78087  0.87581  0.96292  1.0000
  H   H3036     1.0  0.85387  0.48106  0.68247  1.0000
  H   H3037     1.0  0.77088  0.87800  0.91374  1.0000
  C   C1906     1.0  0.88078  0.67840  0.94869  1.0000
  C   C1907     1.0  0.91737  0.72602  0.95748  1.0000
  C   C1908     1.0  0.77667  0.49827  0.75013  1.0000
  H   H3038     1.0  0.95857  0.83676  0.73232  1.0000
  C   C1909     1.0  0.88481  0.55476  0.75989  1.0000
  C   C1910     1.0  0.85773  0.66090  0.97033  1.0000
  H   H3039     1.0  0.89505  0.55367  0.79368  1.0000
  H   H3040     1.0  0.87283  0.56996  0.79200  1.0000
  N   N192      1.0  0.94418  0.86414  0.71975  1.0000
  C   C1911     1.0  0.92875  0.87971  0.72574  1.0000
  C   C1912     1.0  0.93918  0.85645  0.70434  1.0000
  C   C1913     1.0  0.94673  0.84856  0.73627  1.0000
  H   H3041     1.0  0.92560  0.85049  0.70910  1.0000
  C   C1914     1.0  0.82677  0.48841  0.80768  1.0000
  S   S765      1.0  0.74381  0.97066  0.86289  1.0000
  Fe  Fe381     1.0  0.98360  0.61460  0.76966  1.0000
  H   H3042     1.0  0.79026  0.48476  0.66428  1.0000
  H   H3043     1.0  0.77165  0.89871  0.92355  1.0000
  H   H3044     1.0  0.98105  0.79477  0.69487  1.0000
  H   H3045     1.0  0.94910  0.68902  0.66272  1.0000
  H   H3046     1.0  0.90472  0.70065  0.96255  1.0000
  H   H3047     1.0  0.76166  0.84856  0.93531  1.0000
  C   C1915     1.0  0.91773  0.70180  0.64592  1.0000
  H   H3048     1.0  0.78535  0.49901  0.73549  1.0000
  H   H3049     1.0  0.81179  0.50600  0.74846  1.0000
  H   H3050     1.0  0.93737  0.86778  0.69157  1.0000
  S   S766      1.0  0.76767  0.56855  0.95713  1.0000
  H   H3051     1.0  0.87341  0.69234  0.95310  1.0000
  H   H3052     1.0  0.73836  0.89874  0.93860  1.0000
  H   H3053     1.0  0.73812  0.96451  0.80956  1.0000
  H   H3054     1.0  0.88352  0.64123  0.94609  1.0000
  H   H3055     1.0  0.94998  0.67532  0.64432  1.0000
  H   H3056     1.0  0.76870  0.50497  0.78634  1.0000
  Fe  Fe382     1.0  0.98588  0.70769  0.89067  1.0000
  C   C1916     1.0  0.80827  0.97891  0.68127  1.0000
  Fe  Fe383     1.0  0.85934  0.48853  0.76487  1.0000
  Fe  Fe384     1.0  0.88841  0.97763  0.72287  1.0000
  H   H3057     1.0  0.89619  0.67947  0.94365  1.0000
  H   H3058     1.0  0.81251  0.49986  0.77347  1.0000
  H   H3059     1.0  0.90451  0.64453  0.95402  1.0000
  H   H3060     1.0  0.97400  0.86080  0.70720  1.0000
  H   H3061     1.0  0.96064  0.88426  0.70083  1.0000
  S   S767      1.0  0.97706  0.71138  0.67236  1.0000
  C   C1917     1.0  0.98424  0.64733  0.80167  1.0000
  C   C1918     1.0  0.77707  0.49061  0.78413  1.0000
  H   H3062     1.0  0.86085  0.97697  0.82043  1.0000
  C   C1919     1.0  0.97792  0.67762  0.69769  1.0000
  H   H3063     1.0  0.97786  0.65091  0.71763  1.0000
  H   H3064     1.0  0.76265  0.96838  0.80481  1.0000
  H   H3065     1.0  0.73763  0.97270  0.77453  1.0000
  H   H3066     1.0  0.90616  0.96019  0.65703  1.0000
  H   H3067     1.0  0.96634  0.69184  0.64139  1.0000
  H   H3068     1.0  0.73688  0.87720  0.93074  1.0000
  H   H3069     1.0  0.98413  0.75578  0.79700  1.0000
  H   H3070     1.0  0.76192  0.97706  0.77015  1.0000
  S   S768      1.0  0.88223  0.48115  0.71280  1.0000
  H   H3071     1.0  0.90700  0.71337  0.63946  1.0000
  C   C1920     1.0  0.98610  0.66463  0.82684  1.0000
  H   H3072     1.0  0.76668  0.48055  0.78635  1.0000
