data_image0
_chemical_formula_structural       HS2CH2CSHSC7H4NFeHSHCH3SH2SH2FeH2C2SCFeSFeS2FeC3HSH4C6H4C3HFeCH2C2NHCH2C2S2CHSCFeSFeH4CH2CH2CH5NCHFeCHCSH3S4HCH2FeHC2H4C3HC2HSH2CNC2HSC2H3SH5NHNH2C2HCHCHC3HCHFeSH3SCHC2FeCH3FeH2C6H4SC2SHCSH2SC4HFeHSHNHC2SFeH2CFeSC2HCH3CNH5SHFeH6FeH4FeH3SCH4C2HCFeHSHFeCSHNSH2C2H4CH5C3NCH2CSH2SFeCHC2H2CH2CH4CH2FeCH2CSFeS2H4CFe2CHC3FeSH2CS3H3CH4NHCHS2CS2HFeHCH4C2H3C5H2NHCHSH2SHSH4CH2CHNHCHC2H2CH3C3H2CNCHFeS2H2S2H4C6SH4FeHCH3CFeNH2Fe2SC4H4C6SH3C2HSHSHCH2SH3C2H4SHCHCH8CHNHCH3CHS2CFeHFeHS2H2FeSFeH2SH2FeS2CHSCSFeH3CH4C4H5CHNHCHC3HCHFeSC2HC2H2SNCFeCH4C6H5C2HSC2H4SHCHFeCSHNSCH5C2H2C2H4SH2SFeH2C5H3NCFeSH2CH2CHCHS3CNC4H2FeH3FeCSCHCSH7CH2CH6FeHCHCSHCHC3H2CFeHFeHCHCSC2HCFeHCH5CSHSC3S2NH3CH4FeHSCHCSH3CH3CHFeC3H3CH2SHCH2C2H2C4HSHSNFeSFeSC2H3CHSCH4NHFeH4CNSH2CH2NHSHC2SFeSFeSHSFeSC6H4CH2CH2CSH3C2H2S3H2CSCHC2HCH2CH7NC6NCHCSCHFeHNH5SH2C2H2CH3CH3Fe2SFeSH4NH4SHSCSHCHFe2C2H2C2HSHCH2C3SHCH2CH4CH2CHCH2C2HC2H2NHCHFeSHCHCH5C3HSHCH2CHCNC4HSCNCH2FeSH3SFeS2CH3SFeH3CHFeH3C4HC2H2FeH2FeSFe3CHS3HCH3C2H5NC6H4CSH2CHSCS2CH4CSHSHCHCHSH3S2CSHFe2CSHC2HSCH2CH2CHCHCH4SH2CHSHNSC6H5CHFeH5FeNC2H3C4HCHSNH2SH2FeHSH2SNCH2SCH2CHCH2CSCH2FeHC3HSH2C3S2H2C2Fe2H3SH3SH2C2HCSHSCHC2H2CH2C4H2SH3C2HCSFeSNC4H10SH5C2HCSH2CSFeSCSHSH3CSH2FeSC4FeHC2H3C2FeHFeH3SH3C3H2CFeNHC3NHCHSHC2H5CNHCH4CHCNHSH5FeSHCHCH2CH5SC7H6CH3CHC2HNCH2CH5CH3NH2CSCFeCHCHSHSH3C4HC2SH2CS4FeC2H2FeH2C2H2FeC6SH5C2FeHNHFeSH4C2H3CH2SH3NHNSC2H2C2H5CH2
_chemical_formula_sum              "H768 S192 C480 N48 Fe96"
_cell_length_a       54.132
_cell_length_b       55.6109
_cell_length_c       19.6568
_cell_angle_alpha    88.7222
_cell_angle_beta     88.8706
_cell_angle_gamma    89.5565

_space_group_name_H-M_alt    "P 1"
_space_group_IT_number       1

loop_
  _space_group_symop_operation_xyz
  'x, y, z'

loop_
  _atom_site_type_symbol
  _atom_site_label
  _atom_site_symmetry_multiplicity
  _atom_site_fract_x
  _atom_site_fract_y
  _atom_site_fract_z
  _atom_site_occupancy
  H   H1        1.0  0.13781  0.23689  0.18042  1.0000
  S   S1        1.0  0.22943  0.08486  0.52616  1.0000
  S   S2        1.0  0.23633  0.16699  0.20805  1.0000
  C   C1        1.0  0.26136  0.07836  0.27888  1.0000
  H   H2        1.0  0.23937  0.06068  0.16946  1.0000
  H   H3        1.0  0.25913  0.09775  0.26474  1.0000
  C   C2        1.0  0.17476  0.20938  0.13170  1.0000
  S   S3        1.0  0.29767  0.20340  0.15161  1.0000
  H   H4        1.0  0.22792  0.07470  0.38041  1.0000
  S   S4        1.0  0.29299  0.11138  0.44202  1.0000
  C   C3        1.0  0.10857  0.29386  0.74832  1.0000
  C   C4        1.0  0.25222  0.15229  0.27405  1.0000
  C   C5        1.0  0.27799  0.15042  0.27194  1.0000
  C   C6        1.0  0.29038  0.13823  0.32453  1.0000
  C   C7        1.0  0.27704  0.12762  0.37894  1.0000
  C   C8        1.0  0.25127  0.12950  0.38115  1.0000
  C   C9        1.0  0.23888  0.14188  0.32880  1.0000
  H   H5        1.0  0.28838  0.15819  0.22954  1.0000
  H   H6        1.0  0.31033  0.13680  0.32254  1.0000
  H   H7        1.0  0.24088  0.12166  0.42336  1.0000
  H   H8        1.0  0.21894  0.14348  0.33077  1.0000
  N   N1        1.0  0.23749  0.06564  0.27763  1.0000
  Fe  Fe1       1.0  0.27041  0.08587  0.50756  1.0000
  H   H9        1.0  0.22367  0.08766  0.19529  1.0000
  S   S5        1.0  0.28563  0.27355  0.12466  1.0000
  H   H10       1.0  0.20877  0.05902  0.20660  1.0000
  C   C10       1.0  0.17542  0.23910  0.04009  1.0000
  H   H11       1.0  0.16291  0.19694  0.10325  1.0000
  H   H12       1.0  0.21838  0.16375  0.82184  1.0000
  H   H13       1.0  0.21640  0.09539  0.31693  1.0000
  S   S6        1.0  0.27959  0.08031  0.61728  1.0000
  H   H14       1.0  0.27507  0.07057  0.24252  1.0000
  H   H15       1.0  0.26953  0.07741  0.33049  1.0000
  S   S7        1.0  0.08177  0.19766  0.83450  1.0000
  H   H16       1.0  0.13108  0.22835  0.09512  1.0000
  H   H17       1.0  0.17139  0.20565  0.18695  1.0000
  Fe  Fe2       1.0  0.23882  0.07522  0.63396  1.0000
  H   H18       1.0  0.16417  0.22750  0.00749  1.0000
  H   H19       1.0  0.14048  0.08216  0.60929  1.0000
  C   C11       1.0  0.22685  0.06834  0.20917  1.0000
  C   C12       1.0  0.10582  0.26880  0.64934  1.0000
  S   S8        1.0  0.29655  0.22301  0.99147  1.0000
  C   C13       1.0  0.10908  0.24817  0.69044  1.0000
  Fe  Fe3       1.0  0.26001  0.20462  0.98532  1.0000
  S   S9        1.0  0.23574  0.20952  0.89461  1.0000
  Fe  Fe4       1.0  0.10695  0.16800  0.86932  1.0000
  S   S10       1.0  0.12517  0.16313  0.76713  1.0000
  S   S11       1.0  0.12947  0.16926  0.96368  1.0000
  Fe  Fe5       1.0  0.09760  0.19044  0.73074  1.0000
  C   C14       1.0  0.23609  0.16046  0.69364  1.0000
  C   C15       1.0  0.20526  0.19119  0.71454  1.0000
  C   C16       1.0  0.21964  0.29036  0.04210  1.0000
  H   H20       1.0  0.17371  0.15493  0.68528  1.0000
  S   S12       1.0  0.10389  0.10145  0.70169  1.0000
  H   H21       1.0  0.20227  0.06644  0.33038  1.0000
  H   H22       1.0  0.18182  0.10417  0.82181  1.0000
  H   H23       1.0  0.20846  0.19939  0.66302  1.0000
  H   H24       1.0  0.21746  0.20053  0.75040  1.0000
  C   C17       1.0  0.15885  0.18070  0.94456  1.0000
  C   C18       1.0  0.16242  0.19692  0.88988  1.0000
  C   C19       1.0  0.18597  0.20636  0.87591  1.0000
  C   C20       1.0  0.20603  0.19917  0.91558  1.0000
  C   C21       1.0  0.20239  0.18319  0.97068  1.0000
  C   C22       1.0  0.17880  0.17398  0.98516  1.0000
  H   H25       1.0  0.14694  0.20251  0.85917  1.0000
  H   H26       1.0  0.18859  0.21932  0.83465  1.0000
  H   H27       1.0  0.21781  0.17751  0.00144  1.0000
  H   H28       1.0  0.17609  0.16133  0.02725  1.0000
  C   C23       1.0  0.14733  0.10242  0.76968  1.0000
  C   C24       1.0  0.11248  0.27327  0.78912  1.0000
  C   C25       1.0  0.14952  0.08667  0.65590  1.0000
  H   H29       1.0  0.19434  0.20440  0.12025  1.0000
  Fe  Fe6       1.0  0.28263  0.23511  0.09297  1.0000
  C   C26       1.0  0.20612  0.15510  0.78488  1.0000
  H   H30       1.0  0.25000  0.26634  0.01994  1.0000
  H   H31       1.0  0.13665  0.10966  0.81173  1.0000
  C   C27       1.0  0.10545  0.29164  0.67829  1.0000
  C   C28       1.0  0.17291  0.09936  0.77527  1.0000
  N   N2        1.0  0.21019  0.16502  0.71519  1.0000
  H   H32       1.0  0.11596  0.23465  0.79185  1.0000
  C   C29       1.0  0.19334  0.15337  0.66787  1.0000
  H   H33       1.0  0.20473  0.24774  0.14472  1.0000
  H   H34       1.0  0.19484  0.16148  0.61572  1.0000
  C   C30       1.0  0.25709  0.28749  0.10792  1.0000
  C   C31       1.0  0.18699  0.09068  0.72048  1.0000
  S   S13       1.0  0.24520  0.21913  0.08295  1.0000
  S   S14       1.0  0.27304  0.16981  0.03259  1.0000
  C   C32       1.0  0.24294  0.28003  0.05355  1.0000
  H   H35       1.0  0.21028  0.13552  0.78760  1.0000
  S   S15       1.0  0.21930  0.09012  0.72559  1.0000
  C   C33       1.0  0.22025  0.07606  0.32841  1.0000
  Fe  Fe7       1.0  0.09503  0.13651  0.75165  1.0000
  S   S16       1.0  0.10719  0.21970  0.65444  1.0000
  Fe  Fe8       1.0  0.30853  0.18955  0.04846  1.0000
  H   H36       1.0  0.24040  0.14080  0.69445  1.0000
  H   H37       1.0  0.18667  0.15774  0.80292  1.0000
  H   H38       1.0  0.13839  0.25909  0.11245  1.0000
  H   H39       1.0  0.18603  0.07750  0.61834  1.0000
  C   C34       1.0  0.17527  0.08414  0.66090  1.0000
  H   H40       1.0  0.18573  0.19512  0.72985  1.0000
  H   H41       1.0  0.19767  0.13392  0.66347  1.0000
  C   C35       1.0  0.11277  0.25045  0.76019  1.0000
  H   H42       1.0  0.11504  0.27494  0.84326  1.0000
  H   H43       1.0  0.17177  0.25815  0.02451  1.0000
  C   C36       1.0  0.13563  0.09622  0.70987  1.0000
  H   H44       1.0  0.18104  0.24767  0.20981  1.0000
  H   H45       1.0  0.18066  0.27006  0.14255  1.0000
  H   H46       1.0  0.20875  0.28438  0.00026  1.0000
  H   H47       1.0  0.24923  0.16915  0.72825  1.0000
  H   H48       1.0  0.23987  0.16746  0.64103  1.0000
  N   N3        1.0  0.16950  0.23480  0.11306  1.0000
  C   C37       1.0  0.18463  0.25074  0.15438  1.0000
  H   H49       1.0  0.19521  0.23513  0.02808  1.0000
  Fe  Fe9       1.0  0.26123  0.18605  0.13170  1.0000
  C   C38       1.0  0.14301  0.24002  0.12589  1.0000
  H   H50       1.0  0.10306  0.26709  0.59528  1.0000
  C   C39       1.0  0.24822  0.30589  0.14945  1.0000
  S   S17       1.0  0.07894  0.13903  0.85736  1.0000
  H   H51       1.0  0.07771  0.08943  0.82169  1.0000
  H   H52       1.0  0.08009  0.05750  0.82864  1.0000
  H   H53       1.0  0.30989  0.05746  0.71177  1.0000
  S   S18       1.0  0.12329  0.41940  0.22912  1.0000
  S   S19       1.0  0.09653  0.40944  0.59582  1.0000
  S   S20       1.0  0.16761  0.41149  0.63241  1.0000
  S   S21       1.0  0.17940  0.37286  0.21181  1.0000
  H   H54       1.0  0.17141  0.31343  0.92202  1.0000
  C   C40       1.0  0.19865  0.39552  0.40065  1.0000
  H   H55       1.0  0.19376  0.42493  0.50677  1.0000
  H   H56       1.0  0.19526  0.34950  0.95050  1.0000
  Fe  Fe10      1.0  0.13057  0.39374  0.64216  1.0000
  H   H57       1.0  0.29209  0.41586  0.26288  1.0000
  C   C41       1.0  0.21063  0.30852  0.08419  1.0000
  C   C42       1.0  0.17891  0.45757  0.66672  1.0000
  H   H58       1.0  0.11382  0.44791  0.91736  1.0000
  H   H59       1.0  0.25886  0.31132  0.19237  1.0000
  H   H60       1.0  0.27373  0.37604  0.04674  1.0000
  H   H61       1.0  0.21513  0.40376  0.37477  1.0000
  C   C43       1.0  0.11079  0.40251  0.29739  1.0000
  C   C44       1.0  0.10208  0.41449  0.35499  1.0000
  C   C45       1.0  0.09167  0.40149  0.41005  1.0000
  H   H62       1.0  0.29419  0.39643  0.08597  1.0000
  C   C46       1.0  0.09760  0.36457  0.34877  1.0000
  C   C47       1.0  0.10904  0.37748  0.29474  1.0000
  H   H63       1.0  0.10344  0.43387  0.35703  1.0000
  S   S22       1.0  0.14707  0.52327  0.63977  1.0000
  H   H64       1.0  0.09544  0.34529  0.34583  1.0000
  H   H65       1.0  0.11566  0.36819  0.25007  1.0000
  C   C48       1.0  0.15725  0.40173  0.44520  1.0000
  N   N4        1.0  0.30190  0.35923  0.10766  1.0000
  C   C49       1.0  0.18802  0.43253  0.45657  1.0000
  C   C50       1.0  0.17166  0.42441  0.34619  1.0000
  H   H66       1.0  0.12376  0.48562  0.56915  1.0000
  S   S23       1.0  0.24184  0.40433  0.23630  1.0000
  C   C51       1.0  0.13912  0.47785  0.59660  1.0000
  C   C52       1.0  0.15423  0.49254  0.63449  1.0000
  H   H67       1.0  0.19227  0.38086  0.36770  1.0000
  H   H68       1.0  0.16217  0.39285  0.49448  1.0000
  H   H69       1.0  0.20476  0.38711  0.44947  1.0000
  S   S24       1.0  0.12287  0.35601  0.61209  1.0000
  H   H70       1.0  0.14223  0.41493  0.45630  1.0000
  H   H71       1.0  0.27849  0.46870  0.87115  1.0000
  H   H72       1.0  0.17348  0.44633  0.46684  1.0000
  H   H73       1.0  0.20425  0.44193  0.43308  1.0000
  H   H74       1.0  0.18747  0.43360  0.31977  1.0000
  N   N5        1.0  0.17889  0.41356  0.41220  1.0000
  H   H75       1.0  0.14939  0.38775  0.41229  1.0000
  N   N6        1.0  0.29487  0.50366  0.85692  1.0000
  H   H76       1.0  0.15641  0.43780  0.35233  1.0000
  H   H77       1.0  0.16499  0.41051  0.31140  1.0000
  C   C53       1.0  0.14376  0.45308  0.59425  1.0000
  C   C54       1.0  0.16329  0.44280  0.63047  1.0000
  H   H78       1.0  0.13241  0.44207  0.56341  1.0000
  C   C55       1.0  0.17428  0.48243  0.66904  1.0000
  H   H79       1.0  0.19533  0.37533  0.89422  1.0000
  C   C56       1.0  0.28212  0.48527  0.89988  1.0000
  H   H80       1.0  0.28903  0.52329  0.76293  1.0000
  C   C57       1.0  0.31983  0.55404  0.65494  1.0000
  C   C58       1.0  0.28734  0.42394  0.21421  1.0000
  C   C59       1.0  0.27999  0.50938  0.79627  1.0000
  H   H81       1.0  0.21079  0.34817  0.86903  1.0000
  C   C60       1.0  0.08961  0.47866  0.83425  1.0000
  H   H82       1.0  0.23870  0.43086  0.10850  1.0000
  Fe  Fe11      1.0  0.18345  0.40791  0.03850  1.0000
  S   S25       1.0  0.18364  0.42338  0.93206  1.0000
  H   H83       1.0  0.15315  0.34921  0.76910  1.0000
  H   H84       1.0  0.21812  0.33051  0.17016  1.0000
  H   H85       1.0  0.26602  0.35600  0.15627  1.0000
  S   S26       1.0  0.22422  0.52928  0.90825  1.0000
  C   C61       1.0  0.27521  0.44479  0.08834  1.0000
  H   H86       1.0  0.18600  0.49365  0.69833  1.0000
  C   C62       1.0  0.29801  0.52567  0.89656  1.0000
  C   C63       1.0  0.12407  0.46432  0.90026  1.0000
  Fe  Fe12      1.0  0.08706  0.37138  0.57440  1.0000
  C   C64       1.0  0.19419  0.35535  0.89612  1.0000
  H   H87       1.0  0.08284  0.48403  0.78289  1.0000
  H   H88       1.0  0.14086  0.44839  0.77990  1.0000
  H   H89       1.0  0.19418  0.44974  0.69442  1.0000
  Fe  Fe13      1.0  0.20910  0.39751  0.17194  1.0000
  H   H90       1.0  0.18634  0.31246  0.83952  1.0000
  H   H91       1.0  0.29104  0.34290  0.20383  1.0000
  C   C65       1.0  0.19601  0.45238  0.92550  1.0000
  C   C66       1.0  0.20730  0.46276  0.98096  1.0000
  C   C67       1.0  0.21599  0.48644  0.97561  1.0000
  C   C68       1.0  0.21315  0.49980  0.91503  1.0000
  C   C69       1.0  0.20214  0.48930  0.85940  1.0000
  C   C70       1.0  0.19386  0.46552  0.86435  1.0000
  H   H92       1.0  0.20930  0.45263  0.02799  1.0000
  H   H93       1.0  0.22463  0.49449  0.01867  1.0000
  H   H94       1.0  0.20011  0.49948  0.81248  1.0000
  H   H95       1.0  0.18541  0.45741  0.82114  1.0000
  S   S27       1.0  0.18100  0.32055  0.07135  1.0000
  C   C71       1.0  0.08893  0.37659  0.40650  1.0000
  C   C72       1.0  0.30547  0.43558  0.17419  1.0000
  S   S28       1.0  0.21519  0.53601  0.71077  1.0000
  H   H96       1.0  0.15327  0.31347  0.84671  1.0000
  C   C73       1.0  0.13043  0.49443  0.81119  1.0000
  S   S29       1.0  0.15117  0.38475  0.06771  1.0000
  H   H97       1.0  0.12094  0.47832  0.93912  1.0000
  H   H98       1.0  0.11540  0.45935  0.73031  1.0000
  S   S30       1.0  0.18363  0.42699  0.13770  1.0000
  C   C74       1.0  0.30091  0.33604  0.07261  1.0000
  C   C75       1.0  0.17014  0.35559  0.79393  1.0000
  C   C76       1.0  0.22511  0.31660  0.13717  1.0000
  C   C77       1.0  0.25722  0.43239  0.12735  1.0000
  H   H99       1.0  0.12447  0.50157  0.76074  1.0000
  Fe  Fe14      1.0  0.17997  0.35880  0.10551  1.0000
  H   H100      1.0  0.14932  0.34966  0.95757  1.0000
  S   S31       1.0  0.11355  0.38924  0.74598  1.0000
  H   H101      1.0  0.14405  0.45957  0.90037  1.0000
  N   N7        1.0  0.17114  0.34700  0.86556  1.0000
  H   H102      1.0  0.27040  0.45281  0.03966  1.0000
  C   C78       1.0  0.14968  0.35665  0.90404  1.0000
  C   C79       1.0  0.29327  0.37871  0.06140  1.0000
  S   S32       1.0  0.10700  0.32206  0.78621  1.0000
  Fe  Fe15      1.0  0.15377  0.40130  0.17017  1.0000
  H   H103      1.0  0.17004  0.37563  0.79011  1.0000
  H   H104      1.0  0.13193  0.35144  0.88101  1.0000
  C   C80       1.0  0.29951  0.44591  0.11105  1.0000
  Fe  Fe16      1.0  0.17507  0.54439  0.69556  1.0000
  S   S33       1.0  0.07353  0.36072  0.47249  1.0000
  C   C81       1.0  0.17057  0.32041  0.86853  1.0000
  C   C82       1.0  0.26334  0.42182  0.19011  1.0000
  H   H105      1.0  0.08541  0.49359  0.86948  1.0000
  C   C83       1.0  0.12097  0.45361  0.78249  1.0000
  H   H106      1.0  0.26140  0.51652  0.81084  1.0000
  H   H107      1.0  0.31509  0.48521  0.20928  1.0000
  H   H108      1.0  0.15056  0.49042  0.80668  1.0000
  C   C84       1.0  0.28581  0.35815  0.16929  1.0000
  N   N8        1.0  0.11629  0.47278  0.83207  1.0000
  H   H109      1.0  0.08496  0.41087  0.45414  1.0000
  H   H110      1.0  0.18624  0.34901  0.76347  1.0000
  H   H111      1.0  0.27709  0.49321  0.76520  1.0000
  H   H112      1.0  0.26404  0.49212  0.91926  1.0000
  H   H113      1.0  0.11021  0.43724  0.79643  1.0000
  S   S34       1.0  0.21218  0.38091  0.06942  1.0000
  H   H114      1.0  0.15005  0.37668  0.90525  1.0000
  Fe  Fe17      1.0  0.10225  0.35289  0.71188  1.0000
  H   H115      1.0  0.31302  0.33604  0.02623  1.0000
  H   H116      1.0  0.30831  0.52181  0.94405  1.0000
  H   H117      1.0  0.29319  0.48002  0.94507  1.0000
  H   H118      1.0  0.12803  0.50906  0.84846  1.0000
  H   H119      1.0  0.30848  0.53957  0.86669  1.0000
  H   H120      1.0  0.30484  0.37990  0.01403  1.0000
  Fe  Fe18      1.0  0.20831  0.54846  0.81713  1.0000
  H   H121      1.0  0.30697  0.32090  0.10647  1.0000
  H   H122      1.0  0.28704  0.37483  0.19897  1.0000
  H   H123      1.0  0.30901  0.49336  0.29603  1.0000
  H   H124      1.0  0.28177  0.33196  0.05676  1.0000
  Fe  Fe19      1.0  0.07875  0.40228  0.69765  1.0000
  H   H125      1.0  0.27978  0.53369  0.91137  1.0000
  H   H126      1.0  0.07635  0.55530  0.66122  1.0000
  H   H127      1.0  0.29493  0.55579  0.57049  1.0000
  S   S35       1.0  0.16754  0.55320  0.80438  1.0000
  C   C85       1.0  0.31938  0.49437  0.83526  1.0000
  H   H128      1.0  0.31772  0.47768  0.80559  1.0000
  H   H129      1.0  0.07845  0.46284  0.85164  1.0000
  H   H130      1.0  0.32006  0.53559  0.26611  1.0000
  H   H131      1.0  0.10232  0.30745  0.64654  1.0000
  C   C86       1.0  0.11834  0.76220  0.54173  1.0000
  C   C87       1.0  0.11143  0.58384  0.71008  1.0000
  H   H132      1.0  0.10506  0.62670  0.64531  1.0000
  C   C88       1.0  0.11391  0.79341  0.62479  1.0000
  Fe  Fe20      1.0  0.07669  0.70872  0.61846  1.0000
  H   H133      1.0  0.13015  0.74746  0.52113  1.0000
  S   S36       1.0  0.18127  0.58250  0.66092  1.0000
  H   H134      1.0  0.15732  0.66568  0.59703  1.0000
  Fe  Fe21      1.0  0.22089  0.57509  0.68613  1.0000
  C   C89       1.0  0.30572  0.57408  0.75672  1.0000
  S   S37       1.0  0.11660  0.69922  0.60044  1.0000
  H   H135      1.0  0.09621  0.78581  0.64476  1.0000
  N   N9        1.0  0.13047  0.77441  0.59807  1.0000
  S   S38       1.0  0.15113  0.61934  0.81220  1.0000
  H   H136      1.0  0.12890  0.59414  0.70477  1.0000
  H   H137      1.0  0.26986  0.59099  0.75163  1.0000
  C   C90       1.0  0.10770  0.58346  0.58823  1.0000
  C   C91       1.0  0.12667  0.67745  0.65987  1.0000
  H   H138      1.0  0.14509  0.76517  0.69650  1.0000
  H   H139      1.0  0.16341  0.79476  0.61383  1.0000
  H   H140      1.0  0.12496  0.59408  0.58088  1.0000
  H   H141      1.0  0.09578  0.58727  0.54374  1.0000
  C   C92       1.0  0.14737  0.66310  0.64488  1.0000
  H   H142      1.0  0.07541  0.62007  0.61090  1.0000
  H   H143      1.0  0.11396  0.77498  0.49921  1.0000
  H   H144      1.0  0.11660  0.56441  0.71237  1.0000
  H   H145      1.0  0.12243  0.80317  0.66714  1.0000
  H   H146      1.0  0.17117  0.63429  0.67992  1.0000
  C   C93       1.0  0.15511  0.64521  0.69152  1.0000
  C   C94       1.0  0.15376  0.78539  0.57261  1.0000
  C   C95       1.0  0.29800  0.56096  0.62238  1.0000
  N   N10       1.0  0.09487  0.58939  0.65288  1.0000
  C   C96       1.0  0.08836  0.61528  0.65250  1.0000
  H   H147      1.0  0.10283  0.58864  0.75993  1.0000
  H   H148      1.0  0.32139  0.62524  0.54450  1.0000
  C   C97       1.0  0.28369  0.58054  0.72473  1.0000
  S   S39       1.0  0.25304  0.58341  0.61616  1.0000
  H   H149      1.0  0.10066  0.75379  0.55889  1.0000
  H   H150      1.0  0.14829  0.74195  0.63442  1.0000
  S   S40       1.0  0.21720  0.58711  0.79416  1.0000
  Fe  Fe22      1.0  0.17685  0.59095  0.77150  1.0000
  C   C98       1.0  0.14234  0.64191  0.75357  1.0000
  H   H151      1.0  0.09835  0.68552  0.73462  1.0000
  C   C99       1.0  0.11398  0.67417  0.72198  1.0000
  C   C100      1.0  0.12187  0.65649  0.76882  1.0000
  H   H152      1.0  0.11206  0.65409  0.81699  1.0000
  H   H153      1.0  0.15029  0.79893  0.53121  1.0000
  C   C101      1.0  0.27995  0.57425  0.65727  1.0000
  H   H154      1.0  0.16668  0.77155  0.55197  1.0000
  H   H155      1.0  0.11887  0.74785  0.67316  1.0000
  C   C102      1.0  0.13597  0.75667  0.65299  1.0000
  H   H156      1.0  0.11313  0.56408  0.58729  1.0000
  H   H157      1.0  0.30880  0.57959  0.80830  1.0000
  H   H158      1.0  0.07930  0.62054  0.70137  1.0000
  H   H159      1.0  0.31415  0.61335  0.62803  1.0000
  C   C103      1.0  0.07214  0.57493  0.66064  1.0000
  H   H160      1.0  0.10921  0.80700  0.58458  1.0000
  H   H161      1.0  0.07717  0.99203  0.60588  1.0000
  Fe  Fe23      1.0  0.09424  0.89269  0.63538  1.0000
  C   C104      1.0  0.21004  0.96382  0.54673  1.0000
  H   H162      1.0  0.12013  0.00111  0.64687  1.0000
  H   H163      1.0  0.08411  0.89253  0.80958  1.0000
  C   C105      1.0  0.18749  0.95324  0.53146  1.0000
  S   S41       1.0  0.11969  0.91749  0.68710  1.0000
  Fe  Fe24      1.0  0.08762  0.92648  0.51446  1.0000
  S   S42       1.0  0.23979  0.03540  0.61982  1.0000
  S   S43       1.0  0.20659  0.02734  0.44326  1.0000
  H   H164      1.0  0.16627  0.99561  0.41874  1.0000
  H   H165      1.0  0.15496  0.95602  0.47036  1.0000
  H   H166      1.0  0.12404  0.02995  0.68441  1.0000
  H   H167      1.0  0.18406  0.01903  0.59573  1.0000
  C   C106      1.0  0.16507  0.98341  0.67557  1.0000
  Fe  Fe25      1.0  0.09264  0.94584  0.65672  1.0000
  Fe  Fe26      1.0  0.28000  0.04103  0.59450  1.0000
  C   C107      1.0  0.17200  0.96449  0.48410  1.0000
  H   H168      1.0  0.18536  0.98133  0.66680  1.0000
  C   C108      1.0  0.21645  0.98622  0.51763  1.0000
  C   C109      1.0  0.20048  0.99791  0.47241  1.0000
  C   C110      1.0  0.17857  0.98673  0.45422  1.0000
  Fe  Fe27      1.0  0.13677  0.92402  0.58385  1.0000
  S   S44       1.0  0.17801  0.92718  0.57637  1.0000
  H   H169      1.0  0.23370  0.99446  0.53060  1.0000
  H   H170      1.0  0.22221  0.95504  0.58275  1.0000
  C   C111      1.0  0.13048  0.01087  0.68597  1.0000
  S   S45       1.0  0.11172  0.95494  0.55755  1.0000
  S   S46       1.0  0.11418  0.89592  0.53440  1.0000
  S   S47       1.0  0.31073  0.01589  0.62616  1.0000
  H   H171      1.0  0.15796  0.03890  0.60235  1.0000
  H   H172      1.0  0.15465  0.01007  0.56476  1.0000
  H   H173      1.0  0.19086  0.02188  0.71762  1.0000
  C   C112      1.0  0.16379  0.01974  0.60627  1.0000
  H   H174      1.0  0.15585  0.97313  0.63545  1.0000
  H   H175      1.0  0.16029  0.97451  0.72528  1.0000
  H   H176      1.0  0.16692  0.01374  0.77835  1.0000
  H   H177      1.0  0.25422  0.03122  0.25684  1.0000
  N   N11       1.0  0.15745  0.00900  0.67376  1.0000
  H   H178      1.0  0.12496  0.00293  0.73643  1.0000
  C   C113      1.0  0.17049  0.02198  0.72705  1.0000
  H   H179      1.0  0.16442  0.04111  0.72905  1.0000
  S   S48       1.0  0.08044  0.97051  0.73926  1.0000
  S   S49       1.0  0.08165  0.86034  0.69592  1.0000
  C   C114      1.0  0.07955  0.90852  0.84070  1.0000
  S   S50       1.0  0.07337  0.93108  0.40812  1.0000
  S   S51       1.0  0.27392  0.04692  0.48280  1.0000
  H   H180      1.0  0.22372  0.02975  0.29486  1.0000
  Fe  Fe28      1.0  0.23371  0.04521  0.51012  1.0000
  H   H181      1.0  0.08751  0.92453  0.81349  1.0000
  C   C115      1.0  0.24144  0.03984  0.29418  1.0000
  H   H182      1.0  0.07743  0.85720  0.55013  1.0000
  H   H183      1.0  0.24943  0.03721  0.34562  1.0000
  H   H184      1.0  0.08925  0.90631  0.88982  1.0000
  H   H185      1.0  0.36964  0.11578  0.90270  1.0000
  C   C116      1.0  0.36395  0.18590  0.14434  1.0000
  C   C117      1.0  0.39239  0.25823  0.13918  1.0000
  H   H186      1.0  0.34551  0.18351  0.16504  1.0000
  H   H187      1.0  0.36326  0.29765  0.14188  1.0000
  H   H188      1.0  0.37837  0.19893  0.23804  1.0000
  C   C118      1.0  0.56805  0.29552  0.66024  1.0000
  C   C119      1.0  0.57069  0.21681  0.32507  1.0000
  C   C120      1.0  0.57020  0.11325  0.67258  1.0000
  C   C121      1.0  0.38264  0.19433  0.18588  1.0000
  C   C122      1.0  0.40661  0.19754  0.15947  1.0000
  H   H189      1.0  0.40728  0.24712  0.11554  1.0000
  H   H190      1.0  0.42368  0.13451  0.90363  1.0000
  N   N12       1.0  0.35777  0.08401  0.52193  1.0000
  H   H191      1.0  0.35652  0.11401  0.58927  1.0000
  C   C123      1.0  0.36432  0.09886  0.46101  1.0000
  H   H192      1.0  0.40143  0.27398  0.16166  1.0000
  S   S52       1.0  0.39542  0.07121  0.77004  1.0000
  H   H193      1.0  0.33909  0.08836  0.61832  1.0000
  H   H194      1.0  0.54980  0.29270  0.64055  1.0000
  S   S53       1.0  0.51315  0.06794  0.65504  1.0000
  H   H195      1.0  0.34758  0.24877  0.02410  1.0000
  S   S54       1.0  0.34551  0.17294  0.02136  1.0000
  H   H196      1.0  0.34542  0.27143  0.16519  1.0000
  H   H197      1.0  0.41696  0.13575  0.02613  1.0000
  H   H198      1.0  0.39027  0.07621  0.91565  1.0000
  H   H199      1.0  0.37657  0.11400  0.47397  1.0000
  C   C124      1.0  0.36918  0.18070  0.07629  1.0000
  H   H200      1.0  0.39763  0.17874  0.99827  1.0000
  H   H201      1.0  0.52088  0.08362  0.79150  1.0000
  C   C125      1.0  0.38592  0.27902  0.03197  1.0000
  H   H202      1.0  0.49982  0.12181  0.64461  1.0000
  N   N13       1.0  0.40200  0.10881  0.96194  1.0000
  H   H203      1.0  0.52052  0.29964  0.82123  1.0000
  C   C126      1.0  0.34470  0.09910  0.57230  1.0000
  H   H204      1.0  0.34024  0.28659  0.08550  1.0000
  C   C127      1.0  0.41945  0.11495  0.90559  1.0000
  C   C128      1.0  0.41246  0.11624  0.02707  1.0000
  H   H205      1.0  0.39933  0.11291  0.07044  1.0000
  H   H206      1.0  0.56855  0.21251  0.01181  1.0000
  C   C129      1.0  0.39343  0.18277  0.05082  1.0000
  H   H207      1.0  0.39096  0.06250  0.51564  1.0000
  H   H208      1.0  0.37251  0.28444  0.99222  1.0000
  H   H209      1.0  0.35213  0.23355  0.10414  1.0000
  C   C130      1.0  0.56862  0.21247  0.39568  1.0000
  C   C131      1.0  0.37825  0.12144  0.95072  1.0000
  C   C132      1.0  0.36171  0.24400  0.06259  1.0000
  H   H210      1.0  0.37542  0.23172  0.03823  1.0000
  H   H211      1.0  0.38489  0.07719  0.00604  1.0000
  C   C133      1.0  0.39797  0.08254  0.96419  1.0000
  N   N14       1.0  0.37371  0.26560  0.08888  1.0000
  C   C134      1.0  0.35487  0.28108  0.12180  1.0000
  H   H212      1.0  0.38075  0.14128  0.94719  1.0000
  Fe  Fe29      1.0  0.47284  0.06092  0.88638  1.0000
  S   S55       1.0  0.55286  0.22905  0.19927  1.0000
  S   S56       1.0  0.42874  0.21159  0.20877  1.0000
  H   H213      1.0  0.49945  0.19768  0.67581  1.0000
  H   H214      1.0  0.43724  0.10512  0.91148  1.0000
  S   S57       1.0  0.48418  0.25593  0.17492  1.0000
  S   S58       1.0  0.54269  0.21060  0.51766  1.0000
  H   H215      1.0  0.50098  0.13277  0.72945  1.0000
  H   H216      1.0  0.49918  0.18202  0.55924  1.0000
  H   H217      1.0  0.55461  0.09227  0.59330  1.0000
  H   H218      1.0  0.53663  0.17793  0.62804  1.0000
  C   C135      1.0  0.52953  0.16045  0.64821  1.0000
  C   C136      1.0  0.54978  0.22306  0.28734  1.0000
  C   C137      1.0  0.52676  0.22487  0.32049  1.0000
  C   C138      1.0  0.52473  0.22078  0.39114  1.0000
  C   C139      1.0  0.54564  0.21460  0.42885  1.0000
  C   C140      1.0  0.53556  0.08636  0.68926  1.0000
  S   S59       1.0  0.47729  0.08123  0.98295  1.0000
  H   H219      1.0  0.51052  0.22957  0.29178  1.0000
  H   H220      1.0  0.50690  0.22245  0.41651  1.0000
  H   H221      1.0  0.54301  0.15275  0.97337  1.0000
  H   H222      1.0  0.47272  0.18008  0.69915  1.0000
  Fe  Fe30      1.0  0.46160  0.22404  0.14621  1.0000
  H   H223      1.0  0.53738  0.15747  0.69962  1.0000
  C   C141      1.0  0.49325  0.17970  0.69538  1.0000
  H   H224      1.0  0.41195  0.11001  0.85550  1.0000
  H   H225      1.0  0.34358  0.07952  0.76541  1.0000
  H   H226      1.0  0.50033  0.17741  0.74797  1.0000
  C   C142      1.0  0.41213  0.19117  0.09238  1.0000
  Fe  Fe31      1.0  0.51666  0.23277  0.14523  1.0000
  N   N15       1.0  0.50227  0.16031  0.65076  1.0000
  H   H227      1.0  0.53703  0.14628  0.61431  1.0000
  H   H228      1.0  0.54749  0.16664  0.89081  1.0000
  Fe  Fe32      1.0  0.48272  0.26572  0.06360  1.0000
  Fe  Fe33      1.0  0.49178  0.21430  0.01920  1.0000
  S   S60       1.0  0.49715  0.19172  0.92604  1.0000
  C   C143      1.0  0.55110  0.10851  0.78420  1.0000
  C   C144      1.0  0.56850  0.11972  0.74090  1.0000
  C   C145      1.0  0.55368  0.09668  0.64667  1.0000
  C   C146      1.0  0.56820  0.27144  0.48645  1.0000
  H   H229      1.0  0.54815  0.20711  0.94270  1.0000
  H   H230      1.0  0.54976  0.11320  0.83728  1.0000
  H   H231      1.0  0.39298  0.08822  0.56934  1.0000
  H   H232      1.0  0.42981  0.10613  0.03820  1.0000
  C   C147      1.0  0.49107  0.16113  0.94186  1.0000
  C   C148      1.0  0.48096  0.15318  0.00429  1.0000
  C   C149      1.0  0.47764  0.12854  0.01768  1.0000
  C   C150      1.0  0.48354  0.11181  0.96769  1.0000
  C   C151      1.0  0.49333  0.11978  0.90491  1.0000
  C   C152      1.0  0.49723  0.14437  0.89212  1.0000
  S   S61       1.0  0.47706  0.30277  0.01797  1.0000
  H   H233      1.0  0.49838  0.10693  0.86684  1.0000
  H   H234      1.0  0.50545  0.15031  0.84425  1.0000
  H   H235      1.0  0.36476  0.11785  0.99315  1.0000
  C   C153      1.0  0.38047  0.07387  0.55224  1.0000
  C   C154      1.0  0.49287  0.16441  0.58129  1.0000
  H   H236      1.0  0.49965  0.15026  0.54610  1.0000
  S   S62       1.0  0.45730  0.23595  0.03723  1.0000
  H   H237      1.0  0.47553  0.16594  0.04227  1.0000
  S   S63       1.0  0.51710  0.24521  0.03577  1.0000
  H   H238      1.0  0.47233  0.16438  0.58090  1.0000
  C   C155      1.0  0.53464  0.09183  0.75831  1.0000
  H   H239      1.0  0.47312  0.13606  0.68192  1.0000
  H   H240      1.0  0.38412  0.24732  0.18189  1.0000
  S   S64       1.0  0.46216  0.08159  0.79260  1.0000
  H   H241      1.0  0.47021  0.12250  0.06657  1.0000
  H   H242      1.0  0.44548  0.29248  0.13568  1.0000
  H   H243      1.0  0.43076  0.19295  0.07227  1.0000
  C   C156      1.0  0.49363  0.13676  0.67789  1.0000
  C   C157      1.0  0.55750  0.19848  0.98701  1.0000
  H   H244      1.0  0.41564  0.07252  0.97234  1.0000
  H   H245      1.0  0.52091  0.29417  0.91187  1.0000
  H   H246      1.0  0.34751  0.10681  0.43721  1.0000
  H   H247      1.0  0.54273  0.19273  0.02407  1.0000
  S   S65       1.0  0.49426  0.20001  0.12649  1.0000
  H   H248      1.0  0.55475  0.26601  0.44755  1.0000
  C   C158      1.0  0.55732  0.15937  0.93616  1.0000
  H   H249      1.0  0.32759  0.10723  0.55096  1.0000
  C   C159      1.0  0.34752  0.06266  0.74085  1.0000
  H   H250      1.0  0.39482  0.29566  0.04978  1.0000
  H   H251      1.0  0.56843  0.14359  0.91930  1.0000
  H   H252      1.0  0.37407  0.08802  0.42170  1.0000
  H   H253      1.0  0.55824  0.28334  0.52263  1.0000
  H   H254      1.0  0.40069  0.26799  0.00725  1.0000
  H   H255      1.0  0.56820  0.30234  0.37994  1.0000
  H   H256      1.0  0.32436  0.07115  0.47854  1.0000
  H   H257      1.0  0.37599  0.06230  0.59757  1.0000
  C   C160      1.0  0.34154  0.06419  0.50227  1.0000
  H   H258      1.0  0.57199  0.16133  0.06581  1.0000
  N   N16       1.0  0.34421  0.50499  0.25499  1.0000
  H   H259      1.0  0.53725  0.35642  0.95569  1.0000
  C   C161      1.0  0.55811  0.32390  0.87308  1.0000
  H   H260      1.0  0.49660  0.31188  0.87566  1.0000
  H   H261      1.0  0.53617  0.36436  0.83000  1.0000
  H   H262      1.0  0.56976  0.34007  0.87978  1.0000
  C   C162      1.0  0.32759  0.36401  0.12736  1.0000
  H   H263      1.0  0.32949  0.50779  0.80254  1.0000
  S   S66       1.0  0.54998  0.46288  0.60289  1.0000
  S   S67       1.0  0.39001  0.36215  0.15504  1.0000
  C   C163      1.0  0.45287  0.31906  0.05671  1.0000
  Fe  Fe34      1.0  0.43693  0.52973  0.69139  1.0000
  H   H264      1.0  0.42320  0.43153  0.56644  1.0000
  Fe  Fe35      1.0  0.36013  0.44318  0.07623  1.0000
  H   H265      1.0  0.56282  0.31668  0.82195  1.0000
  S   S68       1.0  0.40181  0.50870  0.69519  1.0000
  S   S69       1.0  0.37473  0.41135  0.01960  1.0000
  H   H266      1.0  0.43510  0.44396  0.71459  1.0000
  H   H267      1.0  0.33474  0.34978  0.16273  1.0000
  Fe  Fe36      1.0  0.38275  0.54445  0.69011  1.0000
  S   S70       1.0  0.38162  0.54644  0.57591  1.0000
  Fe  Fe37      1.0  0.39176  0.40071  0.11894  1.0000
  H   H268      1.0  0.36206  0.48983  0.34304  1.0000
  H   H269      1.0  0.42425  0.46398  0.64863  1.0000
  S   S71       1.0  0.37411  0.43067  0.17773  1.0000
  H   H270      1.0  0.45002  0.41291  0.55240  1.0000
  H   H271      1.0  0.53047  0.32671  0.98897  1.0000
  Fe  Fe38      1.0  0.56386  0.43273  0.66964  1.0000
  S   S72       1.0  0.39289  0.46598  0.05051  1.0000
  S   S73       1.0  0.42660  0.47938  0.21089  1.0000
  C   C164      1.0  0.52932  0.48079  0.64903  1.0000
  H   H272      1.0  0.47484  0.44950  0.52454  1.0000
  S   S74       1.0  0.39542  0.47865  0.52299  1.0000
  C   C165      1.0  0.43977  0.42349  0.59138  1.0000
  S   S75       1.0  0.44035  0.53017  0.57753  1.0000
  Fe  Fe39      1.0  0.40358  0.51203  0.58110  1.0000
  H   H273      1.0  0.42025  0.51448  0.43693  1.0000
  H   H274      1.0  0.47194  0.41822  0.69334  1.0000
  H   H275      1.0  0.43307  0.41074  0.63199  1.0000
  C   C166      1.0  0.40687  0.45875  0.32817  1.0000
  H   H276      1.0  0.45219  0.47063  0.69223  1.0000
  H   H277      1.0  0.48938  0.44483  0.67392  1.0000
  H   H278      1.0  0.51991  0.50304  0.56221  1.0000
  H   H279      1.0  0.47511  0.47364  0.58339  1.0000
  C   C167      1.0  0.41867  0.47871  0.29815  1.0000
  C   C168      1.0  0.42361  0.49872  0.33771  1.0000
  C   C169      1.0  0.41655  0.49889  0.40689  1.0000
  C   C170      1.0  0.40473  0.47892  0.43682  1.0000
  H   H280      1.0  0.44759  0.46757  0.53810  1.0000
  H   H281      1.0  0.48893  0.42111  0.61394  1.0000
  H   H282      1.0  0.43277  0.51420  0.31474  1.0000
  H   H283      1.0  0.48775  0.52591  0.62441  1.0000
  H   H284      1.0  0.50637  0.34496  0.95363  1.0000
  C   C171      1.0  0.40001  0.45883  0.39743  1.0000
  H   H285      1.0  0.34156  0.51447  0.36062  1.0000
  N   N17       1.0  0.45550  0.44232  0.61951  1.0000
  H   H286      1.0  0.40335  0.44309  0.29836  1.0000
  C   C172      1.0  0.49779  0.51189  0.65072  1.0000
  H   H287      1.0  0.37884  0.50923  0.20025  1.0000
  C   C173      1.0  0.51628  0.49918  0.61569  1.0000
  C   C174      1.0  0.46362  0.45896  0.56392  1.0000
  C   C175      1.0  0.47736  0.43108  0.65153  1.0000
  H   H288      1.0  0.39096  0.44329  0.42046  1.0000
  C   C176      1.0  0.44116  0.45581  0.67104  1.0000
  H   H289      1.0  0.33115  0.49010  0.87987  1.0000
  Fe  Fe40      1.0  0.40920  0.43300  0.00354  1.0000
  S   S76       1.0  0.42817  0.43681  0.90084  1.0000
  C   C177      1.0  0.46558  0.49477  0.93984  1.0000
  C   C178      1.0  0.42675  0.35480  0.05943  1.0000
  H   H290      1.0  0.47677  0.50710  0.90643  1.0000
  C   C179      1.0  0.52624  0.33995  0.94740  1.0000
  C   C180      1.0  0.46290  0.47203  0.04574  1.0000
  H   H291      1.0  0.49639  0.52228  0.00996  1.0000
  H   H292      1.0  0.33332  0.54315  0.62853  1.0000
  S   S77       1.0  0.54035  0.40657  0.91002  1.0000
  N   N18       1.0  0.53152  0.32989  0.87958  1.0000
  C   C181      1.0  0.52485  0.47608  0.71831  1.0000
  Fe  Fe41      1.0  0.40813  0.45148  0.14836  1.0000
  C   C182      1.0  0.50651  0.48895  0.75355  1.0000
  H   H293      1.0  0.44764  0.50388  0.95116  1.0000
  H   H294      1.0  0.45578  0.34883  0.98495  1.0000
  H   H295      1.0  0.50263  0.48472  0.80665  1.0000
  H   H296      1.0  0.53505  0.46206  0.74436  1.0000
  C   C183      1.0  0.45857  0.42563  0.89882  1.0000
  C   C184      1.0  0.46717  0.41047  0.95101  1.0000
  C   C185      1.0  0.49227  0.40423  0.95354  1.0000
  C   C186      1.0  0.50872  0.41262  0.90280  1.0000
  C   C187      1.0  0.49991  0.42679  0.84870  1.0000
  C   C188      1.0  0.47488  0.43341  0.84688  1.0000
  H   H297      1.0  0.45457  0.40358  0.98968  1.0000
  H   H298      1.0  0.49895  0.39307  0.99520  1.0000
  H   H299      1.0  0.51260  0.43363  0.81017  1.0000
  H   H300      1.0  0.46841  0.44541  0.80692  1.0000
  H   H301      1.0  0.45774  0.45566  0.01801  1.0000
  C   C189      1.0  0.44609  0.34157  0.02941  1.0000
  C   C190      1.0  0.52493  0.34782  0.82624  1.0000
  H   H302      1.0  0.50517  0.35334  0.83073  1.0000
  S   S78       1.0  0.53943  0.40402  0.71437  1.0000
  C   C191      1.0  0.35521  0.50745  0.32276  1.0000
  C   C192      1.0  0.41422  0.34564  0.11717  1.0000
  H   H303      1.0  0.51415  0.48645  0.95116  1.0000
  H   H304      1.0  0.47234  0.46600  0.09306  1.0000
  H   H305      1.0  0.49406  0.50529  0.08884  1.0000
  H   H306      1.0  0.49821  0.45839  0.95789  1.0000
  S   S79       1.0  0.42742  0.42031  0.09969  1.0000
  H   H307      1.0  0.51251  0.47004  0.03116  1.0000
  C   C193      1.0  0.49253  0.50644  0.71926  1.0000
  H   H308      1.0  0.42148  0.37204  0.03753  1.0000
  Fe  Fe42      1.0  0.56050  0.40932  0.80946  1.0000
  C   C194      1.0  0.50195  0.47524  0.98503  1.0000
  S   S80       1.0  0.55750  0.34338  0.64696  1.0000
  H   H309      1.0  0.41153  0.31616  0.18971  1.0000
  N   N19       1.0  0.47871  0.48799  0.00279  1.0000
  S   S81       1.0  0.46802  0.52070  0.76192  1.0000
  C   C195      1.0  0.48437  0.50986  0.04071  1.0000
  H   H310      1.0  0.46136  0.47874  0.90936  1.0000
  H   H311      1.0  0.44549  0.48124  0.06164  1.0000
  H   H312      1.0  0.46718  0.51986  0.05479  1.0000
  H   H313      1.0  0.35551  0.49341  0.15515  1.0000
  H   H314      1.0  0.37142  0.47900  0.22434  1.0000
  C   C196      1.0  0.42094  0.32310  0.14444  1.0000
  C   C197      1.0  0.36327  0.49633  0.20639  1.0000
  H   H315      1.0  0.37128  0.51986  0.32072  1.0000
  H   H316      1.0  0.34961  0.54218  0.22700  1.0000
  C   C198      1.0  0.44021  0.30977  0.11413  1.0000
  C   C199      1.0  0.33464  0.52857  0.23090  1.0000
  H   H317      1.0  0.34039  0.36481  0.08232  1.0000
  H   H318      1.0  0.33043  0.46947  0.27733  1.0000
  H   H319      1.0  0.32910  0.38149  0.15355  1.0000
  H   H320      1.0  0.52468  0.55150  0.69420  1.0000
  S   S82       1.0  0.35153  0.55363  0.76217  1.0000
  H   H321      1.0  0.52823  0.34069  0.77433  1.0000
  H   H322      1.0  0.56371  0.31016  0.91194  1.0000
  S   S83       1.0  0.32246  0.45933  0.05913  1.0000
  Fe  Fe43      1.0  0.57016  0.37863  0.68729  1.0000
  H   H323      1.0  0.32399  0.43662  0.19253  1.0000
  H   H324      1.0  0.32638  0.52727  0.17962  1.0000
  C   C200      1.0  0.51677  0.30791  0.87149  1.0000
  C   C201      1.0  0.32378  0.48751  0.25968  1.0000
  C   C202      1.0  0.36066  0.61059  0.67212  1.0000
  C   C203      1.0  0.55354  0.78401  0.73286  1.0000
  C   C204      1.0  0.51397  0.60921  0.74057  1.0000
  H   H325      1.0  0.36305  0.65862  0.65659  1.0000
  H   H326      1.0  0.50263  0.62464  0.72161  1.0000
  H   H327      1.0  0.36462  0.63657  0.51401  1.0000
  N   N20       1.0  0.35169  0.62528  0.61395  1.0000
  C   C205      1.0  0.32385  0.56091  0.72176  1.0000
  Fe  Fe44      1.0  0.41835  0.56443  0.58364  1.0000
  S   S84       1.0  0.41777  0.56533  0.69735  1.0000
  H   H328      1.0  0.37582  0.60761  0.54207  1.0000
  H   H329      1.0  0.53473  0.78815  0.71864  1.0000
  C   C206      1.0  0.32896  0.61451  0.58789  1.0000
  H   H330      1.0  0.53356  0.61513  0.73925  1.0000
  H   H331      1.0  0.55313  0.80562  0.96014  1.0000
  C   C207      1.0  0.56102  0.76000  0.74189  1.0000
  H   H332      1.0  0.34648  0.60921  0.71385  1.0000
  C   C208      1.0  0.52631  0.56783  0.72539  1.0000
  H   H333      1.0  0.36524  0.59191  0.65676  1.0000
  S   S85       1.0  0.54235  0.65328  0.58888  1.0000
  S   S86       1.0  0.54361  0.71025  0.63240  1.0000
  S   S87       1.0  0.42908  0.59679  0.51998  1.0000
  C   C209      1.0  0.46778  0.65330  0.64394  1.0000
  N   N21       1.0  0.51060  0.58767  0.69911  1.0000
  C   C210      1.0  0.43540  0.62368  0.63364  1.0000
  C   C211      1.0  0.44343  0.61902  0.56715  1.0000
  C   C212      1.0  0.46314  0.63210  0.53830  1.0000
  C   C213      1.0  0.47545  0.64909  0.57687  1.0000
  H   H334      1.0  0.46916  0.62886  0.48645  1.0000
  H   H335      1.0  0.49065  0.65915  0.55432  1.0000
  Fe  Fe45      1.0  0.56450  0.68610  0.56138  1.0000
  H   H336      1.0  0.50854  0.60576  0.79474  1.0000
  H   H337      1.0  0.53744  0.59863  0.62274  1.0000
  H   H338      1.0  0.41990  0.61411  0.65569  1.0000
  Fe  Fe46      1.0  0.52417  0.67651  0.66712  1.0000
  C   C214      1.0  0.44743  0.64092  0.67179  1.0000
  S   S88       1.0  0.48388  0.67311  0.69497  1.0000
  C   C215      1.0  0.34626  0.64997  0.63654  1.0000
  H   H339      1.0  0.37756  0.61833  0.69395  1.0000
  C   C216      1.0  0.48441  0.58042  0.70287  1.0000
  S   S89       1.0  0.55120  0.66766  0.74934  1.0000
  H   H340      1.0  0.33944  0.66158  0.59390  1.0000
  H   H341      1.0  0.33182  0.65001  0.67774  1.0000
  H   H342      1.0  0.47212  0.59515  0.68451  1.0000
  H   H343      1.0  0.44131  0.64431  0.72347  1.0000
  H   H344      1.0  0.47846  0.57555  0.75590  1.0000
  H   H345      1.0  0.38819  0.63439  0.57665  1.0000
  H   H346      1.0  0.54786  0.74575  0.73569  1.0000
  C   C217      1.0  0.51768  0.59329  0.62753  1.0000
  H   H347      1.0  0.50639  0.60841  0.60642  1.0000
  H   H348      1.0  0.48098  0.56458  0.67101  1.0000
  C   C218      1.0  0.37086  0.62602  0.55932  1.0000
  H   H349      1.0  0.54617  0.57298  0.72471  1.0000
  H   H350      1.0  0.51502  0.57756  0.59452  1.0000
  H   H351      1.0  0.52100  0.56266  0.77868  1.0000
  H   H352      1.0  0.55765  0.76299  0.59098  1.0000
  H   H353      1.0  0.33249  0.59595  0.56980  1.0000
  H   H354      1.0  0.57127  0.79681  0.07391  1.0000
  Fe  Fe47      1.0  0.57075  0.64688  0.66822  1.0000
  H   H355      1.0  0.55511  0.77824  0.50999  1.0000
  C   C219      1.0  0.56439  0.76301  0.53709  1.0000
  H   H356      1.0  0.55797  0.74606  0.51415  1.0000
  C   C220      1.0  0.57019  0.80267  0.74268  1.0000
  S   S90       1.0  0.57109  0.69924  0.45366  1.0000
  H   H357      1.0  0.52116  0.97988  0.64424  1.0000
  C   C221      1.0  0.32848  0.05040  0.70952  1.0000
  H   H358      1.0  0.36141  0.00262  0.65084  1.0000
  C   C222      1.0  0.57079  0.98061  0.63834  1.0000
  C   C223      1.0  0.37655  0.03138  0.70888  1.0000
  C   C224      1.0  0.35747  0.01927  0.67653  1.0000
  H   H359      1.0  0.39514  0.02408  0.70804  1.0000
  H   H360      1.0  0.57053  0.97074  0.77204  1.0000
  C   C225      1.0  0.33354  0.02912  0.67535  1.0000
  Fe  Fe48      1.0  0.48672  0.05580  0.73762  1.0000
  H   H361      1.0  0.35089  0.05210  0.46537  1.0000
  Fe  Fe49      1.0  0.43274  0.05388  0.78391  1.0000
  H   H362      1.0  0.56242  0.98178  0.58711  1.0000
  C   C226      1.0  0.55035  0.01734  0.67256  1.0000
  H   H363      1.0  0.49872  0.92822  0.79598  1.0000
  C   C227      1.0  0.56649  0.98982  0.75740  1.0000
  S   S91       1.0  0.47323  0.97256  0.82125  1.0000
  C   C228      1.0  0.51701  0.97523  0.88992  1.0000
  C   C229      1.0  0.54941  0.94468  0.88330  1.0000
  H   H364      1.0  0.53300  0.95981  0.70892  1.0000
  C   C230      1.0  0.50196  0.96150  0.84904  1.0000
  Fe  Fe50      1.0  0.46844  0.01285  0.81778  1.0000
  H   H365      1.0  0.53861  0.02626  0.71190  1.0000
  C   C231      1.0  0.54057  0.96669  0.90768  1.0000
  H   H366      1.0  0.51042  0.99231  0.90848  1.0000
  H   H367      1.0  0.55218  0.97742  0.93916  1.0000
  H   H368      1.0  0.54068  0.01958  0.62331  1.0000
  H   H369      1.0  0.51779  0.98731  0.73208  1.0000
  H   H370      1.0  0.54065  0.91354  0.82547  1.0000
  C   C232      1.0  0.51039  0.93901  0.82711  1.0000
  S   S92       1.0  0.56032  0.83246  0.72986  1.0000
  H   H371      1.0  0.55443  0.99744  0.79822  1.0000
  S   S93       1.0  0.50046  0.03741  0.83223  1.0000
  C   C233      1.0  0.53418  0.93074  0.84346  1.0000
  C   C234      1.0  0.53062  0.97911  0.69397  1.0000
  C   C235      1.0  0.37165  0.05345  0.73937  1.0000
  S   S94       1.0  0.44187  0.03453  0.88150  1.0000
  S   S95       1.0  0.45635  0.02987  0.71868  1.0000
  N   N22       1.0  0.55457  0.99171  0.69048  1.0000
  H   H372      1.0  0.33585  0.05289  0.54720  1.0000
  H   H373      1.0  0.56798  0.02744  0.66818  1.0000
  H   H374      1.0  0.57156  0.83230  0.95603  1.0000
  C   C236      1.0  0.57156  0.81280  0.94443  1.0000
  H   H375      1.0  0.81332  0.08059  0.79136  1.0000
  H   H376      1.0  0.58264  0.19375  0.86822  1.0000
  H   H377      1.0  0.58850  0.21518  0.29954  1.0000
  H   H378      1.0  0.61835  0.27587  0.38019  1.0000
  Fe  Fe51      1.0  0.63064  0.18221  0.57019  1.0000
  H   H379      1.0  0.65883  0.12984  0.66202  1.0000
  S   S96       1.0  0.65896  0.16463  0.50246  1.0000
  C   C237      1.0  0.72029  0.12517  0.61708  1.0000
  H   H380      1.0  0.71845  0.09925  0.53760  1.0000
  C   C238      1.0  0.82102  0.06941  0.74962  1.0000
  S   S97       1.0  0.61443  0.21914  0.55340  1.0000
  H   H381      1.0  0.80270  0.11182  0.70550  1.0000
  H   H382      1.0  0.60363  0.17095  0.89740  1.0000
  H   H383      1.0  0.62636  0.12454  0.66529  1.0000
  C   C239      1.0  0.71132  0.14726  0.64049  1.0000
  H   H384      1.0  0.68578  0.17671  0.62344  1.0000
  H   H385      1.0  0.64253  0.12955  0.74236  1.0000
  H   H386      1.0  0.81740  0.11184  0.62277  1.0000
  C   C240      1.0  0.69273  0.15973  0.60500  1.0000
  H   H387      1.0  0.58479  0.20741  0.42425  1.0000
  Fe  Fe52      1.0  0.73710  0.06878  0.65519  1.0000
  C   C241      1.0  0.68328  0.15025  0.54556  1.0000
  C   C242      1.0  0.69288  0.12858  0.52100  1.0000
  C   C243      1.0  0.71116  0.11595  0.55701  1.0000
  H   H388      1.0  0.61056  0.08537  0.71521  1.0000
  H   H389      1.0  0.68587  0.12136  0.47454  1.0000
  H   H390      1.0  0.63213  0.06375  0.74878  1.0000
  C   C244      1.0  0.64389  0.12078  0.69206  1.0000
  H   H391      1.0  0.58879  0.26299  0.36353  1.0000
  H   H392      1.0  0.66499  0.09189  0.59920  1.0000
  S   S98       1.0  0.74185  0.10862  0.66525  1.0000
  H   H393      1.0  0.62670  0.09166  0.79142  1.0000
  C   C245      1.0  0.64985  0.08390  0.63132  1.0000
  H   H394      1.0  0.71845  0.15456  0.68668  1.0000
  H   H395      1.0  0.62481  0.29767  0.48577  1.0000
  C   C246      1.0  0.62865  0.08335  0.74057  1.0000
  C   C247      1.0  0.59161  0.18609  0.91452  1.0000
  H   H396      1.0  0.79525  0.08919  0.64633  1.0000
  H   H397      1.0  0.67667  0.07119  0.74040  1.0000
  C   C248      1.0  0.81074  0.10001  0.66560  1.0000
  C   C249      1.0  0.60695  0.27931  0.70089  1.0000
  C   C250      1.0  0.60778  0.28932  0.50799  1.0000
  C   C251      1.0  0.58346  0.27574  0.67453  1.0000
  H   H398      1.0  0.80590  0.05752  0.73297  1.0000
  S   S99       1.0  0.59376  0.16417  0.57779  1.0000
  H   H399      1.0  0.67250  0.09890  0.78465  1.0000
  S   S100      1.0  0.62674  0.25485  0.71749  1.0000
  N   N23       1.0  0.64872  0.09468  0.69939  1.0000
  Fe  Fe53      1.0  0.61521  0.22110  0.66717  1.0000
  S   S101      1.0  0.63481  0.18573  0.68270  1.0000
  Fe  Fe54      1.0  0.59683  0.17017  0.68958  1.0000
  S   S102      1.0  0.58681  0.14284  0.77157  1.0000
  C   C252      1.0  0.61489  0.30270  0.71306  1.0000
  C   C253      1.0  0.67253  0.09071  0.73355  1.0000
  H   H400      1.0  0.68813  0.09874  0.70337  1.0000
  H   H401      1.0  0.57716  0.25777  0.66521  1.0000
  H   H402      1.0  0.63232  0.08689  0.60359  1.0000
  C   C254      1.0  0.58561  0.16755  0.02604  1.0000
  H   H403      1.0  0.65325  0.06413  0.63499  1.0000
  S   S103      1.0  0.57750  0.20588  0.68522  1.0000
  C   C255      1.0  0.60174  0.26749  0.40470  1.0000
  H   H404      1.0  0.57363  0.25484  0.51524  1.0000
  H   H405      1.0  0.60372  0.20023  0.93481  1.0000
  H   H406      1.0  0.60773  0.25020  0.42899  1.0000
  H   H407      1.0  0.59761  0.18106  0.04985  1.0000
  N   N24       1.0  0.58991  0.28356  0.45486  1.0000
  H   H408      1.0  0.59740  0.15184  0.01223  1.0000
  Fe  Fe55      1.0  0.57786  0.20134  0.57204  1.0000
  H   H409      1.0  0.63308  0.30553  0.73322  1.0000
  H   H410      1.0  0.61355  0.27296  0.53750  1.0000
  H   H411      1.0  0.58409  0.12101  0.63928  1.0000
  H   H412      1.0  0.59977  0.30218  0.54513  1.0000
  C   C256      1.0  0.58181  0.30603  0.42014  1.0000
  N   N25       1.0  0.57303  0.17788  0.96592  1.0000
  S   S104      1.0  0.74253  0.55040  0.77002  1.0000
  H   H413      1.0  0.58653  0.49060  0.67776  1.0000
  H   H414      1.0  0.60384  0.45980  0.59945  1.0000
  C   C257      1.0  0.62202  0.46884  0.60288  1.0000
  H   H415      1.0  0.65455  0.49802  0.65862  1.0000
  H   H416      1.0  0.63208  0.45986  0.64541  1.0000
  N   N26       1.0  0.61897  0.49492  0.61385  1.0000
  H   H417      1.0  0.61508  0.49026  0.72220  1.0000
  S   S105      1.0  0.78146  0.52293  0.61767  1.0000
  H   H418      1.0  0.63268  0.46521  0.55523  1.0000
  C   C258      1.0  0.64353  0.50618  0.61699  1.0000
  C   C259      1.0  0.60526  0.49870  0.67856  1.0000
  S   S106      1.0  0.59272  0.40692  0.63246  1.0000
  Fe  Fe56      1.0  0.70289  0.54490  0.74286  1.0000
  S   S107      1.0  0.67425  0.52654  0.80961  1.0000
  Fe  Fe57      1.0  0.75011  0.54546  0.65831  1.0000
  S   S108      1.0  0.58980  0.38191  0.78589  1.0000
  H   H419      1.0  0.69257  0.44946  0.70174  1.0000
  S   S109      1.0  0.58225  0.44065  0.76749  1.0000
  Fe  Fe58      1.0  0.60975  0.41278  0.73410  1.0000
  S   S110      1.0  0.65067  0.41960  0.73428  1.0000
  C   C260      1.0  0.66998  0.49578  0.79564  1.0000
  C   C261      1.0  0.68599  0.48297  0.75274  1.0000
  C   C262      1.0  0.68050  0.45916  0.73626  1.0000
  C   C263      1.0  0.65902  0.44815  0.76253  1.0000
  C   C264      1.0  0.64372  0.46061  0.80799  1.0000
  C   C265      1.0  0.64923  0.48435  0.82466  1.0000
  H   H420      1.0  0.70228  0.49157  0.73103  1.0000
  H   H421      1.0  0.62769  0.45193  0.83057  1.0000
  H   H422      1.0  0.63707  0.49406  0.85888  1.0000
  H   H423      1.0  0.60259  0.52568  0.56380  1.0000
  C   C266      1.0  0.60507  0.50597  0.55710  1.0000
  H   H424      1.0  0.61481  0.50327  0.50745  1.0000
  H   H425      1.0  0.60634  0.34054  0.70454  1.0000
  C   C267      1.0  0.81070  0.53066  0.64672  1.0000
  H   H426      1.0  0.58636  0.49793  0.55359  1.0000
  H   H427      1.0  0.59770  0.31563  0.39549  1.0000
  C   C268      1.0  0.59968  0.32252  0.69730  1.0000
  S   S111      1.0  0.71086  0.53636  0.63368  1.0000
  H   H428      1.0  0.64200  0.52573  0.62700  1.0000
  H   H429      1.0  0.60306  0.51817  0.68930  1.0000
  H   H430      1.0  0.65441  0.50397  0.56889  1.0000
  C   C269      1.0  0.57632  0.31893  0.67045  1.0000
  C   C270      1.0  0.81413  0.55176  0.68280  1.0000
  H   H431      1.0  0.81972  0.55660  0.45586  1.0000
  H   H432      1.0  0.57283  0.31858  0.45674  1.0000
  S   S112      1.0  0.69736  0.73194  0.19078  1.0000
  S   S113      1.0  0.71015  0.67521  0.16673  1.0000
  S   S114      1.0  0.68086  0.68821  0.34352  1.0000
  H   H433      1.0  0.70531  0.61430  0.39847  1.0000
  H   H434      1.0  0.65159  0.58561  0.32080  1.0000
  C   C271      1.0  0.80078  0.75726  0.20506  1.0000
  S   S115      1.0  0.59477  0.67764  0.63447  1.0000
  C   C272      1.0  0.80444  0.70623  0.06617  1.0000
  H   H435      1.0  0.59171  0.77045  0.90964  1.0000
  C   C273      1.0  0.69323  0.60528  0.26813  1.0000
  C   C274      1.0  0.72415  0.77190  0.98342  1.0000
  H   H436      1.0  0.64732  0.62394  0.25516  1.0000
  C   C275      1.0  0.65238  0.77242  0.22065  1.0000
  H   H437      1.0  0.59535  0.71719  0.33228  1.0000
  H   H438      1.0  0.70366  0.64178  0.34864  1.0000
  C   C276      1.0  0.63772  0.61302  0.54670  1.0000
  H   H439      1.0  0.68228  0.59615  0.22902  1.0000
  H   H440      1.0  0.61325  0.67238  0.50520  1.0000
  H   H441      1.0  0.63865  0.71402  0.29023  1.0000
  H   H442      1.0  0.65661  0.66980  0.46445  1.0000
  H   H443      1.0  0.65104  0.60215  0.39843  1.0000
  H   H444      1.0  0.79518  0.74506  0.16423  1.0000
  H   H445      1.0  0.64305  0.62509  0.50517  1.0000
  N   N27       1.0  0.59159  0.76503  0.53244  1.0000
  C   C277      1.0  0.65046  0.69157  0.37425  1.0000
  C   C278      1.0  0.64329  0.68019  0.43559  1.0000
  C   C279      1.0  0.61876  0.68189  0.45925  1.0000
  C   C280      1.0  0.60147  0.69542  0.42253  1.0000
  C   C281      1.0  0.60866  0.70678  0.36112  1.0000
  C   C282      1.0  0.63314  0.70488  0.33705  1.0000
  N   N28       1.0  0.67711  0.61505  0.32259  1.0000
  C   C283      1.0  0.61548  0.61694  0.58280  1.0000
  H   H446      1.0  0.66930  0.64743  0.26495  1.0000
  C   C284      1.0  0.65960  0.78721  0.27340  1.0000
  S   S116      1.0  0.68323  0.59160  0.53053  1.0000
  C   C285      1.0  0.69243  0.62714  0.37286  1.0000
  H   H447      1.0  0.64884  0.75357  0.23111  1.0000
  Fe  Fe59      1.0  0.68395  0.69651  0.23152  1.0000
  H   H448      1.0  0.71297  0.80115  0.13105  1.0000
  N   N29       1.0  0.59178  0.79976  0.97927  1.0000
  H   H449      1.0  0.59350  0.78815  0.61818  1.0000
  H   H450      1.0  0.66178  0.77966  0.32417  1.0000
  H   H451      1.0  0.59709  0.74366  0.62355  1.0000
  H   H452      1.0  0.64745  0.64083  0.33223  1.0000
  H   H453      1.0  0.78942  0.77399  0.20002  1.0000
  S   S117      1.0  0.65213  0.69410  0.16057  1.0000
  H   H454      1.0  0.70389  0.61985  0.24136  1.0000
  H   H455      1.0  0.67605  0.58191  0.38107  1.0000
  C   C286      1.0  0.65364  0.59440  0.56724  1.0000
  C   C287      1.0  0.65948  0.63251  0.29246  1.0000
  H   H456      1.0  0.70678  0.59202  0.28901  1.0000
  H   H457      1.0  0.79347  0.62816  0.97264  1.0000
  C   C288      1.0  0.73073  0.64539  0.90948  1.0000
  H   H458      1.0  0.76449  0.58887  0.90598  1.0000
  H   H459      1.0  0.60348  0.63167  0.56789  1.0000
  H   H460      1.0  0.59063  0.80364  0.53790  1.0000
  C   C289      1.0  0.66330  0.59527  0.35697  1.0000
  H   H461      1.0  0.68082  0.63539  0.41364  1.0000
  H   H462      1.0  0.62072  0.76902  0.78491  1.0000
  H   H463      1.0  0.70813  0.59168  0.86086  1.0000
  Fe  Fe60      1.0  0.67961  0.67579  0.09158  1.0000
  Fe  Fe61      1.0  0.72033  0.71070  0.11777  1.0000
  S   S118      1.0  0.64659  0.76223  0.08662  1.0000
  Fe  Fe62      1.0  0.70672  0.57597  0.61402  1.0000
  S   S119      1.0  0.69153  0.70989  0.03785  1.0000
  H   H464      1.0  0.67804  0.60049  0.95367  1.0000
  H   H465      1.0  0.64161  0.63652  0.69175  1.0000
  H   H466      1.0  0.62014  0.76567  0.45451  1.0000
  H   H467      1.0  0.57245  0.76606  0.98400  1.0000
  N   N30       1.0  0.64615  0.64610  0.79596  1.0000
  H   H468      1.0  0.78030  0.56416  0.94576  1.0000
  H   H469      1.0  0.60764  0.64809  0.77174  1.0000
  H   H470      1.0  0.60541  0.76344  0.99013  1.0000
  H   H471      1.0  0.63096  0.61052  0.79204  1.0000
  S   S120      1.0  0.74663  0.58457  0.62925  1.0000
  H   H472      1.0  0.61478  0.65807  0.85531  1.0000
  S   S121      1.0  0.67148  0.64151  0.03836  1.0000
  C   C290      1.0  0.64444  0.62095  0.82147  1.0000
  S   S122      1.0  0.59498  0.72451  0.76924  1.0000
  H   H473      1.0  0.63856  0.62004  0.87608  1.0000
  C   C291      1.0  0.71395  0.65017  0.96295  1.0000
  H   H474      1.0  0.73246  0.77528  0.11655  1.0000
  Fe  Fe63      1.0  0.66738  0.72836  0.11467  1.0000
  Fe  Fe64      1.0  0.57240  0.69937  0.70785  1.0000
  C   C292      1.0  0.70966  0.60816  0.88851  1.0000
  C   C293      1.0  0.58523  0.75454  0.76047  1.0000
  H   H475      1.0  0.66528  0.67850  0.82004  1.0000
  H   H476      1.0  0.61963  0.78991  0.56067  1.0000
  C   C294      1.0  0.59965  0.76497  0.46012  1.0000
  C   C295      1.0  0.62158  0.65776  0.80151  1.0000
  H   H477      1.0  0.66258  0.61150  0.81727  1.0000
  S   S123      1.0  0.69553  0.58399  0.72135  1.0000
  H   H478      1.0  0.65851  0.65896  0.89188  1.0000
  C   C296      1.0  0.65055  0.78177  0.15434  1.0000
  H   H479      1.0  0.71581  0.66637  0.99162  1.0000
  H   H480      1.0  0.63150  0.79934  0.97902  1.0000
  C   C297      1.0  0.66396  0.65931  0.83688  1.0000
  C   C298      1.0  0.60193  0.77320  0.77070  1.0000
  C   C299      1.0  0.65460  0.64637  0.72396  1.0000
  S   S124      1.0  0.58406  0.60950  0.69217  1.0000
  H   H481      1.0  0.61989  0.57158  0.70122  1.0000
  C   C300      1.0  0.69455  0.63429  0.97792  1.0000
  H   H482      1.0  0.77224  0.59040  0.99387  1.0000
  H   H483      1.0  0.62205  0.67674  0.78217  1.0000
  C   C301      1.0  0.69275  0.61305  0.94154  1.0000
  H   H484      1.0  0.68281  0.65129  0.83261  1.0000
  H   H485      1.0  0.65602  0.66505  0.70282  1.0000
  H   H486      1.0  0.75828  0.80059  0.03837  1.0000
  H   H487      1.0  0.72644  0.77693  0.92859  1.0000
  C   C302      1.0  0.80051  0.62164  0.92296  1.0000
  H   H488      1.0  0.62356  0.74540  0.56714  1.0000
  H   H489      1.0  0.67307  0.63759  0.71793  1.0000
  C   C303      1.0  0.58938  0.80332  0.05344  1.0000
  H   H490      1.0  0.79661  0.59255  0.81646  1.0000
  C   C304      1.0  0.72823  0.62467  0.87112  1.0000
  H   H491      1.0  0.79843  0.56310  0.69523  1.0000
  H   H492      1.0  0.78745  0.62819  0.88373  1.0000
  C   C305      1.0  0.62455  0.58291  0.65742  1.0000
  C   C306      1.0  0.60931  0.60231  0.63943  1.0000
  H   H493      1.0  0.69983  0.77372  0.10376  1.0000
  C   C307      1.0  0.64668  0.57899  0.62128  1.0000
  C   C308      1.0  0.71618  0.78556  0.09739  1.0000
  H   H494      1.0  0.59183  0.78057  0.43114  1.0000
  H   H495      1.0  0.81857  0.63055  0.91252  1.0000
  N   N31       1.0  0.71973  0.79327  0.02547  1.0000
  H   H496      1.0  0.70848  0.75909  0.98836  1.0000
  C   C309      1.0  0.77221  0.67680  0.08415  1.0000
  H   H497      1.0  0.74111  0.76196  0.99914  1.0000
  Fe  Fe65      1.0  0.73567  0.58886  0.73907  1.0000
  S   S125      1.0  0.74801  0.61989  0.80069  1.0000
  H   H498      1.0  0.74530  0.65806  0.89697  1.0000
  C   C310      1.0  0.81052  0.58712  0.85512  1.0000
  H   H499      1.0  0.60404  0.79335  0.08149  1.0000
  C   C311      1.0  0.77953  0.70083  0.07813  1.0000
  H   H500      1.0  0.79566  0.74831  0.25447  1.0000
  H   H501      1.0  0.81248  0.56719  0.85350  1.0000
  H   H502      1.0  0.59784  0.72705  0.54658  1.0000
  H   H503      1.0  0.75300  0.67242  0.09091  1.0000
  H   H504      1.0  0.78411  0.63976  0.08773  1.0000
  C   C312      1.0  0.60304  0.74442  0.56907  1.0000
  C   C313      1.0  0.59026  0.77381  0.96515  1.0000
  C   C314      1.0  0.78985  0.65826  0.08120  1.0000
  H   H505      1.0  0.65882  0.56446  0.63674  1.0000
  S   S126      1.0  0.75802  0.72432  0.08791  1.0000
  H   H506      1.0  0.59350  0.74836  0.43493  1.0000
  C   C315      1.0  0.59441  0.79728  0.76185  1.0000
  H   H507      1.0  0.81644  0.59342  0.02581  1.0000
  H   H508      1.0  0.68081  0.79417  0.00611  1.0000
  C   C316      1.0  0.81484  0.66371  0.07091  1.0000
  H   H509      1.0  0.81012  0.72471  0.05934  1.0000
  C   C317      1.0  0.77898  0.58415  0.94335  1.0000
  N   N32       1.0  0.80294  0.59513  0.92370  1.0000
  C   C318      1.0  0.59922  0.78769  0.56354  1.0000
  C   C319      1.0  0.69729  0.80600  0.00198  1.0000
  C   C320      1.0  0.65461  0.80630  0.14143  1.0000
  C   C321      1.0  0.82177  0.58767  0.97355  1.0000
  H   H510      1.0  0.61824  0.80701  0.89835  1.0000
  S   S127      1.0  0.70604  0.89176  0.28883  1.0000
  C   C322      1.0  0.66411  0.98698  0.62802  1.0000
  N   N33       1.0  0.68792  0.87986  0.50483  1.0000
  C   C323      1.0  0.68292  0.87097  0.57514  1.0000
  H   H511      1.0  0.73074  0.98208  0.34878  1.0000
  H   H512      1.0  0.73819  0.82604  0.04911  1.0000
  Fe  Fe66      1.0  0.73705  0.02446  0.56838  1.0000
  S   S128      1.0  0.73998  0.01291  0.45989  1.0000
  H   H513      1.0  0.72447  0.86436  0.50108  1.0000
  H   H514      1.0  0.66865  0.88216  0.60109  1.0000
  H   H515      1.0  0.67777  0.99806  0.60180  1.0000
  S   S129      1.0  0.58000  0.93573  0.89981  1.0000
  Fe  Fe67      1.0  0.75609  0.02107  0.71126  1.0000
  S   S130      1.0  0.63571  0.92063  0.60917  1.0000
  S   S131      1.0  0.72833  0.99938  0.65660  1.0000
  C   C324      1.0  0.74480  0.98197  0.45053  1.0000
  H   H516      1.0  0.73767  0.93836  0.33347  1.0000
  H   H517      1.0  0.65016  0.89055  0.48872  1.0000
  H   H518      1.0  0.69983  0.87142  0.60635  1.0000
  S   S132      1.0  0.67801  0.82862  0.32361  1.0000
  Fe  Fe68      1.0  0.70798  0.85183  0.27839  1.0000
  H   H519      1.0  0.65780  0.86052  0.46227  1.0000
  H   H520      1.0  0.70067  0.91223  0.45374  1.0000
  H   H521      1.0  0.66697  0.95858  0.55545  1.0000
  C   C325      1.0  0.70689  0.86438  0.47261  1.0000
  H   H522      1.0  0.70050  0.84547  0.46890  1.0000
  Fe  Fe69      1.0  0.75975  0.85288  0.21416  1.0000
  H   H523      1.0  0.68316  0.91701  0.53083  1.0000
  H   H524      1.0  0.67603  0.85217  0.57591  1.0000
  H   H525      1.0  0.71139  0.87084  0.42017  1.0000
  C   C326      1.0  0.66497  0.87917  0.46538  1.0000
  C   C327      1.0  0.69694  0.90489  0.50610  1.0000
  C   C328      1.0  0.73871  0.97125  0.38931  1.0000
  C   C329      1.0  0.65789  0.96467  0.60153  1.0000
  H   H526      1.0  0.71449  0.90613  0.53434  1.0000
  C   C330      1.0  0.64074  0.94997  0.63613  1.0000
  C   C331      1.0  0.74261  0.94653  0.38070  1.0000
  H   H527      1.0  0.66809  0.88590  0.41214  1.0000
  H   H528      1.0  0.66665  0.83971  0.18327  1.0000
  Fe  Fe70      1.0  0.72320  0.89257  0.18394  1.0000
  H   H529      1.0  0.71761  0.92380  0.89984  1.0000
  H   H530      1.0  0.67282  0.95142  0.95460  1.0000
  Fe  Fe71      1.0  0.63638  0.86892  0.82202  1.0000
  S   S133      1.0  0.66880  0.85102  0.87217  1.0000
  Fe  Fe72      1.0  0.59504  0.90610  0.83459  1.0000
  Fe  Fe73      1.0  0.62145  0.89952  0.69978  1.0000
  Fe  Fe74      1.0  0.70150  0.02827  0.68741  1.0000
  C   C332      1.0  0.75311  0.93265  0.43288  1.0000
  H   H531      1.0  0.73785  0.96427  0.90048  1.0000
  S   S134      1.0  0.59770  0.86694  0.86427  1.0000
  S   S135      1.0  0.63498  0.90864  0.80282  1.0000
  S   S136      1.0  0.66325  0.02069  0.72730  1.0000
  H   H532      1.0  0.72089  0.99048  0.87271  1.0000
  C   C333      1.0  0.63487  0.98056  0.72125  1.0000
  H   H533      1.0  0.66364  0.95750  0.83288  1.0000
  H   H534      1.0  0.67772  0.98656  0.83481  1.0000
  H   H535      1.0  0.76016  0.97625  0.54984  1.0000
  C   C334      1.0  0.69074  0.96080  0.94556  1.0000
  C   C335      1.0  0.68156  0.96712  0.82688  1.0000
  H   H536      1.0  0.61506  0.94718  0.72113  1.0000
  H   H537      1.0  0.68767  0.98012  0.95688  1.0000
  H   H538      1.0  0.62646  0.98633  0.76857  1.0000
  H   H539      1.0  0.68680  0.92142  0.86908  1.0000
  H   H540      1.0  0.68794  0.96524  0.77301  1.0000
  N   N34       1.0  0.70004  0.95763  0.87506  1.0000
  C   C336      1.0  0.69795  0.89900  0.03695  1.0000
  C   C337      1.0  0.71303  0.88098  0.00942  1.0000
  C   C338      1.0  0.70411  0.86647  0.95809  1.0000
  C   C339      1.0  0.67995  0.86963  0.93520  1.0000
  C   C340      1.0  0.66490  0.88768  0.96263  1.0000
  C   C341      1.0  0.67396  0.90246  0.01321  1.0000
  H   H541      1.0  0.73168  0.87849  0.02719  1.0000
  H   H542      1.0  0.71599  0.85297  0.93573  1.0000
  H   H543      1.0  0.64613  0.89007  0.94569  1.0000
  H   H544      1.0  0.66214  0.91615  0.03523  1.0000
  C   C342      1.0  0.70427  0.93176  0.86306  1.0000
  S   S137      1.0  0.62674  0.85977  0.71529  1.0000
  H   H545      1.0  0.60736  0.81165  0.76934  1.0000
  H   H546      1.0  0.73107  0.96885  0.81197  1.0000
  C   C343      1.0  0.81016  0.87293  0.12094  1.0000
  H   H547      1.0  0.69327  0.82220  0.03275  1.0000
  S   S138      1.0  0.70905  0.91705  0.10123  1.0000
  C   C344      1.0  0.72348  0.97084  0.86468  1.0000
  S   S139      1.0  0.78372  0.00510  0.78332  1.0000
  S   S140      1.0  0.72187  0.85265  0.17013  1.0000
  C   C345      1.0  0.62877  0.95820  0.69505  1.0000
  H   H548      1.0  0.70393  0.95333  0.98357  1.0000
  H   H549      1.0  0.71163  0.92870  0.81069  1.0000
  H   H550      1.0  0.65266  0.81380  0.09065  1.0000
  H   H551      1.0  0.69913  0.81202  0.94775  1.0000
  C   C346      1.0  0.65298  0.99467  0.68865  1.0000
  S   S141      1.0  0.76730  0.04393  0.62040  1.0000
  H   H552      1.0  0.80276  0.89025  0.33657  1.0000
  S   S142      1.0  0.79241  0.83100  0.17766  1.0000
  H   H553      1.0  0.78595  0.93077  0.31027  1.0000
  C   C347      1.0  0.66261  0.82095  0.19378  1.0000
  H   H554      1.0  0.58910  0.98959  0.63469  1.0000
  C   C348      1.0  0.75507  0.96797  0.50295  1.0000
  H   H555      1.0  0.61794  0.82854  0.96495  1.0000
  S   S143      1.0  0.76213  0.89301  0.22071  1.0000
  H   H556      1.0  0.76756  0.93263  0.53430  1.0000
  H   H557      1.0  0.79702  0.99989  0.64194  1.0000
  H   H558      1.0  0.79127  0.87692  0.10748  1.0000
  S   S144      1.0  0.70767  0.05156  0.59487  1.0000
  S   S145      1.0  0.75923  0.90201  0.42193  1.0000
  C   C349      1.0  0.66552  0.81127  0.25956  1.0000
  S   S146      1.0  0.74578  0.84772  0.32112  1.0000
  H   H559      1.0  0.80252  0.93178  0.23031  1.0000
  Fe  Fe75      1.0  0.58778  0.86065  0.75586  1.0000
  Fe  Fe76      1.0  0.74495  0.88782  0.32446  1.0000
  C   C350      1.0  0.75935  0.94334  0.49394  1.0000
  S   S147      1.0  0.58143  0.89974  0.72972  1.0000
  H   H560      1.0  0.80843  0.92302  0.41751  1.0000
  C   C351      1.0  0.81248  0.00363  0.74127  1.0000
  C   C352      1.0  0.81608  0.85088  0.15227  1.0000
  H   H561      1.0  0.81897  0.89080  0.25608  1.0000
  S   S148      1.0  0.72842  0.04763  0.75085  1.0000
  C   C353      1.0  0.81374  0.00193  0.67044  1.0000
  H   H562      1.0  0.59100  0.82266  0.06613  1.0000
  H   H563      1.0  0.58422  0.99975  0.75730  1.0000
  C   C354      1.0  0.82028  0.89586  0.31032  1.0000
  H   H564      1.0  0.74472  0.81526  0.96533  1.0000
  H   H565      1.0  0.57426  0.96121  0.65049  1.0000
  C   C355      1.0  0.74120  0.80949  0.01918  1.0000
  H   H566      1.0  0.57320  0.81131  0.88815  1.0000
  C   C356      1.0  0.80396  0.93557  0.28548  1.0000
  H   H567      1.0  0.80623  0.95533  0.29058  1.0000
  C   C357      1.0  0.61590  0.80908  0.95430  1.0000
  H   H568      1.0  0.05661  0.27467  0.71065  1.0000
  H   H569      1.0  0.03636  0.10941  0.82188  1.0000
  H   H570      1.0  0.03069  0.21524  0.66734  1.0000
  H   H571      1.0  0.99754  0.24643  0.66314  1.0000
  S   S149      1.0  0.92336  0.11611  0.74801  1.0000
  H   H572      1.0  0.86651  0.08860  0.73748  1.0000
  H   H573      1.0  0.02970  0.22581  0.81955  1.0000
  C   C358      1.0  0.06879  0.07324  0.84489  1.0000
  H   H574      1.0  0.84753  0.07956  0.59355  1.0000
  S   S150      1.0  0.01556  0.17587  0.84137  1.0000
  H   H575      1.0  0.84449  0.11179  0.75779  1.0000
  N   N35       1.0  0.04290  0.07124  0.82330  1.0000
  S   S151      1.0  0.96776  0.06185  0.77405  1.0000
  C   C359      1.0  0.94952  0.13267  0.77048  1.0000
  C   C360      1.0  0.97345  0.12629  0.74804  1.0000
  C   C361      1.0  0.99401  0.13972  0.76784  1.0000
  C   C362      1.0  0.99066  0.15912  0.81145  1.0000
  C   C363      1.0  0.96675  0.16558  0.83283  1.0000
  C   C364      1.0  0.94628  0.15259  0.81191  1.0000
  H   H576      1.0  0.97601  0.11137  0.71423  1.0000
  H   H577      1.0  0.01232  0.13518  0.74915  1.0000
  H   H578      1.0  0.96401  0.18062  0.86623  1.0000
  H   H579      1.0  0.92791  0.15768  0.82916  1.0000
  H   H580      1.0  0.02889  0.09459  0.90143  1.0000
  C   C365      1.0  0.02867  0.09261  0.84524  1.0000
  H   H581      1.0  0.03684  0.27900  0.78376  1.0000
  Fe  Fe77      1.0  0.05514  0.16822  0.81216  1.0000
  H   H582      1.0  0.00015  0.27324  0.71187  1.0000
  H   H583      1.0  0.05714  0.21980  0.71847  1.0000
  H   H584      1.0  0.02312  0.06817  0.72977  1.0000
  H   H585      1.0  0.00548  0.24798  0.81636  1.0000
  H   H586      1.0  0.85899  0.11122  0.67491  1.0000
  Fe  Fe78      1.0  0.93217  0.07706  0.73641  1.0000
  N   N36       1.0  0.02922  0.24725  0.72715  1.0000
  C   C366      1.0  0.04309  0.22925  0.68710  1.0000
  C   C367      1.0  0.01636  0.23508  0.78517  1.0000
  H   H587      1.0  0.06070  0.25643  0.78598  1.0000
  H   H588      1.0  0.00900  0.09164  0.83014  1.0000
  H   H589      1.0  0.02009  0.26878  0.63895  1.0000
  C   C368      1.0  0.84041  0.06884  0.63809  1.0000
  C   C369      1.0  0.04656  0.26514  0.75303  1.0000
  C   C370      1.0  0.01092  0.25948  0.68333  1.0000
  C   C371      1.0  0.04233  0.06978  0.74828  1.0000
  H   H590      1.0  0.00343  0.22108  0.76777  1.0000
  C   C372      1.0  0.85102  0.09968  0.71674  1.0000
  H   H591      1.0  0.05053  0.08608  0.72299  1.0000
  S   S152      1.0  0.93442  0.05932  0.63557  1.0000
  N   N37       1.0  0.83080  0.08450  0.69251  1.0000
  H   H592      1.0  0.05322  0.23773  0.64299  1.0000
  H   H593      1.0  0.07003  0.07465  0.90109  1.0000
  S   S153      1.0  0.06885  0.16340  0.70519  1.0000
  H   H594      1.0  0.83568  0.05760  0.77143  1.0000
  H   H595      1.0  0.85588  0.05722  0.65634  1.0000
  Fe  Fe79      1.0  0.95125  0.49546  0.59022  1.0000
  H   H596      1.0  0.04444  0.42548  0.37201  1.0000
  S   S154      1.0  0.95899  0.45570  0.59551  1.0000
  H   H597      1.0  0.99254  0.44759  0.39593  1.0000
  H   H598      1.0  0.99587  0.48681  0.64974  1.0000
  S   S155      1.0  0.93141  0.54625  0.38588  1.0000
  N   N38       1.0  0.01694  0.42429  0.45263  1.0000
  C   C373      1.0  0.00673  0.44842  0.43601  1.0000
  H   H599      1.0  0.04295  0.40834  0.52210  1.0000
  H   H600      1.0  0.98299  0.40561  0.43615  1.0000
  S   S156      1.0  0.91583  0.51152  0.55157  1.0000
  C   C374      1.0  0.83111  0.51616  0.63010  1.0000
  H   H601      1.0  0.03492  0.47789  0.70905  1.0000
  H   H602      1.0  0.88175  0.52893  0.43182  1.0000
  C   C375      1.0  0.98581  0.44958  0.64177  1.0000
  H   H603      1.0  0.03668  0.39578  0.40257  1.0000
  C   C376      1.0  0.85847  0.54410  0.68356  1.0000
  H   H604      1.0  0.01563  0.41233  0.34938  1.0000
  H   H605      1.0  0.98077  0.41115  0.64297  1.0000
  C   C377      1.0  0.03538  0.42630  0.50665  1.0000
  S   S157      1.0  0.88835  0.55357  0.70289  1.0000
  C   C378      1.0  0.02892  0.41406  0.39142  1.0000
  H   H606      1.0  0.99760  0.45657  0.48150  1.0000
  H   H607      1.0  0.02143  0.46098  0.41763  1.0000
  Fe  Fe80      1.0  0.94064  0.53756  0.49498  1.0000
  H   H608      1.0  0.00386  0.39033  0.49307  1.0000
  C   C379      1.0  0.99670  0.40834  0.47663  1.0000
  C   C380      1.0  0.99273  0.42571  0.65647  1.0000
  C   C381      1.0  0.02319  0.46330  0.69438  1.0000
  H   H609      1.0  0.98641  0.41612  0.52053  1.0000
  S   S158      1.0  0.97597  0.51944  0.52648  1.0000
  H   H610      1.0  0.02719  0.43461  0.55282  1.0000
  H   H611      1.0  0.87055  0.51140  0.63627  1.0000
  C   C382      1.0  0.00103  0.46836  0.66104  1.0000
  C   C383      1.0  0.01529  0.42062  0.68792  1.0000
  C   C384      1.0  0.03051  0.43944  0.70688  1.0000
  S   S159      1.0  0.05897  0.43346  0.74490  1.0000
  S   S160      1.0  0.95162  0.51822  0.68297  1.0000
  H   H612      1.0  0.86153  0.52445  0.50438  1.0000
  H   H613      1.0  0.02073  0.40217  0.69844  1.0000
  C   C385      1.0  0.86309  0.53339  0.45329  1.0000
  C   C386      1.0  0.85495  0.52284  0.64862  1.0000
  Fe  Fe81      1.0  0.91853  0.53674  0.63868  1.0000
  Fe  Fe82      1.0  0.97361  0.54354  0.61628  1.0000
  H   H614      1.0  0.05116  0.43780  0.48977  1.0000
  H   H615      1.0  0.84917  0.52506  0.42042  1.0000
  H   H616      1.0  0.82846  0.49974  0.60268  1.0000
  S   S161      1.0  0.06558  0.36541  0.67227  1.0000
  H   H617      1.0  0.96551  0.55684  0.77676  1.0000
  H   H618      1.0  0.93246  0.55568  0.78662  1.0000
  H   H619      1.0  0.98332  0.64761  0.32297  1.0000
  S   S162      1.0  0.00054  0.66808  0.53629  1.0000
  H   H620      1.0  0.91951  0.61018  0.21574  1.0000
  H   H621      1.0  0.92495  0.61912  0.83794  1.0000
  C   C387      1.0  0.93104  0.62470  0.31037  1.0000
  C   C388      1.0  0.00232  0.63887  0.57124  1.0000
  H   H622      1.0  0.90935  0.59114  0.82608  1.0000
  C   C389      1.0  0.96735  0.75418  0.87003  1.0000
  S   S163      1.0  0.00758  0.72818  0.63316  1.0000
  H   H623      1.0  0.95114  0.77080  0.99226  1.0000
  S   S164      1.0  0.03654  0.78065  0.51502  1.0000
  C   C390      1.0  0.00544  0.59194  0.62535  1.0000
  H   H624      1.0  0.01539  0.66444  0.24401  1.0000
  C   C391      1.0  0.99396  0.61953  0.53391  1.0000
  C   C392      1.0  0.99556  0.59606  0.56092  1.0000
  H   H625      1.0  0.98617  0.62261  0.48420  1.0000
  H   H626      1.0  0.98922  0.58116  0.53163  1.0000
  C   C393      1.0  0.01204  0.63468  0.63588  1.0000
  H   H627      1.0  0.01732  0.64952  0.66636  1.0000
  H   H628      1.0  0.91924  0.77276  0.96968  1.0000
  C   C394      1.0  0.93774  0.61906  0.37750  1.0000
  C   C395      1.0  0.93829  0.59502  0.40112  1.0000
  C   C396      1.0  0.93199  0.57652  0.35779  1.0000
  C   C397      1.0  0.92514  0.58217  0.29097  1.0000
  H   H629      1.0  0.03587  0.66807  0.31378  1.0000
  H   H630      1.0  0.94245  0.63326  0.41149  1.0000
  S   S165      1.0  0.89033  0.74442  0.07379  1.0000
  H   H631      1.0  0.92023  0.56794  0.25720  1.0000
  H   H632      1.0  0.84077  0.57506  0.72742  1.0000
  H   H633      1.0  0.02848  0.69342  0.25926  1.0000
  C   C398      1.0  0.01392  0.61121  0.66261  1.0000
  C   C399      1.0  0.90554  0.78964  0.10236  1.0000
  H   H634      1.0  0.92580  0.77272  0.81692  1.0000
  C   C400      1.0  0.92466  0.60616  0.26736  1.0000
  S   S166      1.0  0.94055  0.56400  0.57894  1.0000
  Fe  Fe83      1.0  0.02401  0.69453  0.58981  1.0000
  S   S167      1.0  0.05302  0.71373  0.52728  1.0000
  N   N39       1.0  0.99944  0.68277  0.32951  1.0000
  C   C401      1.0  0.00734  0.69915  0.38301  1.0000
  C   C402      1.0  0.97985  0.69453  0.28899  1.0000
  C   C403      1.0  0.98979  0.66036  0.36160  1.0000
  C   C404      1.0  0.02076  0.67695  0.28459  1.0000
  H   H635      1.0  0.02221  0.69083  0.41422  1.0000
  H   H636      1.0  0.99176  0.70342  0.41879  1.0000
  H   H637      1.0  0.01447  0.71642  0.36115  1.0000
  H   H638      1.0  0.97406  0.68293  0.24675  1.0000
  H   H639      1.0  0.96300  0.69805  0.32082  1.0000
  H   H640      1.0  0.98609  0.71196  0.26606  1.0000
  H   H641      1.0  0.00406  0.65097  0.39259  1.0000
  H   H642      1.0  0.94375  0.59089  0.45258  1.0000
  H   H643      1.0  0.97381  0.66412  0.39644  1.0000
  H   H644      1.0  0.94146  0.71424  0.90129  1.0000
  S   S168      1.0  0.93131  0.65492  0.28117  1.0000
  H   H645      1.0  0.03553  0.78701  0.65974  1.0000
  H   H646      1.0  0.83777  0.72755  0.16358  1.0000
  H   H647      1.0  0.82241  0.79147  0.12731  1.0000
  H   H648      1.0  0.83077  0.58443  0.48869  1.0000
  H   H649      1.0  0.83755  0.72989  0.25444  1.0000
  C   C405      1.0  0.04680  0.80407  0.56479  1.0000
  C   C406      1.0  0.94945  0.56395  0.80662  1.0000
  H   H650      1.0  0.83999  0.59603  0.96120  1.0000
  C   C407      1.0  0.92695  0.59922  0.84273  1.0000
  S   S169      1.0  0.88055  0.68221  0.16633  1.0000
  H   H651      1.0  0.02114  0.60814  0.71299  1.0000
  H   H652      1.0  0.90461  0.75424  0.86627  1.0000
  C   C408      1.0  0.82211  0.68772  0.06313  1.0000
  S   S170      1.0  0.04907  0.68639  0.67714  1.0000
  Fe  Fe84      1.0  0.92603  0.66237  0.02331  1.0000
  S   S171      1.0  0.94814  0.64998  0.93248  1.0000
  C   C409      1.0  0.94218  0.79863  0.16574  1.0000
  S   S172      1.0  0.89056  0.68152  0.00080  1.0000
  H   H653      1.0  0.97135  0.62044  0.82352  1.0000
  S   S173      1.0  0.83695  0.64054  0.06751  1.0000
  H   H654      1.0  0.98170  0.75181  0.90954  1.0000
  H   H655      1.0  0.93418  0.73806  0.15524  1.0000
  H   H656      1.0  0.05923  0.57858  0.61813  1.0000
  C   C410      1.0  0.87823  0.56985  0.50161  1.0000
  S   S174      1.0  0.93724  0.68813  0.10343  1.0000
  H   H657      1.0  0.89717  0.56661  0.48083  1.0000
  H   H658      1.0  0.00904  0.71348  0.96171  1.0000
  Fe  Fe85      1.0  0.03491  0.72162  0.71613  1.0000
  S   S175      1.0  0.02544  0.72692  0.82641  1.0000
  C   C411      1.0  0.93062  0.75707  0.14791  1.0000
  C   C412      1.0  0.93875  0.72958  0.93621  1.0000
  C   C413      1.0  0.97069  0.67048  0.90412  1.0000
  C   C414      1.0  0.98257  0.68512  0.95006  1.0000
  Fe  Fe86      1.0  0.03898  0.74670  0.57841  1.0000
  H   H659      1.0  0.95208  0.72720  0.97826  1.0000
  C   C415      1.0  0.99384  0.68944  0.81069  1.0000
  C   C416      1.0  0.97642  0.67260  0.83447  1.0000
  H   H660      1.0  0.97852  0.68327  0.00394  1.0000
  H   H661      1.0  0.97055  0.73988  0.83205  1.0000
  H   H662      1.0  0.96696  0.66171  0.79846  1.0000
  C   C417      1.0  0.94515  0.59819  0.72999  1.0000
  C   C418      1.0  0.84182  0.73981  0.20591  1.0000
  Fe  Fe87      1.0  0.87407  0.65715  0.08097  1.0000
  H   H663      1.0  0.97083  0.77172  0.84340  1.0000
  Fe  Fe88      1.0  0.89998  0.70511  0.08729  1.0000
  H   H664      1.0  0.87735  0.56161  0.55371  1.0000
  H   H665      1.0  0.88985  0.79586  0.07343  1.0000
  H   H666      1.0  0.92913  0.59478  0.89781  1.0000
  S   S176      1.0  0.90871  0.63565  0.09639  1.0000
  H   H667      1.0  0.96264  0.76785  0.20307  1.0000
  H   H668      1.0  0.91986  0.72801  0.95914  1.0000
  H   H669      1.0  0.85408  0.78333  0.25278  1.0000
  C   C419      1.0  0.97138  0.60050  0.82742  1.0000
  C   C420      1.0  0.94667  0.77393  0.17505  1.0000
  C   C421      1.0  0.92151  0.80646  0.12970  1.0000
  H   H670      1.0  0.94176  0.79056  0.92374  1.0000
  H   H671      1.0  0.99788  0.69125  0.75672  1.0000
  C   C422      1.0  0.04487  0.80217  0.63569  1.0000
  Fe  Fe89      1.0  0.91689  0.66280  0.17574  1.0000
  N   N40       1.0  0.94823  0.59048  0.80176  1.0000
  H   H672      1.0  0.87586  0.58962  0.50663  1.0000
  C   C423      1.0  0.99994  0.70206  0.92622  1.0000
  C   C424      1.0  0.00551  0.70426  0.85651  1.0000
  C   C425      1.0  0.91009  0.76494  0.11131  1.0000
  N   N41       1.0  0.94213  0.75294  0.90001  1.0000
  H   H673      1.0  0.83047  0.76986  0.30660  1.0000
  C   C426      1.0  0.93845  0.77265  0.94845  1.0000
  H   H674      1.0  0.86208  0.74320  0.20363  1.0000
  S   S177      1.0  0.00516  0.56304  0.66192  1.0000
  H   H675      1.0  0.84734  0.56388  0.35414  1.0000
  C   C427      1.0  0.86168  0.57070  0.38846  1.0000
  C   C428      1.0  0.92386  0.75527  0.84529  1.0000
  H   H676      1.0  0.94483  0.61814  0.72415  1.0000
  H   H677      1.0  0.92763  0.59125  0.70938  1.0000
  H   H678      1.0  0.96056  0.59144  0.69732  1.0000
  H   H679      1.0  0.84131  0.69210  0.05441  1.0000
  H   H680      1.0  0.92620  0.74060  0.80793  1.0000
  C   C429      1.0  0.83448  0.56476  0.48631  1.0000
  N   N42       1.0  0.85935  0.55968  0.45742  1.0000
  H   H681      1.0  0.98776  0.59389  0.79795  1.0000
  C   C430      1.0  0.83320  0.77449  0.13399  1.0000
  H   H682      1.0  0.85988  0.59064  0.38967  1.0000
  H   H683      1.0  0.88002  0.56654  0.36468  1.0000
  H   H684      1.0  0.82851  0.59510  0.83865  1.0000
  H   H685      1.0  0.85310  0.77909  0.12927  1.0000
  C   C431      1.0  0.83803  0.55847  0.70111  1.0000
  H   H686      1.0  0.97401  0.59558  0.88200  1.0000
  C   C432      1.0  0.83414  0.77852  0.25587  1.0000
  N   N43       1.0  0.82748  0.76250  0.20023  1.0000
  H   H687      1.0  0.06190  0.57898  0.70876  1.0000
  S   S178      1.0  0.06498  0.74329  0.66553  1.0000
  H   H688      1.0  0.82897  0.76271  0.09080  1.0000
  H   H689      1.0  0.82323  0.79559  0.25370  1.0000
  H   H690      1.0  0.82441  0.56780  0.97513  1.0000
  H   H691      1.0  0.83245  0.55726  0.53902  1.0000
  H   H692      1.0  0.95143  0.55750  0.86022  1.0000
  Fe  Fe90      1.0  0.95386  0.90606  0.24052  1.0000
  S   S179      1.0  0.96008  0.92138  0.34393  1.0000
  H   H693      1.0  0.82870  0.94747  0.39638  1.0000
  C   C433      1.0  0.02171  0.84522  0.28823  1.0000
  H   H694      1.0  0.05455  0.94947  0.86517  1.0000
  C   C434      1.0  0.85934  0.86242  0.15230  1.0000
  H   H695      1.0  0.02768  0.88008  0.37937  1.0000
  H   H696      1.0  0.82383  0.90707  0.08338  1.0000
  C   C435      1.0  0.01150  0.82115  0.38843  1.0000
  H   H697      1.0  0.84123  0.91801  0.41482  1.0000
  H   H698      1.0  0.92730  0.94553  0.94952  1.0000
  H   H699      1.0  0.02289  0.86365  0.26515  1.0000
  H   H700      1.0  0.04061  0.83722  0.28622  1.0000
  H   H701      1.0  0.87833  0.85831  0.16454  1.0000
  S   S180      1.0  0.92469  0.87776  0.23756  1.0000
  C   C436      1.0  0.99129  0.98200  0.50058  1.0000
  C   C437      1.0  0.99147  0.92433  0.36225  1.0000
  C   C438      1.0  0.00902  0.92659  0.30957  1.0000
  C   C439      1.0  0.03406  0.92898  0.32460  1.0000
  C   C440      1.0  0.04172  0.92885  0.39229  1.0000
  C   C441      1.0  0.02416  0.92649  0.44517  1.0000
  C   C442      1.0  0.99901  0.92432  0.43009  1.0000
  H   H702      1.0  0.00330  0.92695  0.25715  1.0000
  H   H703      1.0  0.04761  0.93089  0.28361  1.0000
  H   H704      1.0  0.02997  0.92632  0.49745  1.0000
  H   H705      1.0  0.98544  0.92234  0.47094  1.0000
  H   H706      1.0  0.85135  0.96698  0.95662  1.0000
  H   H707      1.0  0.02732  0.93550  0.90097  1.0000
  C   C443      1.0  0.03194  0.04935  0.85495  1.0000
  H   H708      1.0  0.04617  0.01945  0.55491  1.0000
  H   H709      1.0  0.83749  0.00182  0.58122  1.0000
  H   H710      1.0  0.86392  0.91822  0.30271  1.0000
  C   C444      1.0  0.98635  0.85567  0.35855  1.0000
  H   H711      1.0  0.98537  0.02919  0.47353  1.0000
  C   C445      1.0  0.97647  0.01680  0.43776  1.0000
  C   C446      1.0  0.95130  0.99919  0.52835  1.0000
  H   H712      1.0  0.97836  0.85670  0.41099  1.0000
  N   N44       1.0  0.01179  0.84581  0.35879  1.0000
  C   C447      1.0  0.04053  0.91385  0.78476  1.0000
  H   H713      1.0  0.04646  0.87315  0.85891  1.0000
  H   H714      1.0  0.04713  0.85494  0.39903  1.0000
  C   C448      1.0  0.02760  0.86127  0.39967  1.0000
  H   H715      1.0  0.95944  0.01128  0.56612  1.0000
  H   H716      1.0  0.98996  0.01358  0.39539  1.0000
  H   H717      1.0  0.98585  0.87415  0.33584  1.0000
  H   H718      1.0  0.00515  0.97780  0.45979  1.0000
  H   H719      1.0  0.94075  0.98652  0.40102  1.0000
  C   C449      1.0  0.05524  0.81979  0.67585  1.0000
  H   H720      1.0  0.86077  0.94147  0.90773  1.0000
  H   H721      1.0  0.86108  0.93963  0.99897  1.0000
  H   H722      1.0  0.90513  0.92937  0.90187  1.0000
  N   N45       1.0  0.96914  0.99402  0.47250  1.0000
  H   H723      1.0  0.93429  0.00826  0.50922  1.0000
  H   H724      1.0  0.99948  0.80913  0.35909  1.0000
  C   C450      1.0  0.85831  0.00584  0.67251  1.0000
  S   S181      1.0  0.88644  0.00944  0.62805  1.0000
  C   C451      1.0  0.82586  0.92787  0.38952  1.0000
  Fe  Fe91      1.0  0.96816  0.04162  0.67720  1.0000
  C   C452      1.0  0.84078  0.84541  0.16664  1.0000
  H   H725      1.0  0.95198  0.96066  0.44750  1.0000
  C   C453      1.0  0.95756  0.97812  0.42320  1.0000
  H   H726      1.0  0.03033  0.81297  0.38878  1.0000
  S   S182      1.0  0.90860  0.04830  0.78551  1.0000
  H   H727      1.0  0.04259  0.03298  0.84068  1.0000
  S   S183      1.0  0.00111  0.03901  0.60826  1.0000
  H   H728      1.0  0.02241  0.89130  0.89682  1.0000
  H   H729      1.0  0.84556  0.82837  0.19053  1.0000
  H   H730      1.0  0.00451  0.82089  0.44213  1.0000
  C   C454      1.0  0.04381  0.01313  0.60711  1.0000
  C   C455      1.0  0.06714  0.83955  0.64506  1.0000
  C   C456      1.0  0.04748  0.93293  0.89175  1.0000
  C   C457      1.0  0.06136  0.99766  0.63600  1.0000
  H   H731      1.0  0.91786  0.82548  0.12265  1.0000
  C   C458      1.0  0.83425  0.00561  0.77804  1.0000
  C   C459      1.0  0.89517  0.97363  0.01586  1.0000
  S   S184      1.0  0.94045  0.92615  0.14801  1.0000
  H   H732      1.0  0.84739  0.92448  0.22624  1.0000
  H   H733      1.0  0.97679  0.95541  0.07847  1.0000
  C   C460      1.0  0.02312  0.02019  0.64541  1.0000
  S   S185      1.0  0.96266  0.81949  0.19865  1.0000
  S   S186      1.0  0.87554  0.90709  0.10916  1.0000
  S   S187      1.0  0.94873  0.00927  0.72140  1.0000
  S   S188      1.0  0.94964  0.01929  0.92386  1.0000
  Fe  Fe92      1.0  0.96636  0.90230  0.08902  1.0000
  C   C461      1.0  0.86480  0.95176  0.95411  1.0000
  C   C462      1.0  0.85716  0.00699  0.74354  1.0000
  H   H734      1.0  0.88251  0.99285  0.89556  1.0000
  H   H735      1.0  0.98651  0.96482  0.52755  1.0000
  Fe  Fe93      1.0  0.94473  0.03137  0.81516  1.0000
  H   H736      1.0  0.00057  0.99354  0.53767  1.0000
  H   H737      1.0  0.97051  0.97386  0.38030  1.0000
  C   C463      1.0  0.01998  0.01198  0.71280  1.0000
  C   C464      1.0  0.03791  0.99699  0.74230  1.0000
  H   H738      1.0  0.00385  0.01727  0.74225  1.0000
  H   H739      1.0  0.03551  0.99055  0.79434  1.0000
  Fe  Fe94      1.0  0.91377  0.89589  0.13959  1.0000
  C   C465      1.0  0.97985  0.94449  0.97432  1.0000
  C   C466      1.0  0.97439  0.96070  0.02578  1.0000
  C   C467      1.0  0.96603  0.98393  0.00930  1.0000
  C   C468      1.0  0.96302  0.99108  0.94128  1.0000
  C   C469      1.0  0.96927  0.97518  0.88940  1.0000
  C   C470      1.0  0.97775  0.95186  0.90595  1.0000
  S   S189      1.0  0.93861  0.87323  0.07423  1.0000
  H   H740      1.0  0.96150  0.99630  0.04953  1.0000
  H   H741      1.0  0.96712  0.98063  0.83678  1.0000
  H   H742      1.0  0.98188  0.93933  0.86592  1.0000
  H   H743      1.0  0.97387  0.84442  0.32821  1.0000
  H   H744      1.0  0.91429  0.98087  0.01585  1.0000
  C   C471      1.0  0.05854  0.98985  0.70373  1.0000
  C   C472      1.0  0.85318  0.88480  0.12311  1.0000
  Fe  Fe95      1.0  0.91458  0.02875  0.68791  1.0000
  H   H745      1.0  0.91400  0.98299  0.88974  1.0000
  N   N46       1.0  0.05258  0.91127  0.85137  1.0000
  H   H746      1.0  0.05622  0.93159  0.94246  1.0000
  Fe  Fe96      1.0  0.95234  0.85786  0.17328  1.0000
  S   S190      1.0  0.98796  0.91472  0.99547  1.0000
  H   H747      1.0  0.85196  0.94798  0.28574  1.0000
  H   H748      1.0  0.94544  0.98248  0.55616  1.0000
  H   H749      1.0  0.06028  0.82523  0.47923  1.0000
  H   H750      1.0  0.05305  0.05400  0.72962  1.0000
  C   C473      1.0  0.89459  0.97658  0.89310  1.0000
  C   C474      1.0  0.90773  0.93964  0.94907  1.0000
  H   H751      1.0  0.89289  0.96173  0.06193  1.0000
  H   H752      1.0  0.90500  0.92694  0.99319  1.0000
  H   H753      1.0  0.96022  0.02647  0.41629  1.0000
  C   C475      1.0  0.04277  0.88980  0.88808  1.0000
  H   H754      1.0  0.02112  0.86177  0.45374  1.0000
  H   H755      1.0  0.05124  0.88740  0.93893  1.0000
  S   S191      1.0  0.06569  0.92072  0.61131  1.0000
  H   H756      1.0  0.87389  0.00904  0.77173  1.0000
  H   H757      1.0  0.88232  0.98921  0.02131  1.0000
  H   H758      1.0  0.03156  0.05021  0.91148  1.0000
  N   N47       1.0  0.82453  0.92194  0.31672  1.0000
  H   H759      1.0  0.89073  0.96742  0.84471  1.0000
  N   N48       1.0  0.89057  0.96040  0.95298  1.0000
  S   S192      1.0  0.98243  0.88495  0.18252  1.0000
  C   C476      1.0  0.83665  0.00282  0.63615  1.0000
  C   C477      1.0  0.82864  0.88990  0.10669  1.0000
  H   H760      1.0  0.02012  0.91563  0.79089  1.0000
  H   H761      1.0  0.01259  0.04683  0.83885  1.0000
  C   C478      1.0  0.05825  0.82407  0.53391  1.0000
  C   C479      1.0  0.84799  0.92847  0.28144  1.0000
  H   H762      1.0  0.04449  0.89802  0.75236  1.0000
  H   H763      1.0  0.83552  0.88500  0.33285  1.0000
  H   H764      1.0  0.00976  0.83438  0.25522  1.0000
  H   H765      1.0  0.83327  0.00696  0.83284  1.0000
  H   H766      1.0  0.05425  0.81797  0.73077  1.0000
  C   C480      1.0  0.06823  0.84196  0.57406  1.0000
  H   H767      1.0  0.04719  0.93012  0.75618  1.0000
  H   H768      1.0  0.82580  0.05672  0.61964  1.0000
