data_image0
_chemical_formula_structural       H2CH3CNH3S2HC2FeS3HFe2SHFeSH3C4H7CH4S2H2NCS2FeSFeCFeHSCSFeCHCHC2H2SCHCHCH2C2HNC2H3CH5C2HCSC2H2CH4NHCHCH3CFeSCHFeSFeS2CSHCSHC2H3FeCH2CHNHCH3CH2CH3SCH4C2H2CH2SCH2S3CNHC2H2CFeSHCSCFeC2FeHSFeSFeCH2C2H3CH4CHSFeHCNHC3H11SHNHC3FeSHCSFeSFe2SCSH2SCH2CH4CHCHC3H2NSC2SHCH4C2SC2HC2HCSFeH5CH3CH3CSFeSCS2HFe2C2HCH2CHC2H11CH2NSC5H3CSC2H2CHNCHCH2CSCH3CH3NCHSCHCSHS2CH2FeC2FeCSFe2HCH3SHCH3C3NH3CH5C2HSCSH3C3FeCHCH2CHCH4C2H3S2HSFe3SC4HSH6C2H3CH2CHNHC2SH2CH2CH4CNSCFeHCSH2CH4CSCHC2HSCH3CSFe2H2C2SHCFeSCHSH2CHCH2CFeSHCH2CH6CHC3NHSCH3CSHFeSHSHCH8CNHCH2CH2CHCH3CSHCNC4H2CHSHSH2CH2SHSH2FeSHCFeHC3HCHC2SCSHSHFeH2FeCSC2H2C4SHFeC2H2S2FeNHCH9CH2SC2HNH4CH2FeSFeSHC2NCH3CHCH2CHCHCHCH4CHCH6NHCHCHCHC2SCHCH6C2HC4H2CHC2SH2C2SH3C5HCH3CH4SHC2H3CHCNH4FeSHCH4C2H2NSHCHCHFeCH2CH4SH2CH2CHFeC7SNH2S2HCHFeCH2CHC2FeS3HCFeCHS2CFe2C2HSH3NHCNSCHCH3CH6C2H2CH3CH2SC2H2C3HCHNCHSCH11C2H2FeHCH2CHCNCHFeHCSNH2C2SH3CHC2SH2SCS2C3H2C2H3C2H2CH2CH2FeSH2CH3CH4CNC2HCHCFeCH3CS2FeSC2HFeSFeCH4CHC2HNHC2HCHSC3H4CHC3HCH5SH2SHC2HC2SC2H4CFeS2HNCHSCHFeHCH3CSCH2CH3CHCHCNHCSH2FeH2FeSHCHC2H4C2SC3NCH2CHCHCH2SHCH4SHSCHSH4CHCNHCH7SFeSHSCSNCFeHFe2S2C4H4CH4C2H7C3SC3H8SH2C2H2NHCH3SHCHCHFe2S3FeHFeS4H3S2CHN2H2CH3CH2CHC2H5CH2C2H2CH2C2NHCHC2HC3H7CFeNC2H3SFeHFeC2HCS2FeSCH2C2H6SH3CHCFeS2H2FeHC3HSHCSCH2C2SCH5NH3C2H4C2SCHCFeSCSFeNCSCHFeHCH2SH3CHCH3CNCH7CHCHSH2CHCHCH3NH2CH2CH3CSHFeCHCHFeSHSCSCFeS2C2HFeHCH2SHC3HNCH7C3H2SHCHFeSFeSFeS3FeCSHCH2CHCH2CH5NC2HCHSHS2CSHSC2SFe4H6CH
_chemical_formula_sum              "H768 C480 N48 S192 Fe96"
_cell_length_a       32.1046
_cell_length_b       32.1701
_cell_length_c       67.7759
_cell_angle_alpha    88.0452
_cell_angle_beta     90.5625
_cell_angle_gamma    89.1807

_space_group_name_H-M_alt    "P 1"
_space_group_IT_number       1

loop_
  _space_group_symop_operation_xyz
  'x, y, z'

loop_
  _atom_site_type_symbol
  _atom_site_label
  _atom_site_symmetry_multiplicity
  _atom_site_fract_x
  _atom_site_fract_y
  _atom_site_fract_z
  _atom_site_occupancy
  H   H1        1.0  0.50757  0.28791  0.15551  1.0000
  H   H2        1.0  0.48591  0.23991  0.14858  1.0000
  C   C1        1.0  0.51421  0.25410  0.15500  1.0000
  H   H3        1.0  0.51813  0.24236  0.17057  1.0000
  H   H4        1.0  0.51721  0.25006  0.11569  1.0000
  H   H5        1.0  0.53171  0.18485  0.13562  1.0000
  C   C2        1.0  0.54523  0.26327  0.12287  1.0000
  N   N1        1.0  0.55164  0.24578  0.14317  1.0000
  H   H6        1.0  0.53990  0.29752  0.12277  1.0000
  H   H7        1.0  0.44267  0.28484  0.08060  1.0000
  H   H8        1.0  0.29850  0.33569  0.19810  1.0000
  S   S1        1.0  0.53820  0.48863  0.13254  1.0000
  S   S2        1.0  0.44574  0.31507  0.12039  1.0000
  H   H9        1.0  0.47657  0.52144  0.15768  1.0000
  C   C3        1.0  0.45927  0.33797  0.09738  1.0000
  C   C4        1.0  0.47493  0.37831  0.09641  1.0000
  Fe  Fe1       1.0  0.44367  0.41298  0.17924  1.0000
  S   S3        1.0  0.40186  0.44646  0.20014  1.0000
  S   S4        1.0  0.44228  0.42515  0.14642  1.0000
  S   S5        1.0  0.45649  0.34449  0.17706  1.0000
  H   H10       1.0  0.47826  0.39568  0.10966  1.0000
  Fe  Fe2       1.0  0.46261  0.35835  0.14445  1.0000
  Fe  Fe3       1.0  0.51032  0.43640  0.15010  1.0000
  S   S6        1.0  0.51085  0.42934  0.18312  1.0000
  H   H11       1.0  0.36301  0.37103  0.18709  1.0000
  Fe  Fe4       1.0  0.52388  0.36188  0.17838  1.0000
  S   S7        1.0  0.53084  0.37107  0.14575  1.0000
  H   H12       1.0  0.44840  0.50920  0.17976  1.0000
  H   H13       1.0  0.51235  0.51552  0.20035  1.0000
  H   H14       1.0  0.54077  0.52546  0.17803  1.0000
  C   C5        1.0  0.52230  0.54046  0.18970  1.0000
  C   C6        1.0  0.45945  0.53531  0.17009  1.0000
  C   C7        1.0  0.34383  0.38459  0.19830  1.0000
  C   C8        1.0  0.30730  0.36470  0.20449  1.0000
  H   H15       1.0  0.54416  0.54408  0.09670  1.0000
  H   H16       1.0  0.55401  0.46824  0.09249  1.0000
  H   H17       1.0  0.39801  0.28880  0.28081  1.0000
  H   H18       1.0  0.33157  0.29251  0.26146  1.0000
  H   H19       1.0  0.06471  0.46860  0.25594  1.0000
  H   H20       1.0  0.06228  0.42223  0.29593  1.0000
  H   H21       1.0  0.19190  0.51714  0.20901  1.0000
  C   C9        1.0  0.07297  0.45501  0.29502  1.0000
  H   H22       1.0  0.17449  0.54409  0.25016  1.0000
  H   H23       1.0  0.08775  0.52781  0.27588  1.0000
  H   H24       1.0  0.20135  0.48566  0.23105  1.0000
  H   H25       1.0  0.24521  0.51074  0.25756  1.0000
  S   S8        1.0  0.21044  0.32002  0.28153  1.0000
  S   S9        1.0  0.08877  0.33149  0.29687  1.0000
  H   H26       1.0  0.09664  0.33443  0.25434  1.0000
  H   H27       1.0  0.10325  0.45515  0.28724  1.0000
  N   N2        1.0  0.22799  0.54665  0.23134  1.0000
  C   C10       1.0  0.25837  0.53439  0.24709  1.0000
  S   S10       1.0  0.23883  0.35494  0.22783  1.0000
  S   S11       1.0  0.15696  0.40214  0.26426  1.0000
  Fe  Fe5       1.0  0.15224  0.35544  0.28934  1.0000
  S   S12       1.0  0.18406  0.39438  0.31170  1.0000
  Fe  Fe6       1.0  0.24292  0.36372  0.30153  1.0000
  C   C11       1.0  0.22020  0.53450  0.29531  1.0000
  Fe  Fe7       1.0  0.19263  0.43864  0.28606  1.0000
  H   H28       1.0  0.25703  0.48093  0.30502  1.0000
  S   S13       1.0  0.17681  0.50623  0.28800  1.0000
  C   C12       1.0  0.25652  0.51427  0.30244  1.0000
  S   S14       1.0  0.25435  0.41214  0.27764  1.0000
  Fe  Fe8       1.0  0.21797  0.37079  0.25829  1.0000
  C   C13       1.0  0.05771  0.52581  0.28391  1.0000
  H   H29       1.0  0.24252  0.49408  0.21370  1.0000
  C   C14       1.0  0.21537  0.50928  0.22079  1.0000
  H   H30       1.0  0.27453  0.43333  0.23826  1.0000
  C   C15       1.0  0.28258  0.38186  0.21917  1.0000
  C   C16       1.0  0.29249  0.53727  0.30616  1.0000
  H   H31       1.0  0.06342  0.53747  0.29896  1.0000
  H   H32       1.0  0.07935  0.46487  0.31032  1.0000
  S   S15       1.0  0.30116  0.34877  0.31934  1.0000
  C   C17       1.0  0.29391  0.41948  0.22729  1.0000
  H   H33       1.0  0.28732  0.52083  0.24094  1.0000
  C   C18       1.0  0.06438  0.34023  0.25799  1.0000
  H   H34       1.0  0.31023  0.32511  0.27988  1.0000
  C   C19       1.0  0.35543  0.42184  0.20670  1.0000
  H   H35       1.0  0.42422  0.33592  0.28676  1.0000
  H   H36       1.0  0.37631  0.32259  0.29868  1.0000
  C   C20       1.0  0.39313  0.32201  0.28436  1.0000
  C   C21       1.0  0.33027  0.43943  0.22107  1.0000
  H   H37       1.0  0.30919  0.34222  0.25450  1.0000
  N   N3        1.0  0.36937  0.34487  0.26854  1.0000
  C   C22       1.0  0.32837  0.32530  0.26598  1.0000
  C   C23       1.0  0.39251  0.34359  0.24981  1.0000
  H   H38       1.0  0.32075  0.52153  0.31132  1.0000
  H   H39       1.0  0.37507  0.36035  0.23761  1.0000
  H   H40       1.0  0.39774  0.31109  0.24519  1.0000
  C   C24       1.0  0.36338  0.38862  0.27403  1.0000
  H   H41       1.0  0.34611  0.39078  0.28814  1.0000
  H   H42       1.0  0.39367  0.40439  0.27602  1.0000
  H   H43       1.0  0.34531  0.40674  0.26250  1.0000
  H   H44       1.0  0.33926  0.46828  0.22753  1.0000
  H   H45       1.0  0.42344  0.35853  0.25105  1.0000
  C   C25       1.0  0.45494  0.31599  0.07997  1.0000
  C   C26       1.0  0.26260  0.26002  0.35893  1.0000
  H   H46       1.0  0.23491  0.24215  0.36183  1.0000
  C   C27       1.0  0.26295  0.28934  0.34304  1.0000
  S   S16       1.0  0.29762  0.21718  0.39091  1.0000
  C   C28       1.0  0.29790  0.25411  0.37114  1.0000
  C   C29       1.0  0.29995  0.09942  0.41163  1.0000
  H   H47       1.0  0.29393  0.13360  0.41215  1.0000
  H   H48       1.0  0.27432  0.13353  0.37690  1.0000
  C   C30       1.0  0.28088  0.09934  0.37711  1.0000
  H   H49       1.0  0.23563  0.29395  0.33370  1.0000
  H   H50       1.0  0.29031  0.09128  0.36194  1.0000
  H   H51       1.0  0.27069  0.08354  0.41594  1.0000
  H   H52       1.0  0.25113  0.08338  0.38046  1.0000
  N   N4        1.0  0.31366  0.08756  0.39181  1.0000
  H   H53       1.0  0.32393  0.09099  0.42311  1.0000
  C   C31       1.0  0.35243  0.10953  0.38672  1.0000
  H   H54       1.0  0.36440  0.10057  0.37210  1.0000
  C   C32       1.0  0.43611  0.05660  0.42125  1.0000
  H   H55       1.0  0.34739  0.14384  0.38610  1.0000
  H   H56       1.0  0.55046  0.08910  0.40344  1.0000
  H   H57       1.0  0.53059  0.16128  0.41282  1.0000
  C   C33       1.0  0.33352  0.27748  0.36739  1.0000
  Fe  Fe9       1.0  0.35749  0.21807  0.40838  1.0000
  S   S17       1.0  0.41802  0.20459  0.39355  1.0000
  C   C34       1.0  0.53825  0.28786  0.41153  1.0000
  H   H58       1.0  0.36078  0.27333  0.37676  1.0000
  Fe  Fe10      1.0  0.44316  0.25514  0.41198  1.0000
  S   S18       1.0  0.46301  0.10149  0.41391  1.0000
  Fe  Fe11      1.0  0.43087  0.16240  0.41993  1.0000
  S   S19       1.0  0.38136  0.27302  0.42439  1.0000
  S   S20       1.0  0.46167  0.21178  0.43703  1.0000
  C   C35       1.0  0.54215  0.28048  0.43194  1.0000
  S   S21       1.0  0.36843  0.17210  0.43371  1.0000
  H   H59       1.0  0.51575  0.28534  0.44140  1.0000
  C   C36       1.0  0.33399  0.30641  0.35145  1.0000
  S   S22       1.0  0.48969  0.30157  0.40102  1.0000
  H   H60       1.0  0.52990  0.14304  0.43812  1.0000
  C   C37       1.0  0.55036  0.15585  0.42628  1.0000
  C   C38       1.0  0.40670  0.05747  0.43631  1.0000
  H   H61       1.0  0.40094  0.08585  0.44400  1.0000
  H   H62       1.0  0.37746  0.10255  0.39783  1.0000
  H   H63       1.0  0.54978  0.07295  0.42892  1.0000
  Fe  Fe12      1.0  0.39810  0.22599  0.44843  1.0000
  C   C39       1.0  0.29875  0.31250  0.33928  1.0000
  H   H64       1.0  0.36169  0.32433  0.34863  1.0000
  H   H65       1.0  0.40453  0.41548  0.40910  1.0000
  C   C40       1.0  0.40818  0.38626  0.41826  1.0000
  H   H66       1.0  0.40959  0.45481  0.44001  1.0000
  N   N5        1.0  0.43340  0.39280  0.43623  1.0000
  H   H67       1.0  0.37643  0.37513  0.42200  1.0000
  C   C41       1.0  0.47528  0.40720  0.43057  1.0000
  H   H68       1.0  0.49159  0.38415  0.42133  1.0000
  H   H69       1.0  0.47354  0.43734  0.42200  1.0000
  H   H70       1.0  0.42291  0.36253  0.40884  1.0000
  C   C42       1.0  0.43735  0.35325  0.44786  1.0000
  H   H71       1.0  0.45285  0.32871  0.43925  1.0000
  H   H72       1.0  0.49516  0.41228  0.44380  1.0000
  C   C43       1.0  0.41276  0.42439  0.44826  1.0000
  H   H73       1.0  0.38103  0.41457  0.45285  1.0000
  H   H74       1.0  0.40628  0.34144  0.45220  1.0000
  H   H75       1.0  0.32427  0.28421  0.46452  1.0000
  S   S23       1.0  0.39775  0.24185  0.48037  1.0000
  C   C44       1.0  0.37707  0.29171  0.48386  1.0000
  H   H76       1.0  0.29469  0.35446  0.47025  1.0000
  H   H77       1.0  0.29986  0.45042  0.53603  1.0000
  H   H78       1.0  0.29219  0.36737  0.55882  1.0000
  H   H79       1.0  0.27518  0.44288  0.55952  1.0000
  C   C45       1.0  0.30559  0.44900  0.55231  1.0000
  C   C46       1.0  0.42837  0.52323  0.57401  1.0000
  H   H80       1.0  0.34521  0.35038  0.55550  1.0000
  H   H81       1.0  0.31586  0.48033  0.55669  1.0000
  C   C47       1.0  0.34037  0.30498  0.47415  1.0000
  H   H82       1.0  0.42619  0.30842  0.50380  1.0000
  H   H83       1.0  0.31693  0.37554  0.53537  1.0000
  S   S24       1.0  0.43500  0.46169  0.50371  1.0000
  C   C48       1.0  0.38924  0.54239  0.57124  1.0000
  H   H84       1.0  0.43105  0.42997  0.46192  1.0000
  H   H85       1.0  0.38901  0.45636  0.55248  1.0000
  S   S25       1.0  0.45956  0.51112  0.55380  1.0000
  S   S26       1.0  0.32213  0.42069  0.49418  1.0000
  S   S27       1.0  0.49489  0.50170  0.45819  1.0000
  C   C49       1.0  0.34366  0.41571  0.57957  1.0000
  N   N6        1.0  0.33698  0.41654  0.55793  1.0000
  H   H86       1.0  0.40102  0.40189  0.55162  1.0000
  C   C50       1.0  0.39770  0.31866  0.49634  1.0000
  C   C51       1.0  0.34444  0.37177  0.48976  1.0000
  H   H87       1.0  0.53845  0.52929  0.53152  1.0000
  H   H88       1.0  0.37239  0.42751  0.53171  1.0000
  C   C52       1.0  0.37663  0.42597  0.54801  1.0000
  Fe  Fe13      1.0  0.44511  0.51168  0.48055  1.0000
  S   S28       1.0  0.37802  0.51832  0.47163  1.0000
  H   H89       1.0  0.39800  0.37933  0.50866  1.0000
  C   C53       1.0  0.32216  0.37564  0.55169  1.0000
  S   S29       1.0  0.35797  0.52116  0.51919  1.0000
  C   C54       1.0  0.38183  0.35891  0.49902  1.0000
  Fe  Fe14      1.0  0.42675  0.51390  0.52440  1.0000
  C   C55       1.0  0.32370  0.34471  0.47738  1.0000
  C   C56       1.0  0.53764  0.53164  0.46474  1.0000
  Fe  Fe15      1.0  0.36744  0.47256  0.49670  1.0000
  H   H90       1.0  0.45577  0.35695  0.46167  1.0000
  S   S30       1.0  0.39956  0.47690  0.66421  1.0000
  Fe  Fe16      1.0  0.38692  0.49752  0.69493  1.0000
  S   S31       1.0  0.52182  0.46041  0.66314  1.0000
  Fe  Fe17      1.0  0.46463  0.49808  0.66981  1.0000
  C   C57       1.0  0.53435  0.51564  0.63203  1.0000
  H   H91       1.0  0.39855  0.41033  0.69366  1.0000
  H   H92       1.0  0.47317  0.49868  0.59541  1.0000
  C   C58       1.0  0.44311  0.51389  0.59314  1.0000
  C   C59       1.0  0.41905  0.52411  0.60948  1.0000
  H   H93       1.0  0.43029  0.51627  0.62421  1.0000
  H   H94       1.0  0.41945  0.33630  0.69684  1.0000
  H   H95       1.0  0.31436  0.40877  0.58761  1.0000
  C   C60       1.0  0.38062  0.54457  0.60678  1.0000
  H   H96       1.0  0.50126  0.52126  0.63192  1.0000
  H   H97       1.0  0.52967  0.30986  0.69332  1.0000
  H   H98       1.0  0.36733  0.39168  0.58431  1.0000
  H   H99       1.0  0.35501  0.44623  0.58465  1.0000
  C   C61       1.0  0.55187  0.48501  0.64484  1.0000
  H   H100      1.0  0.50512  0.35449  0.70379  1.0000
  S   S32       1.0  0.45325  0.51254  0.70132  1.0000
  Fe  Fe18      1.0  0.38765  0.54390  0.65531  1.0000
  H   H101      1.0  0.17249  0.14674  0.80536  1.0000
  C   C62       1.0  0.25259  0.16620  0.81065  1.0000
  N   N7        1.0  0.22044  0.19143  0.79981  1.0000
  H   H102      1.0  0.15379  0.19878  0.79949  1.0000
  C   C63       1.0  0.17885  0.18029  0.80731  1.0000
  C   C64       1.0  0.22272  0.18297  0.77854  1.0000
  C   C65       1.0  0.22762  0.23611  0.80279  1.0000
  H   H103      1.0  0.19895  0.20131  0.76979  1.0000
  H   H104      1.0  0.25382  0.19088  0.77250  1.0000
  H   H105      1.0  0.20533  0.25622  0.79402  1.0000
  H   H106      1.0  0.21811  0.14939  0.77580  1.0000
  H   H107      1.0  0.28444  0.17494  0.80590  1.0000
  H   H108      1.0  0.25966  0.24527  0.79839  1.0000
  H   H109      1.0  0.24941  0.13243  0.80797  1.0000
  H   H110      1.0  0.22398  0.24397  0.81855  1.0000
  H   H111      1.0  0.25081  0.17031  0.82683  1.0000
  H   H112      1.0  0.17629  0.18630  0.82338  1.0000
  H   H113      1.0  0.49675  0.06087  0.80202  1.0000
  S   S33       1.0  0.31054  0.11421  0.77454  1.0000
  H   H114      1.0  0.45939  0.08966  0.77294  1.0000
  N   N8        1.0  0.51633  0.05368  0.77206  1.0000
  H   H115      1.0  0.51391  0.25261  0.73077  1.0000
  C   C66       1.0  0.48905  0.08826  0.76456  1.0000
  C   C67       1.0  0.52944  0.24422  0.80070  1.0000
  C   C68       1.0  0.53426  0.20260  0.79569  1.0000
  Fe  Fe19      1.0  0.39613  0.24305  0.75723  1.0000
  S   S34       1.0  0.41358  0.17577  0.76220  1.0000
  H   H116      1.0  0.37454  0.10587  0.74520  1.0000
  C   C69       1.0  0.36910  0.07554  0.75192  1.0000
  S   S35       1.0  0.37564  0.18382  0.80709  1.0000
  Fe  Fe20      1.0  0.43601  0.19476  0.79182  1.0000
  S   S36       1.0  0.49653  0.16642  0.80234  1.0000
  Fe  Fe21      1.0  0.36123  0.25029  0.79826  1.0000
  Fe  Fe22      1.0  0.35173  0.16990  0.77686  1.0000
  S   S37       1.0  0.33169  0.23571  0.76919  1.0000
  C   C70       1.0  0.33866  0.07074  0.76642  1.0000
  S   S38       1.0  0.42438  0.26287  0.78562  1.0000
  H   H117      1.0  0.50432  0.11890  0.76602  1.0000
  H   H118      1.0  0.50352  0.25355  0.80971  1.0000
  S   S39       1.0  0.41203  0.27521  0.72836  1.0000
  C   C71       1.0  0.52578  0.05928  0.79318  1.0000
  H   H119      1.0  0.48076  0.08492  0.74873  1.0000
  H   H120      1.0  0.54258  0.08883  0.79543  1.0000
  C   C72       1.0  0.54418  0.26858  0.72847  1.0000
  H   H121      1.0  0.54968  0.04926  0.74480  1.0000
  H   H122      1.0  0.50969  0.36540  0.73929  1.0000
  H   H123      1.0  0.48301  0.30386  0.70731  1.0000
  H   H124      1.0  0.54403  0.51935  0.70693  1.0000
  C   C73       1.0  0.51559  0.33142  0.74161  1.0000
  H   H125      1.0  0.48476  0.31657  0.74382  1.0000
  C   C74       1.0  0.51286  0.32089  0.70648  1.0000
  H   H126      1.0  0.39212  0.53576  0.73397  1.0000
  C   C75       1.0  0.37306  0.34604  0.74137  1.0000
  C   C76       1.0  0.39145  0.39269  0.70700  1.0000
  C   C77       1.0  0.35996  0.38789  0.73925  1.0000
  H   H127      1.0  0.53374  0.32653  0.75562  1.0000
  H   H128      1.0  0.33660  0.51466  0.75655  1.0000
  N   N9        1.0  0.53784  0.31378  0.72475  1.0000
  S   S40       1.0  0.33078  0.29809  0.81697  1.0000
  C   C78       1.0  0.39479  0.32735  0.72613  1.0000
  C   C79       1.0  0.36929  0.41133  0.72207  1.0000
  S   S41       1.0  0.35319  0.46382  0.71950  1.0000
  H   H129      1.0  0.34282  0.40211  0.75098  1.0000
  C   C80       1.0  0.40361  0.35071  0.70889  1.0000
  H   H130      1.0  0.36611  0.32823  0.75473  1.0000
  H   H131      1.0  0.36144  0.54330  0.77555  1.0000
  H   H132      1.0  0.55445  0.30598  0.79800  1.0000
  H   H133      1.0  0.54276  0.54707  0.67259  1.0000
  C   C81       1.0  0.33848  0.54593  0.76315  1.0000
  C   C82       1.0  0.55560  0.05343  0.76081  1.0000
  S   S42       1.0  0.20282  0.23809  0.88178  1.0000
  C   C83       1.0  0.23991  0.25459  0.86445  1.0000
  C   C84       1.0  0.26810  0.22599  0.85667  1.0000
  H   H134      1.0  0.26769  0.19377  0.86177  1.0000
  C   C85       1.0  0.29753  0.28088  0.83585  1.0000
  C   C86       1.0  0.29699  0.23914  0.84238  1.0000
  H   H135      1.0  0.25530  0.27796  0.94577  1.0000
  C   C87       1.0  0.24111  0.29640  0.85818  1.0000
  S   S43       1.0  0.14703  0.29047  0.92678  1.0000
  Fe  Fe23      1.0  0.17940  0.29390  0.89749  1.0000
  H   H136      1.0  0.07358  0.28589  0.95313  1.0000
  H   H137      1.0  0.31876  0.21706  0.83645  1.0000
  H   H138      1.0  0.32512  0.24449  0.94986  1.0000
  H   H139      1.0  0.45551  0.22822  0.94588  1.0000
  H   H140      1.0  0.46141  0.18181  0.93209  1.0000
  C   C88       1.0  0.53264  0.19698  0.95202  1.0000
  H   H141      1.0  0.53883  0.18558  0.93700  1.0000
  H   H142      1.0  0.53151  0.23153  0.95088  1.0000
  H   H143      1.0  0.42788  0.18262  0.95326  1.0000
  C   C89       1.0  0.45811  0.19367  0.94723  1.0000
  H   H144      1.0  0.50102  0.12126  0.94660  1.0000
  H   H145      1.0  0.27023  0.34183  0.83897  1.0000
  H   H146      1.0  0.21934  0.31867  0.86400  1.0000
  C   C90       1.0  0.26991  0.30950  0.84396  1.0000
  S   S44       1.0  0.13492  0.34154  0.88375  1.0000
  Fe  Fe24      1.0  0.18088  0.38671  0.89525  1.0000
  S   S45       1.0  0.19995  0.44359  0.87804  1.0000
  C   C91       1.0  0.23856  0.46855  0.89136  1.0000
  S   S46       1.0  0.22738  0.33939  0.90700  1.0000
  S   S47       1.0  0.14937  0.39282  0.92409  1.0000
  H   H147      1.0  0.23027  0.43106  0.91796  1.0000
  Fe  Fe25      1.0  0.10723  0.34284  0.91405  1.0000
  Fe  Fe26      1.0  0.19098  0.34058  0.93495  1.0000
  C   C92       1.0  0.24667  0.45667  0.91109  1.0000
  C   C93       1.0  0.25971  0.50198  0.88263  1.0000
  H   H148      1.0  0.25348  0.51121  0.86736  1.0000
  C   C94       1.0  0.27515  0.47889  0.92224  1.0000
  H   H149      1.0  0.28022  0.47072  0.93771  1.0000
  H   H150      1.0  0.11335  0.49548  0.89942  1.0000
  C   C95       1.0  0.13329  0.50679  0.91159  1.0000
  H   H151      1.0  0.16363  0.48989  0.91080  1.0000
  C   C96       1.0  0.29593  0.51258  0.91356  1.0000
  C   C97       1.0  0.28838  0.52405  0.89375  1.0000
  H   H152      1.0  0.30216  0.39723  0.93351  1.0000
  H   H153      1.0  0.11877  0.49729  0.92585  1.0000
  H   H154      1.0  0.54359  0.46607  0.91353  1.0000
  H   H155      1.0  0.31512  0.34380  0.92999  1.0000
  H   H156      1.0  0.42454  0.36252  0.91526  1.0000
  H   H157      1.0  0.33726  0.37039  0.95039  1.0000
  H   H158      1.0  0.40671  0.34817  0.93953  1.0000
  H   H159      1.0  0.38513  0.32352  0.91847  1.0000
  H   H160      1.0  0.37597  0.40052  0.89157  1.0000
  H   H161      1.0  0.33601  0.36273  0.89585  1.0000
  H   H162      1.0  0.32539  0.41673  0.89963  1.0000
  C   C98       1.0  0.34972  0.39180  0.90140  1.0000
  H   H163      1.0  0.40715  0.43651  0.91987  1.0000
  H   H164      1.0  0.35665  0.45122  0.92844  1.0000
  N   N10       1.0  0.36368  0.38638  0.92221  1.0000
  S   S48       1.0  0.48766  0.42733  0.94114  1.0000
  C   C99       1.0  0.38056  0.42593  0.92909  1.0000
  C   C100      1.0  0.39647  0.35367  0.92389  1.0000
  C   C101      1.0  0.32803  0.37395  0.93456  1.0000
  C   C102      1.0  0.52994  0.46004  0.94453  1.0000
  C   C103      1.0  0.43838  0.52304  0.95055  1.0000
  H   H165      1.0  0.45291  0.51568  0.93622  1.0000
  H   H166      1.0  0.40423  0.51865  0.94890  1.0000
  H   H167      1.0  0.39208  0.42268  0.94463  1.0000
  C   C104      1.0  0.55284  0.47424  0.92828  1.0000
  S   S49       1.0  0.32922  0.54208  0.92779  1.0000
  C   C105      1.0  0.05952  0.29236  0.96768  1.0000
  C   C106      1.0  0.27685  0.28878  0.95678  1.0000
  H   H168      1.0  0.11952  0.25841  0.99166  1.0000
  H   H169      1.0  0.14293  0.28194  0.97016  1.0000
  C   C107      1.0  0.12676  0.28871  0.98417  1.0000
  H   H170      1.0  0.48438  0.23065  0.97956  1.0000
  N   N11       1.0  0.49350  0.18027  0.96018  1.0000
  C   C108      1.0  0.31636  0.26989  0.95910  1.0000
  H   H171      1.0  0.46700  0.12085  0.96752  1.0000
  C   C109      1.0  0.49612  0.13436  0.96141  1.0000
  H   H172      1.0  0.52246  0.12335  0.97114  1.0000
  H   H173      1.0  0.45781  0.18446  0.98682  1.0000
  C   C110      1.0  0.48711  0.19623  0.98012  1.0000
  S   S50       1.0  0.39463  0.26147  0.97511  1.0000
  C   C111      1.0  0.34472  0.28428  0.97306  1.0000
  H   H174      1.0  0.51357  0.18767  0.99028  1.0000
  H   H175      1.0  0.05941  0.29347  0.00733  1.0000
  H   H176      1.0  0.14981  0.30490  0.99350  1.0000
  C   C112      1.0  0.06856  0.32286  0.99949  1.0000
  H   H177      1.0  0.07247  0.37455  0.96738  1.0000
  H   H178      1.0  0.08982  0.33964  0.00947  1.0000
  H   H179      1.0  0.11560  0.34884  0.95640  1.0000
  N   N12       1.0  0.08876  0.31450  0.98051  1.0000
  C   C113      1.0  0.10028  0.35430  0.97067  1.0000
  H   H180      1.0  0.12271  0.37182  0.97975  1.0000
  S   S51       1.0  0.21662  0.34639  0.96559  1.0000
  C   C114      1.0  0.26528  0.32146  0.96878  1.0000
  H   H181      1.0  0.28433  0.36035  0.99242  1.0000
  C   C115      1.0  0.29324  0.33515  0.98308  1.0000
  S   S52       1.0  0.54093  0.37524  0.98836  1.0000
  H   H182      1.0  0.52211  0.48810  0.05080  1.0000
  S   S53       1.0  0.48990  0.31407  0.95950  1.0000
  S   S54       1.0  0.49255  0.29418  0.00754  1.0000
  C   C116      1.0  0.52410  0.51374  0.06144  1.0000
  H   H183      1.0  0.52365  0.46062  0.97615  1.0000
  H   H184      1.0  0.18771  0.54794  0.88853  1.0000
  Fe  Fe27      1.0  0.49049  0.36357  0.01053  1.0000
  C   C117      1.0  0.33316  0.31698  0.98503  1.0000
  C   C118      1.0  0.46621  0.33444  0.06167  1.0000
  Fe  Fe28      1.0  0.48824  0.38116  0.96655  1.0000
  C   C119      1.0  0.54185  0.47074  0.96358  1.0000
  S   S55       1.0  0.49638  0.39959  0.03837  1.0000
  Fe  Fe29      1.0  0.44392  0.30633  0.98383  1.0000
  Fe  Fe30      1.0  0.53823  0.30715  0.98329  1.0000
  H   H185      1.0  0.50009  0.50775  0.07291  1.0000
  C   C120      1.0  0.48170  0.37495  0.06080  1.0000
  H   H186      1.0  0.35473  0.32786  0.99601  1.0000
  H   H187      1.0  0.46259  0.31750  0.04828  1.0000
  H   H188      1.0  0.45012  0.49956  0.96178  1.0000
  S   S56       1.0  0.43754  0.37481  0.98877  1.0000
  H   H189      1.0  0.51537  0.54332  0.05333  1.0000
  C   C121      1.0  0.48586  0.39673  0.07821  1.0000
  H   H190      1.0  0.49721  0.42813  0.07762  1.0000
  H   H191      1.0  0.54319  0.69766  0.18563  1.0000
  H   H192      1.0  0.46795  0.68143  0.18417  1.0000
  C   C122      1.0  0.52497  0.69756  0.19895  1.0000
  C   C123      1.0  0.48234  0.68856  0.19812  1.0000
  C   C124      1.0  0.50087  0.59723  0.16759  1.0000
  N   N13       1.0  0.48606  0.56375  0.18114  1.0000
  H   H193      1.0  0.52064  0.61952  0.17551  1.0000
  H   H194      1.0  0.47441  0.61534  0.16070  1.0000
  H   H195      1.0  0.51991  0.58444  0.15546  1.0000
  C   C125      1.0  0.46165  0.58190  0.19719  1.0000
  H   H196      1.0  0.54366  0.56129  0.19765  1.0000
  H   H197      1.0  0.43503  0.60130  0.19128  1.0000
  H   H198      1.0  0.43140  0.55173  0.16375  1.0000
  H   H199      1.0  0.22557  0.58570  0.20493  1.0000
  H   H200      1.0  0.19978  0.59334  0.24908  1.0000
  C   C126      1.0  0.09618  0.69809  0.27798  1.0000
  C   C127      1.0  0.29222  0.58035  0.30247  1.0000
  H   H201      1.0  0.11964  0.67986  0.23008  1.0000
  S   S57       1.0  0.20791  0.68213  0.23726  1.0000
  C   C128      1.0  0.12456  0.68460  0.24565  1.0000
  S   S58       1.0  0.28557  0.70774  0.28129  1.0000
  H   H202      1.0  0.25444  0.63357  0.29352  1.0000
  H   H203      1.0  0.14172  0.70364  0.30125  1.0000
  H   H204      1.0  0.20195  0.69143  0.27980  1.0000
  C   C129      1.0  0.25544  0.60043  0.29593  1.0000
  C   C130      1.0  0.17109  0.69171  0.27352  1.0000
  C   C131      1.0  0.13677  0.69840  0.28572  1.0000
  Fe  Fe31      1.0  0.27238  0.69082  0.25012  1.0000
  C   C132      1.0  0.16521  0.68560  0.25337  1.0000
  H   H205      1.0  0.19131  0.59356  0.28724  1.0000
  C   C133      1.0  0.09010  0.69070  0.25794  1.0000
  H   H206      1.0  0.26859  0.78293  0.30000  1.0000
  H   H207      1.0  0.20620  0.79415  0.27578  1.0000
  C   C134      1.0  0.21944  0.57769  0.29252  1.0000
  H   H208      1.0  0.25547  0.60590  0.22467  1.0000
  C   C135      1.0  0.22317  0.78983  0.26174  1.0000
  H   H209      1.0  0.22326  0.75611  0.25883  1.0000
  H   H210      1.0  0.15856  0.76785  0.23859  1.0000
  H   H211      1.0  0.16834  0.57800  0.22869  1.0000
  H   H212      1.0  0.22722  0.77290  0.22338  1.0000
  C   C136      1.0  0.19099  0.56628  0.24017  1.0000
  C   C137      1.0  0.24724  0.57668  0.21731  1.0000
  H   H213      1.0  0.05895  0.69059  0.25178  1.0000
  H   H214      1.0  0.26745  0.56146  0.25590  1.0000
  H   H215      1.0  0.27624  0.56372  0.21088  1.0000
  S   S59       1.0  0.31659  0.73735  0.23705  1.0000
  S   S60       1.0  0.31920  0.63866  0.25015  1.0000
  H   H216      1.0  0.48110  0.60220  0.20641  1.0000
  S   S61       1.0  0.33827  0.60883  0.30456  1.0000
  Fe  Fe32      1.0  0.33515  0.65848  0.28058  1.0000
  Fe  Fe33      1.0  0.33364  0.74970  0.26842  1.0000
  Fe  Fe34      1.0  0.36516  0.68656  0.24007  1.0000
  S   S62       1.0  0.40588  0.67340  0.21397  1.0000
  C   C138      1.0  0.54367  0.70715  0.21692  1.0000
  C   C139      1.0  0.45826  0.68870  0.21527  1.0000
  C   C140      1.0  0.51939  0.70847  0.23397  1.0000
  C   C141      1.0  0.47681  0.69906  0.23316  1.0000
  H   H217      1.0  0.53364  0.71607  0.24789  1.0000
  S   S63       1.0  0.38549  0.70204  0.27078  1.0000
  H   H218      1.0  0.45860  0.69919  0.24645  1.0000
  H   H219      1.0  0.39128  0.73433  0.32472  1.0000
  H   H220      1.0  0.32819  0.69427  0.32207  1.0000
  H   H221      1.0  0.44851  0.55733  0.20718  1.0000
  H   H222      1.0  0.39698  0.65702  0.32747  1.0000
  H   H223      1.0  0.14196  0.80444  0.25632  1.0000
  C   C142      1.0  0.28862  0.79834  0.31017  1.0000
  C   C143      1.0  0.16014  0.80112  0.24254  1.0000
  H   H224      1.0  0.25612  0.79891  0.26416  1.0000
  H   H225      1.0  0.18748  0.86548  0.26314  1.0000
  H   H226      1.0  0.23759  0.86923  0.25176  1.0000
  C   C144      1.0  0.20494  0.85883  0.24946  1.0000
  H   H227      1.0  0.14402  0.81970  0.23053  1.0000
  H   H228      1.0  0.21347  0.82420  0.21397  1.0000
  C   C145      1.0  0.22722  0.80654  0.22690  1.0000
  H   H229      1.0  0.26039  0.81583  0.22841  1.0000
  N   N14       1.0  0.20380  0.81414  0.24514  1.0000
  H   H230      1.0  0.19101  0.87836  0.23716  1.0000
  C   C146      1.0  0.34964  0.83911  0.31676  1.0000
  C   C147      1.0  0.32469  0.81795  0.30347  1.0000
  S   S64       1.0  0.33949  0.81487  0.27872  1.0000
  H   H231      1.0  0.37747  0.85451  0.31162  1.0000
  H   H232      1.0  0.25061  0.78298  0.33534  1.0000
  C   C148      1.0  0.27817  0.79878  0.33017  1.0000
  H   H233      1.0  0.30493  0.72064  0.34227  1.0000
  H   H234      1.0  0.30859  0.66483  0.34275  1.0000
  C   C149      1.0  0.32519  0.69385  0.33842  1.0000
  H   H235      1.0  0.34443  0.66951  0.37581  1.0000
  H   H236      1.0  0.42218  0.65817  0.35127  1.0000
  H   H237      1.0  0.39110  0.69946  0.37782  1.0000
  H   H238      1.0  0.34174  0.72532  0.37377  1.0000
  C   C150      1.0  0.36070  0.69748  0.36986  1.0000
  N   N15       1.0  0.36638  0.69576  0.34826  1.0000
  S   S65       1.0  0.44525  0.74098  0.43049  1.0000
  C   C151      1.0  0.39134  0.65845  0.34364  1.0000
  Fe  Fe35      1.0  0.41355  0.79758  0.41656  1.0000
  H   H239      1.0  0.41999  0.73521  0.34768  1.0000
  C   C152      1.0  0.38821  0.73339  0.34109  1.0000
  S   S66       1.0  0.41053  0.79926  0.38351  1.0000
  H   H240      1.0  0.37102  0.76200  0.34508  1.0000
  H   H241      1.0  0.49817  0.79996  0.38345  1.0000
  C   C153      1.0  0.41556  0.71002  0.44671  1.0000
  H   H242      1.0  0.36776  0.75631  0.45119  1.0000
  H   H243      1.0  0.33690  0.65754  0.53287  1.0000
  H   H244      1.0  0.37504  0.62933  0.34811  1.0000
  H   H245      1.0  0.45803  0.65777  0.44530  1.0000
  C   C154      1.0  0.42968  0.66962  0.45172  1.0000
  S   S67       1.0  0.29451  0.81192  0.36891  1.0000
  C   C155      1.0  0.30428  0.81798  0.34362  1.0000
  H   H246      1.0  0.29308  0.02442  0.39591  1.0000
  C   C156      1.0  0.52836  0.80948  0.37833  1.0000
  C   C157      1.0  0.32143  0.04213  0.39180  1.0000
  H   H247      1.0  0.33157  0.03190  0.37705  1.0000
  S   S68       1.0  0.34922  0.82441  0.42016  1.0000
  C   C158      1.0  0.33964  0.83885  0.33688  1.0000
  H   H248      1.0  0.54278  0.86048  0.43468  1.0000
  H   H249      1.0  0.50856  0.92992  0.43691  1.0000
  H   H250      1.0  0.36267  0.02174  0.45351  1.0000
  C   C159      1.0  0.52387  0.93970  0.42286  1.0000
  S   S69       1.0  0.37551  0.89567  0.38592  1.0000
  Fe  Fe36      1.0  0.43748  0.86264  0.38560  1.0000
  Fe  Fe37      1.0  0.34907  0.83150  0.38708  1.0000
  H   H251      1.0  0.46632  0.01889  0.39977  1.0000
  H   H252      1.0  0.35992  0.85382  0.34720  1.0000
  C   C160      1.0  0.53337  0.84878  0.36922  1.0000
  C   C161      1.0  0.44396  0.01955  0.41161  1.0000
  S   S70       1.0  0.49174  0.88472  0.36767  1.0000
  H   H253      1.0  0.42757  0.95520  0.40906  1.0000
  C   C162      1.0  0.42209  0.98348  0.41685  1.0000
  Fe  Fe38      1.0  0.38069  0.88649  0.41878  1.0000
  S   S71       1.0  0.44506  0.85896  0.41844  1.0000
  C   C163      1.0  0.39285  0.98417  0.43198  1.0000
  H   H254      1.0  0.50143  0.93388  0.41063  1.0000
  S   S72       1.0  0.36498  0.93933  0.43840  1.0000
  H   H255      1.0  0.52857  0.97387  0.42305  1.0000
  H   H256      1.0  0.53281  0.86400  0.40868  1.0000
  C   C164      1.0  0.38524  0.02117  0.44175  1.0000
  H   H257      1.0  0.46399  0.65102  0.55240  1.0000
  C   C165      1.0  0.39407  0.69857  0.55399  1.0000
  H   H258      1.0  0.34638  0.03246  0.40258  1.0000
  H   H259      1.0  0.54111  0.57554  0.54545  1.0000
  C   C166      1.0  0.37871  0.72508  0.45493  1.0000
  Fe  Fe39      1.0  0.37555  0.56619  0.49484  1.0000
  S   S73       1.0  0.44372  0.56306  0.50212  1.0000
  H   H260      1.0  0.38380  0.68931  0.56915  1.0000
  C   C167      1.0  0.53145  0.56967  0.47375  1.0000
  H   H261      1.0  0.36633  0.61030  0.53152  1.0000
  H   H262      1.0  0.41772  0.61279  0.46810  1.0000
  C   C168      1.0  0.36200  0.63845  0.54039  1.0000
  H   H263      1.0  0.42493  0.62424  0.56652  1.0000
  H   H264      1.0  0.42045  0.64867  0.51241  1.0000
  H   H265      1.0  0.36953  0.71957  0.54727  1.0000
  H   H266      1.0  0.44361  0.69391  0.52240  1.0000
  H   H267      1.0  0.32804  0.71161  0.47476  1.0000
  H   H268      1.0  0.43925  0.60615  0.54277  1.0000
  C   C169      1.0  0.35633  0.69980  0.46830  1.0000
  H   H269      1.0  0.35051  0.62811  0.55518  1.0000
  C   C170      1.0  0.40698  0.64419  0.46476  1.0000
  C   C171      1.0  0.37048  0.65932  0.47321  1.0000
  C   C172      1.0  0.41454  0.67557  0.52193  1.0000
  N   N16       1.0  0.40114  0.66181  0.54190  1.0000
  H   H270      1.0  0.39012  0.69520  0.51418  1.0000
  S   S74       1.0  0.34359  0.62832  0.49057  1.0000
  C   C173      1.0  0.43379  0.63470  0.55130  1.0000
  H   H271      1.0  0.50072  0.58359  0.47401  1.0000
  H   H272      1.0  0.42295  0.71700  0.55546  1.0000
  H   H273      1.0  0.37772  0.54982  0.55657  1.0000
  C   C174      1.0  0.55570  0.87170  0.42032  1.0000
  S   S75       1.0  0.45393  0.56393  0.65883  1.0000
  H   H274      1.0  0.38246  0.65179  0.69395  1.0000
  Fe  Fe40      1.0  0.43665  0.57670  0.68991  1.0000
  S   S76       1.0  0.36888  0.56308  0.68564  1.0000
  H   H275      1.0  0.33558  0.56886  0.58550  1.0000
  S   S77       1.0  0.35200  0.56007  0.62726  1.0000
  H   H276      1.0  0.33515  0.70866  0.70417  1.0000
  C   C175      1.0  0.36548  0.55330  0.58761  1.0000
  H   H277      1.0  0.54616  0.56402  0.61009  1.0000
  H   H278      1.0  0.54402  0.59977  0.68021  1.0000
  H   H279      1.0  0.41457  0.04472  0.73411  1.0000
  H   H280      1.0  0.31133  0.86907  0.67779  1.0000
  H   H281      1.0  0.33654  0.82643  0.69119  1.0000
  H   H282      1.0  0.33705  0.94142  0.68180  1.0000
  H   H283      1.0  0.38872  0.92476  0.67526  1.0000
  H   H284      1.0  0.38021  0.95003  0.69816  1.0000
  C   C176      1.0  0.36674  0.92751  0.68775  1.0000
  N   N17       1.0  0.35984  0.88673  0.69781  1.0000
  H   H285      1.0  0.36297  0.85241  0.67116  1.0000
  C   C177      1.0  0.34186  0.85746  0.68381  1.0000
  H   H286      1.0  0.42280  0.86521  0.69349  1.0000
  H   H287      1.0  0.26927  0.71336  0.81348  1.0000
  C   C178      1.0  0.28276  0.73512  0.82347  1.0000
  H   H288      1.0  0.28790  0.58726  0.73736  1.0000
  H   H289      1.0  0.28394  0.78571  0.80172  1.0000
  C   C179      1.0  0.29073  0.77602  0.81688  1.0000
  H   H290      1.0  0.30745  0.55309  0.76949  1.0000
  C   C180      1.0  0.39237  0.67258  0.70521  1.0000
  H   H291      1.0  0.31796  0.54941  0.72453  1.0000
  H   H292      1.0  0.32762  0.60397  0.72051  1.0000
  H   H293      1.0  0.41660  0.56696  0.75207  1.0000
  C   C181      1.0  0.31964  0.57978  0.73195  1.0000
  S   S78       1.0  0.46611  0.62772  0.70688  1.0000
  H   H294      1.0  0.43458  0.80292  0.82386  1.0000
  C   C182      1.0  0.36570  0.70491  0.71094  1.0000
  N   N18       1.0  0.35064  0.57800  0.74824  1.0000
  C   C183      1.0  0.43215  0.66801  0.71370  1.0000
  C   C184      1.0  0.44494  0.69554  0.72806  1.0000
  C   C185      1.0  0.37862  0.73257  0.72524  1.0000
  C   C186      1.0  0.41816  0.72763  0.73391  1.0000
  H   H295      1.0  0.47563  0.69207  0.73472  1.0000
  H   H296      1.0  0.42831  0.74865  0.74505  1.0000
  C   C187      1.0  0.35254  0.61907  0.75736  1.0000
  H   H297      1.0  0.32174  0.62862  0.76326  1.0000
  S   S79       1.0  0.38382  0.78978  0.78729  1.0000
  H   H298      1.0  0.36216  0.64378  0.74646  1.0000
  S   S80       1.0  0.34519  0.77334  0.73194  1.0000
  H   H299      1.0  0.37549  0.61887  0.76978  1.0000
  H   H300      1.0  0.40137  0.58963  0.72854  1.0000
  C   C188      1.0  0.39201  0.56712  0.74040  1.0000
  H   H301      1.0  0.54170  0.57221  0.71461  1.0000
  H   H302      1.0  0.30025  0.90531  0.70914  1.0000
  S   S81       1.0  0.50240  0.79692  0.79687  1.0000
  H   H303      1.0  0.32467  0.86189  0.72215  1.0000
  S   S82       1.0  0.31686  0.85540  0.82209  1.0000
  H   H304      1.0  0.54559  0.03332  0.79948  1.0000
  H   H305      1.0  0.30702  0.02701  0.78561  1.0000
  Fe  Fe41      1.0  0.37180  0.81179  0.75604  1.0000
  S   S83       1.0  0.43393  0.84170  0.75267  1.0000
  H   H306      1.0  0.51428  0.98685  0.77527  1.0000
  C   C189      1.0  0.38388  0.00118  0.75374  1.0000
  Fe  Fe42      1.0  0.44304  0.82544  0.78476  1.0000
  H   H307      1.0  0.50528  0.88616  0.80022  1.0000
  C   C190      1.0  0.53596  0.87487  0.79662  1.0000
  C   C191      1.0  0.33056  0.03094  0.77441  1.0000
  C   C192      1.0  0.35347  0.99622  0.76824  1.0000
  H   H308      1.0  0.41435  0.89089  0.71624  1.0000
  C   C193      1.0  0.33082  0.89217  0.71433  1.0000
  H   H309      1.0  0.34365  0.91371  0.72533  1.0000
  C   C194      1.0  0.40001  0.86971  0.70551  1.0000
  C   C195      1.0  0.39149  0.04082  0.74552  1.0000
  S   S84       1.0  0.33806  0.87020  0.76432  1.0000
  C   C196      1.0  0.49482  0.01377  0.76972  1.0000
  S   S85       1.0  0.41283  0.95839  0.74563  1.0000
  H   H310      1.0  0.48726  0.00847  0.75394  1.0000
  S   S86       1.0  0.41653  0.88570  0.79491  1.0000
  H   H311      1.0  0.39593  0.83887  0.71319  1.0000
  Fe  Fe43      1.0  0.35637  0.85134  0.79529  1.0000
  H   H312      1.0  0.46484  0.01298  0.77787  1.0000
  H   H313      1.0  0.34746  0.96570  0.77469  1.0000
  Fe  Fe44      1.0  0.40119  0.89889  0.76295  1.0000
  C   C197      1.0  0.54318  0.83232  0.79430  1.0000
  S   S87       1.0  0.25286  0.62268  0.90348  1.0000
  C   C198      1.0  0.07673  0.69002  0.89410  1.0000
  C   C199      1.0  0.14426  0.68760  0.92093  1.0000
  H   H314      1.0  0.18252  0.67912  0.89542  1.0000
  H   H315      1.0  0.12288  0.68060  0.87184  1.0000
  C   C200      1.0  0.11748  0.68410  0.88743  1.0000
  C   C201      1.0  0.15118  0.68287  0.90079  1.0000
  C   C202      1.0  0.06957  0.69345  0.91430  1.0000
  C   C203      1.0  0.10338  0.69245  0.92769  1.0000
  S   S88       1.0  0.18633  0.68768  0.93774  1.0000
  H   H316      1.0  0.09786  0.69593  0.94328  1.0000
  Fe  Fe45      1.0  0.24884  0.67487  0.92430  1.0000
  C   C204      1.0  0.15685  0.56337  0.89042  1.0000
  C   C205      1.0  0.16749  0.56534  0.92569  1.0000
  H   H317      1.0  0.17203  0.59961  0.92502  1.0000
  H   H318      1.0  0.16146  0.59749  0.88859  1.0000
  S   S89       1.0  0.27837  0.67292  0.85186  1.0000
  S   S90       1.0  0.28052  0.72085  0.90424  1.0000
  Fe  Fe46      1.0  0.28931  0.66688  0.88454  1.0000
  N   N19       1.0  0.13892  0.55228  0.90988  1.0000
  H   H319      1.0  0.15526  0.55714  0.94060  1.0000
  C   C206      1.0  0.09813  0.57360  0.91179  1.0000
  H   H320      1.0  0.12372  0.79885  0.85738  1.0000
  H   H321      1.0  0.19884  0.55030  0.92448  1.0000
  H   H322      1.0  0.13952  0.76834  0.89025  1.0000
  H   H323      1.0  0.08359  0.56598  0.92628  1.0000
  H   H324      1.0  0.16601  0.73459  0.85938  1.0000
  H   H325      1.0  0.10135  0.60795  0.91072  1.0000
  H   H326      1.0  0.07593  0.56492  0.89995  1.0000
  H   H327      1.0  0.19202  0.76635  0.89965  1.0000
  H   H328      1.0  0.20751  0.75851  0.84589  1.0000
  C   C207      1.0  0.19442  0.75356  0.86092  1.0000
  H   H329      1.0  0.21762  0.73449  0.86971  1.0000
  H   H330      1.0  0.30447  0.55014  0.88700  1.0000
  S   S91       1.0  0.30765  0.65685  0.94111  1.0000
  C   C208      1.0  0.29189  0.72258  0.84302  1.0000
  C   C209      1.0  0.16944  0.78542  0.89045  1.0000
  H   H331      1.0  0.24858  0.80109  0.87971  1.0000
  N   N20       1.0  0.18513  0.79347  0.87025  1.0000
  H   H332      1.0  0.50187  0.60264  0.96191  1.0000
  H   H333      1.0  0.13640  0.55366  0.87810  1.0000
  H   H334      1.0  0.39849  0.74120  0.86802  1.0000
  H   H335      1.0  0.48281  0.74281  0.83088  1.0000
  C   C210      1.0  0.30977  0.75065  0.85578  1.0000
  H   H336      1.0  0.39801  0.59407  0.93892  1.0000
  H   H337      1.0  0.31921  0.74058  0.87044  1.0000
  Fe  Fe47      1.0  0.31380  0.60791  0.91861  1.0000
  S   S92       1.0  0.35090  0.64640  0.89735  1.0000
  Fe  Fe48      1.0  0.34021  0.69733  0.91855  1.0000
  S   S93       1.0  0.39734  0.73627  0.92204  1.0000
  H   H338      1.0  0.48628  0.72699  0.92752  1.0000
  C   C211      1.0  0.47135  0.71642  0.94098  1.0000
  C   C212      1.0  0.42780  0.71846  0.94238  1.0000
  N   N21       1.0  0.44661  0.77438  0.85247  1.0000
  C   C213      1.0  0.42350  0.76400  0.87073  1.0000
  H   H339      1.0  0.44432  0.75004  0.88250  1.0000
  H   H340      1.0  0.43962  0.62826  0.94458  1.0000
  H   H341      1.0  0.40841  0.79203  0.87689  1.0000
  C   C214      1.0  0.43241  0.59576  0.94083  1.0000
  H   H342      1.0  0.48730  0.72083  0.85558  1.0000
  C   C215      1.0  0.46525  0.73604  0.84471  1.0000
  H   H343      1.0  0.44672  0.58986  0.92630  1.0000
  H   H344      1.0  0.44089  0.71308  0.84116  1.0000
  C   C216      1.0  0.31601  0.79189  0.84950  1.0000
  H   H345      1.0  0.51036  0.56139  0.94517  1.0000
  C   C217      1.0  0.30657  0.80454  0.83004  1.0000
  H   H346      1.0  0.39323  0.77133  0.83319  1.0000
  C   C218      1.0  0.41780  0.79342  0.83751  1.0000
  H   H347      1.0  0.50228  0.79086  0.86809  1.0000
  C   C219      1.0  0.15313  0.81674  0.85837  1.0000
  H   H348      1.0  0.14537  0.84712  0.86492  1.0000
  H   H349      1.0  0.16360  0.81483  0.89821  1.0000
  H   H350      1.0  0.16396  0.82319  0.84301  1.0000
  H   H351      1.0  0.21797  0.84830  0.87839  1.0000
  C   C220      1.0  0.22351  0.81819  0.87119  1.0000
  H   H352      1.0  0.23575  0.82547  0.85615  1.0000
  C   C221      1.0  0.47994  0.80406  0.85680  1.0000
  H   H353      1.0  0.46687  0.83353  0.86246  1.0000
  H   H354      1.0  0.49803  0.81222  0.84325  1.0000
  H   H355      1.0  0.32914  0.81371  0.85957  1.0000
  H   H356      1.0  0.40202  0.82181  0.84295  1.0000
  H   H357      1.0  0.50571  0.55011  0.97122  1.0000
  H   H358      1.0  0.39266  0.57312  0.97366  1.0000
  N   N22       1.0  0.44789  0.56578  0.95631  1.0000
  H   H359      1.0  0.41793  0.67927  0.98933  1.0000
  C   C222      1.0  0.49344  0.57009  0.95872  1.0000
  H   H360      1.0  0.52907  0.69727  0.95550  1.0000
  C   C223      1.0  0.49559  0.69956  0.95679  1.0000
  H   H361      1.0  0.43691  0.55101  0.98700  1.0000
  C   C224      1.0  0.47633  0.68573  0.97419  1.0000
  H   H362      1.0  0.43535  0.60526  0.98053  1.0000
  C   C225      1.0  0.40869  0.70499  0.95984  1.0000
  C   C226      1.0  0.43295  0.68936  0.97581  1.0000
  S   S94       1.0  0.50477  0.66089  0.99366  1.0000
  C   C227      1.0  0.42721  0.57412  0.97519  1.0000
  H   H363      1.0  0.37519  0.70713  0.96115  1.0000
  C   C228      1.0  0.58823  0.26518  0.15236  1.0000
  H   H364      1.0  0.59361  0.25311  0.16779  1.0000
  H   H365      1.0  0.61715  0.25961  0.14389  1.0000
  H   H366      1.0  0.58685  0.19291  0.13370  1.0000
  H   H367      1.0  0.58395  0.29943  0.15324  1.0000
  H   H368      1.0  0.57257  0.25728  0.11337  1.0000
  H   H369      1.0  0.56348  0.18625  0.15758  1.0000
  C   C229      1.0  0.55876  0.20038  0.14248  1.0000
  C   C230      1.0  0.65265  0.52885  0.16596  1.0000
  H   H370      1.0  0.58920  0.44577  0.16230  1.0000
  C   C231      1.0  0.58472  0.50178  0.14401  1.0000
  C   C232      1.0  0.60243  0.47578  0.15892  1.0000
  C   C233      1.0  0.67702  0.37120  0.18312  1.0000
  C   C234      1.0  0.63439  0.36199  0.18322  1.0000
  H   H371      1.0  0.68885  0.39347  0.17231  1.0000
  H   H372      1.0  0.61358  0.37698  0.17247  1.0000
  C   C235      1.0  0.63656  0.48932  0.16995  1.0000
  H   H373      1.0  0.64923  0.46992  0.18197  1.0000
  C   C236      1.0  0.61903  0.33287  0.19698  1.0000
  C   C237      1.0  0.70435  0.35165  0.19691  1.0000
  S   S95       1.0  0.75764  0.36344  0.19624  1.0000
  H   H374      1.0  0.76133  0.50607  0.19993  1.0000
  H   H375      1.0  0.60806  0.47624  0.08770  1.0000
  C   C238      1.0  0.60219  0.54024  0.13942  1.0000
  C   C239      1.0  0.57668  0.47569  0.08060  1.0000
  S   S96       1.0  0.56612  0.31946  0.19681  1.0000
  H   H376      1.0  0.72715  0.46346  0.19601  1.0000
  H   H377      1.0  0.74348  0.25475  0.27317  1.0000
  H   H378      1.0  0.69505  0.26198  0.30113  1.0000
  C   C240      1.0  0.75280  0.24355  0.28780  1.0000
  C   C241      1.0  0.72536  0.24742  0.30359  1.0000
  C   C242      1.0  0.79203  0.22495  0.29092  1.0000
  C   C243      1.0  0.73750  0.23360  0.32259  1.0000
  C   C244      1.0  0.80361  0.20964  0.30977  1.0000
  H   H379      1.0  0.63457  0.29066  0.22140  1.0000
  C   C245      1.0  0.77648  0.21438  0.32563  1.0000
  H   H380      1.0  0.77613  0.07275  0.31664  1.0000
  H   H381      1.0  0.69037  0.11069  0.32665  1.0000
  H   H382      1.0  0.73666  0.13841  0.32027  1.0000
  C   C246      1.0  0.75768  0.05894  0.32899  1.0000
  H   H383      1.0  0.01688  0.21551  0.23350  1.0000
  H   H384      1.0  0.94450  0.18764  0.22788  1.0000
  H   H385      1.0  0.98898  0.16012  0.25559  1.0000
  H   H386      1.0  0.99924  0.19192  0.27635  1.0000
  S   S97       1.0  0.82771  0.22365  0.27167  1.0000
  H   H387      1.0  0.93749  0.28266  0.25677  1.0000
  C   C247      1.0  0.94687  0.25433  0.26560  1.0000
  C   C248      1.0  0.97564  0.18489  0.26481  1.0000
  H   H388      1.0  0.91863  0.24300  0.27342  1.0000
  H   H389      1.0  0.02556  0.24916  0.25381  1.0000
  H   H390      1.0  0.96991  0.26383  0.27692  1.0000
  C   C249      1.0  0.00191  0.23905  0.24288  1.0000
  H   H391      1.0  0.99408  0.26670  0.23313  1.0000
  C   C250      1.0  0.93290  0.21224  0.23766  1.0000
  N   N23       1.0  0.96439  0.22255  0.25272  1.0000
  H   H392      1.0  0.90351  0.20118  0.24460  1.0000
  H   H393      1.0  0.94788  0.17192  0.27245  1.0000
  H   H394      1.0  0.92455  0.24003  0.22807  1.0000
  H   H395      1.0  0.83402  0.19534  0.31221  1.0000
  Fe  Fe49      1.0  0.82498  0.28620  0.25615  1.0000
  S   S98       1.0  0.84700  0.29504  0.22505  1.0000
  H   H396      1.0  0.77923  0.45342  0.20475  1.0000
  C   C251      1.0  0.75200  0.47500  0.20594  1.0000
  H   H397      1.0  0.78126  0.52428  0.23412  1.0000
  H   H398      1.0  0.70982  0.30742  0.22140  1.0000
  H   H399      1.0  0.68878  0.50703  0.24262  1.0000
  H   H400      1.0  0.79266  0.30917  0.31067  1.0000
  C   C252      1.0  0.64634  0.31331  0.21077  1.0000
  C   C253      1.0  0.68890  0.32291  0.21084  1.0000
  H   H401      1.0  0.67557  0.49589  0.21748  1.0000
  H   H402      1.0  0.75154  0.41268  0.23268  1.0000
  N   N24       1.0  0.73754  0.47714  0.22654  1.0000
  S   S99       1.0  0.77152  0.33214  0.25322  1.0000
  H   H403      1.0  0.69927  0.42306  0.22469  1.0000
  C   C254      1.0  0.72529  0.43524  0.23372  1.0000
  H   H404      1.0  0.71547  0.43514  0.24941  1.0000
  C   C255      1.0  0.70123  0.50572  0.22740  1.0000
  H   H405      1.0  0.77481  0.36167  0.30609  1.0000
  Fe  Fe50      1.0  0.79699  0.34472  0.22284  1.0000
  C   C256      1.0  0.77766  0.33633  0.31763  1.0000
  H   H406      1.0  0.74552  0.32718  0.32185  1.0000
  H   H407      1.0  0.79958  0.47212  0.23875  1.0000
  C   C257      1.0  0.77148  0.49261  0.23911  1.0000
  H   H408      1.0  0.76197  0.49404  0.25482  1.0000
  H   H409      1.0  0.70959  0.53792  0.22255  1.0000
  H   H410      1.0  0.86071  0.33323  0.32211  1.0000
  H   H411      1.0  0.84420  0.38619  0.31737  1.0000
  S   S100      1.0  0.80601  0.43104  0.28290  1.0000
  H   H412      1.0  0.03503  0.54760  0.27624  1.0000
  H   H413      1.0  0.97887  0.50330  0.28861  1.0000
  C   C258      1.0  0.84591  0.46663  0.27807  1.0000
  H   H414      1.0  0.98886  0.44984  0.29577  1.0000
  H   H415      1.0  0.81410  0.51888  0.29053  1.0000
  C   C259      1.0  0.01053  0.34814  0.28235  1.0000
  H   H416      1.0  0.00664  0.49077  0.31112  1.0000
  Fe  Fe51      1.0  0.81825  0.37877  0.26258  1.0000
  C   C260      1.0  0.05234  0.34081  0.27775  1.0000
  C   C261      1.0  0.87175  0.53732  0.27679  1.0000
  C   C262      1.0  0.84138  0.50852  0.28274  1.0000
  C   C263      1.0  0.03432  0.34511  0.24289  1.0000
  C   C264      1.0  0.91112  0.48215  0.26187  1.0000
  C   C265      1.0  0.99225  0.35093  0.24749  1.0000
  C   C266      1.0  0.98069  0.35400  0.26724  1.0000
  S   S101      1.0  0.95455  0.35015  0.22851  1.0000
  N   N25       1.0  0.04208  0.48276  0.28474  1.0000
  H   H417      1.0  0.04354  0.34310  0.22762  1.0000
  H   H418      1.0  0.93769  0.47170  0.25358  1.0000
  S   S102      1.0  0.84030  0.39454  0.23203  1.0000
  S   S103      1.0  0.86860  0.33173  0.26901  1.0000
  H   H419      1.0  0.02284  0.43656  0.26442  1.0000
  C   C267      1.0  0.90623  0.52419  0.26598  1.0000
  H   H420      1.0  0.01244  0.48944  0.25619  1.0000
  Fe  Fe52      1.0  0.88759  0.34397  0.23768  1.0000
  C   C268      1.0  0.00237  0.48154  0.29557  1.0000
  H   H421      1.0  0.94875  0.36030  0.27091  1.0000
  H   H422      1.0  0.00126  0.34926  0.29764  1.0000
  C   C269      1.0  0.03521  0.46871  0.26443  1.0000
  H   H423      1.0  0.88600  0.42108  0.26505  1.0000
  C   C270      1.0  0.88142  0.45343  0.26817  1.0000
  C   C271      1.0  0.84459  0.36022  0.32870  1.0000
  Fe  Fe53      1.0  0.73201  0.23170  0.37245  1.0000
  S   S104      1.0  0.70379  0.24143  0.34229  1.0000
  S   S105      1.0  0.70953  0.18066  0.39262  1.0000
  S   S106      1.0  0.72503  0.28113  0.39466  1.0000
  H   H424      1.0  0.63644  0.26054  0.39805  1.0000
  C   C272      1.0  0.61049  0.26669  0.40761  1.0000
  Fe  Fe54      1.0  0.77682  0.17203  0.40094  1.0000
  C   C273      1.0  0.73146  0.07286  0.41101  1.0000
  H   H425      1.0  0.72068  0.10366  0.41446  1.0000
  S   S107      1.0  0.77534  0.21635  0.42579  1.0000
  S   S108      1.0  0.65949  0.23567  0.43821  1.0000
  C   C274      1.0  0.61398  0.25830  0.42795  1.0000
  Fe  Fe55      1.0  0.70955  0.22889  0.41571  1.0000
  Fe  Fe56      1.0  0.79119  0.26511  0.40270  1.0000
  C   C275      1.0  0.61199  0.12280  0.44059  1.0000
  C   C276      1.0  0.58009  0.26605  0.44016  1.0000
  H   H426      1.0  0.62418  0.15337  0.44511  1.0000
  S   S109      1.0  0.79970  0.21965  0.37880  1.0000
  H   H427      1.0  0.78571  0.20289  0.34011  1.0000
  H   H428      1.0  0.63942  0.10203  0.43830  1.0000
  H   H429      1.0  0.80282  0.08594  0.35969  1.0000
  N   N26       1.0  0.58580  0.12751  0.42257  1.0000
  H   H430      1.0  0.62336  0.17598  0.40998  1.0000
  C   C277      1.0  0.78302  0.10957  0.35146  1.0000
  N   N27       1.0  0.74529  0.09079  0.34309  1.0000
  S   S110      1.0  0.80662  0.10837  0.40176  1.0000
  C   C278      1.0  0.77286  0.06639  0.40546  1.0000
  H   H431      1.0  0.63772  0.12442  0.40291  1.0000
  C   C279      1.0  0.61082  0.14512  0.40623  1.0000
  H   H432      1.0  0.77487  0.13391  0.36211  1.0000
  H   H433      1.0  0.80249  0.12439  0.33977  1.0000
  H   H434      1.0  0.71215  0.09412  0.37038  1.0000
  C   C280      1.0  0.72094  0.07114  0.35918  1.0000
  H   H435      1.0  0.59180  0.14988  0.39249  1.0000
  H   H436      1.0  0.77208  0.30609  0.35479  1.0000
  H   H437      1.0  0.56108  0.18671  0.43092  1.0000
  H   H438      1.0  0.71058  0.14857  0.34293  1.0000
  H   H439      1.0  0.59400  0.10962  0.45323  1.0000
  H   H440      1.0  0.69181  0.05723  0.35354  1.0000
  C   C281      1.0  0.57271  0.28184  0.39943  1.0000
  C   C282      1.0  0.56995  0.08648  0.41714  1.0000
  H   H441      1.0  0.59579  0.06400  0.41455  1.0000
  H   H442      1.0  0.56973  0.28743  0.38363  1.0000
  C   C283      1.0  0.71960  0.12347  0.33279  1.0000
  H   H443      1.0  0.81931  0.28705  0.34419  1.0000
  H   H444      1.0  0.77975  0.41287  0.33227  1.0000
  H   H445      1.0  0.66090  0.33490  0.43619  1.0000
  C   C284      1.0  0.77482  0.37496  0.40225  1.0000
  H   H446      1.0  0.76574  0.35822  0.38941  1.0000
  H   H447      1.0  0.72340  0.41858  0.39953  1.0000
  S   S111      1.0  0.72790  0.46906  0.43317  1.0000
  C   C285      1.0  0.76239  0.43104  0.42462  1.0000
  C   C286      1.0  0.75122  0.40946  0.40783  1.0000
  H   H448      1.0  0.74925  0.37939  0.34808  1.0000
  H   H449      1.0  0.69127  0.38104  0.43355  1.0000
  C   C287      1.0  0.78157  0.38637  0.34330  1.0000
  C   C288      1.0  0.69025  0.34974  0.44100  1.0000
  C   C289      1.0  0.79863  0.41946  0.43518  1.0000
  H   H450      1.0  0.71662  0.33086  0.43532  1.0000
  C   C290      1.0  0.80384  0.31525  0.34999  1.0000
  H   H451      1.0  0.79900  0.39705  0.35646  1.0000
  N   N28       1.0  0.80193  0.34954  0.33491  1.0000
  C   C291      1.0  0.80991  0.36210  0.41334  1.0000
  H   H452      1.0  0.82154  0.32417  0.36340  1.0000
  S   S112      1.0  0.83655  0.31611  0.40775  1.0000
  C   C292      1.0  0.82250  0.38506  0.42948  1.0000
  H   H453      1.0  0.80763  0.43610  0.44808  1.0000
  H   H454      1.0  0.84989  0.37538  0.43797  1.0000
  H   H455      1.0  0.86385  0.37008  0.34142  1.0000
  H   H456      1.0  0.58264  0.25949  0.45590  1.0000
  H   H457      1.0  0.65680  0.29760  0.46836  1.0000
  H   H458      1.0  0.71181  0.28868  0.46672  1.0000
  H   H459      1.0  0.73680  0.40203  0.46272  1.0000
  H   H460      1.0  0.66172  0.41249  0.46241  1.0000
  H   H461      1.0  0.58314  0.48713  0.45507  1.0000
  H   H462      1.0  0.60474  0.50009  0.57557  1.0000
  H   H463      1.0  0.62758  0.36891  0.46501  1.0000
  C   C293      1.0  0.65877  0.38063  0.46925  1.0000
  C   C294      1.0  0.57902  0.51406  0.56626  1.0000
  H   H464      1.0  0.64499  0.49119  0.54460  1.0000
  H   H465      1.0  0.65953  0.38372  0.48555  1.0000
  Fe  Fe57      1.0  0.74590  0.50098  0.46091  1.0000
  H   H466      1.0  0.75810  0.52129  0.54912  1.0000
  C   C295      1.0  0.61795  0.50534  0.53628  1.0000
  H   H467      1.0  0.59742  0.47970  0.53174  1.0000
  H   H468      1.0  0.69040  0.31148  0.48837  1.0000
  C   C296      1.0  0.68769  0.31083  0.47201  1.0000
  H   H469      1.0  0.73689  0.37033  0.48486  1.0000
  C   C297      1.0  0.57806  0.51594  0.46254  1.0000
  N   N29       1.0  0.59511  0.53546  0.54830  1.0000
  C   C298      1.0  0.61181  0.53653  0.47084  1.0000
  H   H470      1.0  0.64283  0.52414  0.46916  1.0000
  Fe  Fe58      1.0  0.77148  0.49725  0.50412  1.0000
  H   H471      1.0  0.75960  0.35079  0.46276  1.0000
  C   C299      1.0  0.73323  0.36957  0.46853  1.0000
  S   S113      1.0  0.71031  0.48849  0.48879  1.0000
  N   N30       1.0  0.69250  0.35268  0.46270  1.0000
  H   H472      1.0  0.63021  0.52063  0.52256  1.0000
  H   H473      1.0  0.55704  0.48895  0.56256  1.0000
  C   C300      1.0  0.78412  0.50852  0.55770  1.0000
  C   C301      1.0  0.79396  0.52478  0.57617  1.0000
  S   S114      1.0  0.79562  0.45308  0.52795  1.0000
  H   H474      1.0  0.56178  0.53605  0.57566  1.0000
  H   H475      1.0  0.92704  0.54724  0.54783  1.0000
  H   H476      1.0  0.84740  0.52942  0.52412  1.0000
  C   C302      1.0  0.87329  0.54706  0.51721  1.0000
  H   H477      1.0  0.85847  0.43224  0.55662  1.0000
  C   C303      1.0  0.80722  0.47488  0.55072  1.0000
  C   C304      1.0  0.84054  0.45819  0.56200  1.0000
  S   S115      1.0  0.80808  0.50327  0.47611  1.0000
  H   H478      1.0  0.89993  0.52493  0.51573  1.0000
  H   H479      1.0  0.77352  0.04932  0.69879  1.0000
  S   S116      1.0  0.71977  0.30996  0.68716  1.0000
  C   C305      1.0  0.71835  0.36465  0.68860  1.0000
  S   S117      1.0  0.72668  0.50653  0.69050  1.0000
  S   S118      1.0  0.73383  0.51637  0.63199  1.0000
  C   C306      1.0  0.72155  0.45217  0.68958  1.0000
  C   C307      1.0  0.70834  0.38936  0.67169  1.0000
  C   C308      1.0  0.70978  0.43303  0.67219  1.0000
  H   H480      1.0  0.70162  0.45176  0.65916  1.0000
  H   H481      1.0  0.65293  0.49407  0.63170  1.0000
  C   C309      1.0  0.59459  0.47651  0.64421  1.0000
  C   C310      1.0  0.62005  0.50057  0.63184  1.0000
  H   H482      1.0  0.60829  0.45234  0.65382  1.0000
  H   H483      1.0  0.69961  0.37465  0.65817  1.0000
  H   H484      1.0  0.59777  0.49611  0.68469  1.0000
  C   C311      1.0  0.60290  0.53267  0.61977  1.0000
  C   C312      1.0  0.55979  0.53944  0.61946  1.0000
  H   H485      1.0  0.76669  0.42456  0.64042  1.0000
  H   H486      1.0  0.63703  0.53106  0.67589  1.0000
  C   C313      1.0  0.61686  0.52322  0.68872  1.0000
  H   H487      1.0  0.79281  0.47046  0.66609  1.0000
  H   H488      1.0  0.79541  0.39419  0.67226  1.0000
  C   C314      1.0  0.79876  0.42350  0.63438  1.0000
  H   H489      1.0  0.80101  0.44917  0.62299  1.0000
  H   H490      1.0  0.63779  0.51278  0.70117  1.0000
  Fe  Fe59      1.0  0.73483  0.54337  0.66193  1.0000
  S   S119      1.0  0.84190  0.52873  0.61001  1.0000
  H   H491      1.0  0.87735  0.46247  0.58856  1.0000
  H   H492      1.0  0.84723  0.47134  0.67208  1.0000
  C   C315      1.0  0.82453  0.46761  0.65979  1.0000
  H   H493      1.0  0.82846  0.49430  0.64914  1.0000
  H   H494      1.0  0.80236  0.39363  0.62674  1.0000
  H   H495      1.0  0.82914  0.36211  0.65817  1.0000
  C   C316      1.0  0.82628  0.39302  0.66497  1.0000
  H   H496      1.0  0.85030  0.39448  0.67686  1.0000
  H   H497      1.0  0.87638  0.45156  0.63009  1.0000
  H   H498      1.0  0.87809  0.39603  0.63398  1.0000
  H   H499      1.0  0.89723  0.42924  0.65280  1.0000
  C   C317      1.0  0.87245  0.42591  0.64139  1.0000
  N   N31       1.0  0.83050  0.42747  0.65014  1.0000
  C   C318      1.0  0.85117  0.47523  0.58007  1.0000
  C   C319      1.0  0.82771  0.50824  0.58729  1.0000
  H   H500      1.0  0.73245  0.11282  0.70670  1.0000
  C   C320      1.0  0.81033  0.30269  0.78448  1.0000
  H   H501      1.0  0.56007  0.25389  0.71591  1.0000
  C   C321      1.0  0.72517  0.08313  0.71373  1.0000
  Fe  Fe60      1.0  0.71808  0.27153  0.71579  1.0000
  C   C322      1.0  0.56764  0.19055  0.78403  1.0000
  H   H502      1.0  0.57097  0.15860  0.77978  1.0000
  H   H503      1.0  0.73879  0.11089  0.76212  1.0000
  H   H504      1.0  0.76881  0.14619  0.77631  1.0000
  C   C323      1.0  0.69237  0.08040  0.72713  1.0000
  S   S120      1.0  0.65639  0.24543  0.72496  1.0000
  S   S121      1.0  0.66259  0.12433  0.73325  1.0000
  Fe  Fe61      1.0  0.69251  0.18734  0.73369  1.0000
  S   S122      1.0  0.70519  0.20768  0.76436  1.0000
  C   C324      1.0  0.59576  0.22027  0.77706  1.0000
  C   C325      1.0  0.59132  0.26180  0.78223  1.0000
  H   H505      1.0  0.62011  0.21098  0.76728  1.0000
  Fe  Fe62      1.0  0.67377  0.26732  0.75479  1.0000
  S   S123      1.0  0.75323  0.21073  0.72176  1.0000
  Fe  Fe63      1.0  0.76289  0.23562  0.75206  1.0000
  C   C326      1.0  0.76495  0.11282  0.77299  1.0000
  H   H506      1.0  0.75519  0.09631  0.78683  1.0000
  H   H507      1.0  0.69254  0.25403  0.80095  1.0000
  H   H508      1.0  0.57263  0.08317  0.76219  1.0000
  H   H509      1.0  0.74001  0.27623  0.80969  1.0000
  C   C327      1.0  0.70551  0.27957  0.80966  1.0000
  H   H510      1.0  0.56362  0.26215  0.74193  1.0000
  C   C328      1.0  0.55820  0.27382  0.79409  1.0000
  C   C329      1.0  0.81829  0.32176  0.81865  1.0000
  H   H511      1.0  0.78899  0.11396  0.73532  1.0000
  N   N32       1.0  0.80392  0.09487  0.76528  1.0000
  H   H512      1.0  0.62976  0.25400  0.82156  1.0000
  C   C330      1.0  0.64298  0.28109  0.82913  1.0000
  C   C331      1.0  0.79818  0.05011  0.76198  1.0000
  H   H513      1.0  0.83105  0.08464  0.79420  1.0000
  C   C332      1.0  0.81440  0.11655  0.74643  1.0000
  H   H514      1.0  0.81934  0.15034  0.74844  1.0000
  S   S124      1.0  0.81849  0.22301  0.77186  1.0000
  C   C333      1.0  0.83807  0.10020  0.77972  1.0000
  C   C334      1.0  0.82059  0.26135  0.78967  1.0000
  C   C335      1.0  0.82937  0.28055  0.82384  1.0000
  H   H515      1.0  0.83916  0.21855  0.81340  1.0000
  H   H516      1.0  0.84330  0.10348  0.73999  1.0000
  H   H517      1.0  0.84324  0.13379  0.78240  1.0000
  H   H518      1.0  0.86794  0.08691  0.77440  1.0000
  C   C336      1.0  0.83080  0.25040  0.80933  1.0000
  H   H519      1.0  0.58215  0.53737  0.72407  1.0000
  C   C337      1.0  0.72915  0.38401  0.70605  1.0000
  C   C338      1.0  0.73059  0.42755  0.70655  1.0000
  C   C339      1.0  0.57862  0.33410  0.72242  1.0000
  H   H520      1.0  0.57482  0.36814  0.71931  1.0000
  C   C340      1.0  0.80940  0.33287  0.79891  1.0000
  H   H521      1.0  0.80373  0.31164  0.76926  1.0000
  H   H522      1.0  0.63184  0.30961  0.82077  1.0000
  H   H523      1.0  0.59661  0.32100  0.71005  1.0000
  H   H524      1.0  0.69744  0.30934  0.80155  1.0000
  H   H525      1.0  0.80122  0.36477  0.79479  1.0000
  S   S125      1.0  0.73261  0.29781  0.74529  1.0000
  H   H526      1.0  0.73969  0.44214  0.72006  1.0000
  H   H527      1.0  0.73758  0.36556  0.71906  1.0000
  S   S126      1.0  0.62695  0.29873  0.77376  1.0000
  H   H528      1.0  0.59816  0.32983  0.73601  1.0000
  C   C341      1.0  0.56338  0.54647  0.71069  1.0000
  C   C342      1.0  0.67833  0.25523  0.93550  1.0000
  H   H529      1.0  0.70970  0.24318  0.93385  1.0000
  C   C343      1.0  0.65601  0.27077  0.91896  1.0000
  C   C344      1.0  0.65964  0.25431  0.95415  1.0000
  S   S127      1.0  0.67866  0.27232  0.89552  1.0000
  C   C345      1.0  0.59727  0.28646  0.93990  1.0000
  C   C346      1.0  0.61538  0.28611  0.92117  1.0000
  H   H530      1.0  0.69059  0.21198  0.83283  1.0000
  H   H531      1.0  0.73702  0.23687  0.84117  1.0000
  H   H532      1.0  0.59815  0.29844  0.90841  1.0000
  H   H533      1.0  0.69079  0.23822  0.85585  1.0000
  C   C347      1.0  0.70241  0.23967  0.84040  1.0000
  Fe  Fe64      1.0  0.74527  0.29251  0.89609  1.0000
  S   S128      1.0  0.79338  0.26694  0.87581  1.0000
  S   S129      1.0  0.78879  0.29720  0.92213  1.0000
  H   H534      1.0  0.62949  0.28147  0.84420  1.0000
  N   N33       1.0  0.68897  0.27872  0.82994  1.0000
  C   C348      1.0  0.97711  0.25644  0.90859  1.0000
  H   H535      1.0  0.98280  0.22712  0.90165  1.0000
  S   S130      1.0  0.89404  0.23674  0.90733  1.0000
  C   C349      1.0  0.93630  0.26807  0.91346  1.0000
  H   H536      1.0  0.04159  0.27496  0.90768  1.0000
  Fe  Fe65      1.0  0.83814  0.27789  0.90077  1.0000
  H   H537      1.0  0.83741  0.27199  0.83895  1.0000
  C   C350      1.0  0.01032  0.28346  0.91199  1.0000
  H   H538      1.0  0.56635  0.29924  0.94145  1.0000
  H   H539      1.0  0.73964  0.31325  0.84168  1.0000
  H   H540      1.0  0.69287  0.31510  0.85590  1.0000
  C   C351      1.0  0.70508  0.31453  0.84059  1.0000
  S   S131      1.0  0.75268  0.35861  0.88548  1.0000
  C   C352      1.0  0.58870  0.49771  0.93118  1.0000
  H   H541      1.0  0.66639  0.45522  0.92999  1.0000
  H   H542      1.0  0.60690  0.50801  0.91862  1.0000
  C   C353      1.0  0.68381  0.42539  0.92849  1.0000
  H   H543      1.0  0.67216  0.41059  0.91493  1.0000
  H   H544      1.0  0.69514  0.34350  0.93008  1.0000
  H   H545      1.0  0.62223  0.37179  0.93507  1.0000
  C   C354      1.0  0.63449  0.38697  0.94839  1.0000
  H   H546      1.0  0.71713  0.43293  0.92603  1.0000
  C   C355      1.0  0.75892  0.52072  0.93287  1.0000
  H   H547      1.0  0.73781  0.36618  0.94288  1.0000
  C   C356      1.0  0.70396  0.35935  0.94381  1.0000
  N   N34       1.0  0.67887  0.39770  0.94614  1.0000
  H   H548      1.0  0.72665  0.51233  0.93707  1.0000
  C   C357      1.0  0.60101  0.50776  0.95027  1.0000
  S   S132      1.0  0.64728  0.53446  0.95392  1.0000
  H   H549      1.0  0.78055  0.49896  0.94114  1.0000
  H   H550      1.0  0.76250  0.51493  0.91687  1.0000
  Fe  Fe66      1.0  0.80015  0.36142  0.90964  1.0000
  H   H551      1.0  0.69636  0.34459  0.83292  1.0000
  H   H552      1.0  0.61479  0.41508  0.95069  1.0000
  Fe  Fe67      1.0  0.80456  0.33364  0.86729  1.0000
  S   S133      1.0  0.80732  0.41822  0.92750  1.0000
  H   H553      1.0  0.97269  0.34546  0.85682  1.0000
  C   C358      1.0  0.92904  0.30592  0.92244  1.0000
  H   H554      1.0  0.89779  0.31463  0.92668  1.0000
  C   C359      1.0  0.00258  0.32184  0.92044  1.0000
  C   C360      1.0  0.87882  0.50771  0.88728  1.0000
  H   H555      1.0  0.92185  0.40423  0.89652  1.0000
  H   H556      1.0  0.94663  0.45257  0.89050  1.0000
  H   H557      1.0  0.81073  0.42811  0.88531  1.0000
  H   H558      1.0  0.84995  0.47576  0.86344  1.0000
  C   C361      1.0  0.83075  0.45085  0.89171  1.0000
  C   C362      1.0  0.92534  0.41414  0.85713  1.0000
  S   S134      1.0  0.85284  0.34270  0.89046  1.0000
  C   C363      1.0  0.85295  0.47791  0.87929  1.0000
  C   C364      1.0  0.83437  0.45332  0.91219  1.0000
  C   C365      1.0  0.96209  0.33265  0.92597  1.0000
  N   N35       1.0  0.96048  0.40350  0.87073  1.0000
  C   C366      1.0  0.99858  0.42399  0.86347  1.0000
  H   H559      1.0  0.95600  0.36215  0.93269  1.0000
  H   H560      1.0  0.86351  0.48475  0.93612  1.0000
  C   C367      1.0  0.85999  0.48335  0.92027  1.0000
  H   H561      1.0  0.99433  0.45847  0.86251  1.0000
  C   C368      1.0  0.95094  0.41818  0.89065  1.0000
  H   H562      1.0  0.02566  0.41682  0.87349  1.0000
  C   C369      1.0  0.96732  0.35792  0.87170  1.0000
  H   H563      1.0  0.99491  0.34912  0.88108  1.0000
  H   H564      1.0  0.94011  0.34146  0.87813  1.0000
  S   S135      1.0  0.04200  0.35835  0.92335  1.0000
  H   H565      1.0  0.97650  0.40995  0.90136  1.0000
  C   C370      1.0  0.88207  0.51080  0.90779  1.0000
  H   H566      1.0  0.92023  0.44844  0.85566  1.0000
  H   H567      1.0  0.89570  0.40027  0.86239  1.0000
  H   H568      1.0  0.93088  0.40260  0.84207  1.0000
  H   H569      1.0  0.00689  0.41357  0.84850  1.0000
  S   S136      1.0  0.81394  0.35963  0.83658  1.0000
  H   H570      1.0  0.90252  0.53351  0.91401  1.0000
  S   S137      1.0  0.90931  0.53842  0.87146  1.0000
  C   C371      1.0  0.61912  0.27005  0.95641  1.0000
  H   H571      1.0  0.67672  0.24154  0.96687  1.0000
  S   S138      1.0  0.59623  0.26811  0.97987  1.0000
  H   H572      1.0  0.56000  0.18829  0.96162  1.0000
  H   H573      1.0  0.05010  0.26206  0.97453  1.0000
  H   H574      1.0  0.69972  0.33680  0.95644  1.0000
  H   H575      1.0  0.62975  0.36513  0.96127  1.0000
  C   C372      1.0  0.69337  0.41909  0.96385  1.0000
  H   H576      1.0  0.58676  0.50245  0.98124  1.0000
  C   C373      1.0  0.57725  0.49484  0.96645  1.0000
  N   N36       1.0  0.56620  0.51585  0.07036  1.0000
  H   H577      1.0  0.67499  0.44818  0.96608  1.0000
  C   C374      1.0  0.59694  0.52448  0.05471  1.0000
  H   H578      1.0  0.69018  0.39893  0.97742  1.0000
  H   H579      1.0  0.59683  0.50006  0.04347  1.0000
  H   H580      1.0  0.72675  0.42774  0.96258  1.0000
  H   H581      1.0  0.62913  0.52601  0.06091  1.0000
  H   H582      1.0  0.57620  0.44955  0.07023  1.0000
  H   H583      1.0  0.03068  0.31120  0.96447  1.0000
  H   H584      1.0  0.03988  0.34242  0.99722  1.0000
  S   S139      1.0  0.70016  0.65224  0.15001  1.0000
  Fe  Fe68      1.0  0.71351  0.70382  0.17022  1.0000
  S   S140      1.0  0.76925  0.74366  0.16476  1.0000
  H   H585      1.0  0.66010  0.62066  0.11601  1.0000
  S   S141      1.0  0.61201  0.64079  0.17450  1.0000
  C   C375      1.0  0.64861  0.63023  0.10155  1.0000
  S   S142      1.0  0.65026  0.73370  0.16639  1.0000
  N   N37       1.0  0.73832  0.72555  0.10103  1.0000
  C   C376      1.0  0.61704  0.66048  0.09951  1.0000
  Fe  Fe69      1.0  0.67837  0.61858  0.17733  1.0000
  H   H586      1.0  0.64886  0.58367  0.14696  1.0000
  Fe  Fe70      1.0  0.63512  0.67832  0.14849  1.0000
  Fe  Fe71      1.0  0.63308  0.69345  0.19260  1.0000
  S   S143      1.0  0.59787  0.68608  0.12017  1.0000
  S   S144      1.0  0.69781  0.66775  0.19799  1.0000
  C   C377      1.0  0.72170  0.72084  0.08080  1.0000
  C   C378      1.0  0.80451  0.74632  0.18469  1.0000
  C   C379      1.0  0.66535  0.61206  0.08479  1.0000
  C   C380      1.0  0.75686  0.68557  0.10838  1.0000
  H   H587      1.0  0.73348  0.66032  0.10848  1.0000
  H   H588      1.0  0.69002  0.58889  0.08648  1.0000
  H   H589      1.0  0.78307  0.67546  0.09896  1.0000
  H   H590      1.0  0.67975  0.71382  0.11496  1.0000
  C   C381      1.0  0.70413  0.73792  0.11414  1.0000
  H   H591      1.0  0.76919  0.68788  0.12374  1.0000
  H   H592      1.0  0.58840  0.56067  0.12808  1.0000
  H   H593      1.0  0.71557  0.74242  0.12947  1.0000
  H   H594      1.0  0.59836  0.55160  0.09180  1.0000
  C   C382      1.0  0.63621  0.55356  0.15033  1.0000
  C   C383      1.0  0.77059  0.75787  0.10090  1.0000
  H   H595      1.0  0.68862  0.76741  0.10882  1.0000
  H   H596      1.0  0.78364  0.76189  0.11603  1.0000
  H   H597      1.0  0.79695  0.74964  0.09115  1.0000
  H   H598      1.0  0.79077  0.68619  0.19790  1.0000
  H   H599      1.0  0.69680  0.69711  0.08055  1.0000
  H   H600      1.0  0.75765  0.78856  0.09557  1.0000
  H   H601      1.0  0.71784  0.75633  0.20105  1.0000
  C   C384      1.0  0.56711  0.54947  0.08469  1.0000
  C   C385      1.0  0.60146  0.67160  0.08063  1.0000
  C   C386      1.0  0.71382  0.78972  0.20439  1.0000
  S   S145      1.0  0.68927  0.55025  0.18176  1.0000
  C   C387      1.0  0.80832  0.71439  0.19925  1.0000
  C   C388      1.0  0.82786  0.78236  0.18636  1.0000
  C   C389      1.0  0.85376  0.78731  0.20281  1.0000
  H   H602      1.0  0.73937  0.80668  0.19675  1.0000
  H   H603      1.0  0.68372  0.80054  0.19757  1.0000
  H   H604      1.0  0.82517  0.80705  0.17515  1.0000
  H   H605      1.0  0.87080  0.81585  0.20425  1.0000
  H   H606      1.0  0.71291  0.75179  0.32002  1.0000
  H   H607      1.0  0.74557  0.66137  0.32287  1.0000
  H   H608      1.0  0.68152  0.70585  0.32001  1.0000
  H   H609      1.0  0.68144  0.73950  0.23233  1.0000
  S   S146      1.0  0.59738  0.71703  0.21838  1.0000
  H   H610      1.0  0.75855  0.74567  0.23177  1.0000
  H   H611      1.0  0.72998  0.04394  0.32245  1.0000
  C   C390      1.0  0.71075  0.84071  0.22963  1.0000
  C   C391      1.0  0.75459  0.77950  0.23432  1.0000
  H   H612      1.0  0.78169  0.79553  0.22753  1.0000
  H   H613      1.0  0.64915  0.78511  0.22927  1.0000
  N   N38       1.0  0.71475  0.79585  0.22590  1.0000
  H   H614      1.0  0.67956  0.77676  0.25146  1.0000
  C   C392      1.0  0.67980  0.77340  0.23519  1.0000
  H   H615      1.0  0.75667  0.78368  0.25052  1.0000
  H   H616      1.0  0.77728  0.70695  0.32287  1.0000
  H   H617      1.0  0.01267  0.76177  0.32341  1.0000
  S   S147      1.0  0.86971  0.67339  0.32918  1.0000
  H   H618      1.0  0.95838  0.70855  0.32841  1.0000
  C   C393      1.0  0.83533  0.71890  0.21556  1.0000
  H   H619      1.0  0.83808  0.69446  0.22689  1.0000
  C   C394      1.0  0.85750  0.75580  0.21749  1.0000
  H   H620      1.0  0.87074  0.75946  0.31504  1.0000
  Fe  Fe72      1.0  0.93527  0.62442  0.26752  1.0000
  Fe  Fe73      1.0  0.90364  0.67764  0.30025  1.0000
  S   S148      1.0  0.93528  0.73443  0.28820  1.0000
  S   S149      1.0  0.87533  0.66026  0.27130  1.0000
  S   S150      1.0  0.96033  0.63705  0.29752  1.0000
  Fe  Fe74      1.0  0.91144  0.71418  0.25879  1.0000
  H   H621      1.0  0.86815  0.56969  0.28026  1.0000
  Fe  Fe75      1.0  0.98988  0.69231  0.28282  1.0000
  S   S151      1.0  0.94413  0.55912  0.25761  1.0000
  S   S152      1.0  0.96917  0.67688  0.25232  1.0000
  S   S153      1.0  0.88624  0.76629  0.23889  1.0000
  S   S154      1.0  0.05406  0.70859  0.29361  1.0000
  H   H622      1.0  0.68103  0.85397  0.22335  1.0000
  H   H623      1.0  0.73680  0.85843  0.22281  1.0000
  H   H624      1.0  0.71118  0.84646  0.24573  1.0000
  S   S155      1.0  0.64624  0.76481  0.38227  1.0000
  S   S156      1.0  0.75561  0.78006  0.40518  1.0000
  C   C395      1.0  0.62986  0.71794  0.43420  1.0000
  H   H625      1.0  0.62795  0.71105  0.41822  1.0000
  N   N39       1.0  0.65637  0.68701  0.44525  1.0000
  N   N40       1.0  0.72676  0.70726  0.34359  1.0000
  H   H626      1.0  0.63702  0.63593  0.42778  1.0000
  H   H627      1.0  0.69906  0.67893  0.42135  1.0000
  C   C396      1.0  0.69893  0.68756  0.43710  1.0000
  H   H628      1.0  0.71265  0.71906  0.43785  1.0000
  H   H629      1.0  0.64247  0.74990  0.43523  1.0000
  H   H630      1.0  0.72585  0.66065  0.36709  1.0000
  C   C397      1.0  0.74657  0.73853  0.35593  1.0000
  H   H631      1.0  0.76626  0.76016  0.34701  1.0000
  H   H632      1.0  0.76668  0.72350  0.36764  1.0000
  C   C398      1.0  0.60258  0.79588  0.37607  1.0000
  H   H633      1.0  0.72304  0.75789  0.36344  1.0000
  C   C399      1.0  0.80455  0.73517  0.45266  1.0000
  C   C400      1.0  0.55988  0.55375  0.53661  1.0000
  H   H634      1.0  0.59748  0.71848  0.43993  1.0000
  H   H635      1.0  0.55880  0.92601  0.38858  1.0000
  H   H636      1.0  0.72025  0.66558  0.44549  1.0000
  H   H637      1.0  0.67204  0.74513  0.33773  1.0000
  H   H638      1.0  0.67969  0.69267  0.36497  1.0000
  C   C401      1.0  0.63869  0.64510  0.44344  1.0000
  H   H639      1.0  0.65783  0.62111  0.45173  1.0000
  H   H640      1.0  0.60662  0.64357  0.44952  1.0000
  C   C402      1.0  0.56286  0.78280  0.38151  1.0000
  C   C403      1.0  0.70432  0.67702  0.35633  1.0000
  H   H641      1.0  0.81285  0.75748  0.44111  1.0000
  H   H642      1.0  0.99155  0.70786  0.38089  1.0000
  C   C404      1.0  0.86217  0.72039  0.34107  1.0000
  H   H643      1.0  0.85137  0.68997  0.36935  1.0000
  H   H644      1.0  0.83873  0.75583  0.38656  1.0000
  C   C405      1.0  0.85293  0.71947  0.36123  1.0000
  C   C406      1.0  0.84561  0.75664  0.37096  1.0000
  N   N41       1.0  0.99479  0.73476  0.35149  1.0000
  H   H645      1.0  0.85205  0.69044  0.44507  1.0000
  C   C407      1.0  0.96288  0.76707  0.35520  1.0000
  H   H646      1.0  0.94778  0.77873  0.34118  1.0000
  C   C408      1.0  0.02656  0.75211  0.33802  1.0000
  C   C409      1.0  0.97491  0.69892  0.34233  1.0000
  H   H647      1.0  0.95135  0.68426  0.35221  1.0000
  C   C410      1.0  0.85751  0.79573  0.34044  1.0000
  C   C411      1.0  0.84765  0.79479  0.36054  1.0000
  C   C412      1.0  0.01480  0.72089  0.37036  1.0000
  H   H648      1.0  0.93782  0.75483  0.36494  1.0000
  H   H649      1.0  0.03883  0.69625  0.36806  1.0000
  H   H650      1.0  0.04174  0.77975  0.34419  1.0000
  H   H651      1.0  0.03042  0.74710  0.37762  1.0000
  H   H652      1.0  0.97651  0.79434  0.36245  1.0000
  H   H653      1.0  0.05151  0.72873  0.33510  1.0000
  H   H654      1.0  0.99824  0.67457  0.33857  1.0000
  C   C413      1.0  0.86436  0.75853  0.33067  1.0000
  Fe  Fe76      1.0  0.69497  0.80677  0.39395  1.0000
  N   N42       1.0  0.56356  0.91687  0.42008  1.0000
  C   C414      1.0  0.57291  0.86100  0.36298  1.0000
  C   C415      1.0  0.58146  0.92987  0.40087  1.0000
  H   H655      1.0  0.77724  0.03393  0.33636  1.0000
  H   H656      1.0  0.67220  0.04424  0.41661  1.0000
  H   H657      1.0  0.58461  0.85342  0.41751  1.0000
  S   S157      1.0  0.72224  0.86267  0.37868  1.0000
  Fe  Fe77      1.0  0.78247  0.83901  0.39232  1.0000
  H   H658      1.0  0.77093  0.96136  0.40016  1.0000
  Fe  Fe78      1.0  0.71363  0.89420  0.40740  1.0000
  C   C416      1.0  0.60761  0.83490  0.36675  1.0000
  C   C417      1.0  0.75981  0.99235  0.40322  1.0000
  H   H659      1.0  0.63822  0.84503  0.36240  1.0000
  C   C418      1.0  0.71827  0.99894  0.40842  1.0000
  S   S158      1.0  0.68317  0.95758  0.40963  1.0000
  S   S159      1.0  0.68039  0.84018  0.42134  1.0000
  Fe  Fe79      1.0  0.74338  0.81794  0.43171  1.0000
  S   S160      1.0  0.77609  0.87496  0.42012  1.0000
  C   C419      1.0  0.59309  0.92609  0.43615  1.0000
  H   H660      1.0  0.62322  0.90905  0.43446  1.0000
  H   H661      1.0  0.60985  0.91117  0.39755  1.0000
  C   C420      1.0  0.78706  0.02603  0.40177  1.0000
  C   C421      1.0  0.70414  0.03922  0.41234  1.0000
  H   H662      1.0  0.57693  0.89129  0.35588  1.0000
  H   H663      1.0  0.60054  0.95976  0.43616  1.0000
  H   H664      1.0  0.58041  0.91703  0.45087  1.0000
  H   H665      1.0  0.59056  0.96309  0.40060  1.0000
  H   H666      1.0  0.73914  0.04578  0.36701  1.0000
  H   H667      1.0  0.81913  0.02083  0.39760  1.0000
  S   S161      1.0  0.83803  0.84146  0.37237  1.0000
  H   H668      1.0  0.85912  0.82526  0.33236  1.0000
  H   H669      1.0  0.65067  0.55600  0.56281  1.0000
  H   H670      1.0  0.63616  0.58582  0.54081  1.0000
  C   C422      1.0  0.60501  0.57223  0.48165  1.0000
  H   H671      1.0  0.67119  0.72902  0.46823  1.0000
  C   C423      1.0  0.65809  0.69749  0.46630  1.0000
  Fe  Fe80      1.0  0.70466  0.55808  0.48953  1.0000
  S   S162      1.0  0.73557  0.56996  0.46061  1.0000
  S   S163      1.0  0.76246  0.56572  0.50769  1.0000
  H   H672      1.0  0.60768  0.59181  0.56336  1.0000
  H   H673      1.0  0.62663  0.69690  0.47304  1.0000
  Fe  Fe81      1.0  0.79427  0.57132  0.47849  1.0000
  H   H674      1.0  0.67809  0.67483  0.47503  1.0000
  C   C424      1.0  0.56503  0.58975  0.48244  1.0000
  C   C425      1.0  0.76186  0.71549  0.48061  1.0000
  C   C426      1.0  0.77218  0.74426  0.46556  1.0000
  H   H675      1.0  0.73708  0.72262  0.49071  1.0000
  S   S164      1.0  0.64581  0.59387  0.49501  1.0000
  H   H676      1.0  0.77415  0.65472  0.49379  1.0000
  C   C427      1.0  0.78290  0.67709  0.48239  1.0000
  S   S165      1.0  0.74248  0.79018  0.46250  1.0000
  C   C428      1.0  0.62362  0.56879  0.55401  1.0000
  H   H677      1.0  0.57104  0.57122  0.52329  1.0000
  H   H678      1.0  0.55983  0.61831  0.49009  1.0000
  C   C429      1.0  0.84807  0.61086  0.53099  1.0000
  C   C430      1.0  0.82679  0.69737  0.45495  1.0000
  S   S166      1.0  0.84170  0.61997  0.47191  1.0000
  C   C431      1.0  0.91824  0.60630  0.51877  1.0000
  H   H679      1.0  0.90781  0.61795  0.50380  1.0000
  H   H680      1.0  0.94633  0.58627  0.51678  1.0000
  H   H681      1.0  0.85572  0.63859  0.53963  1.0000
  H   H682      1.0  0.83606  0.62241  0.51629  1.0000
  H   H683      1.0  0.82226  0.59448  0.53872  1.0000
  N   N43       1.0  0.88479  0.58314  0.52894  1.0000
  H   H684      1.0  0.86300  0.55701  0.50203  1.0000
  H   H685      1.0  0.92780  0.63377  0.52717  1.0000
  H   H686      1.0  0.90811  0.59471  0.55811  1.0000
  C   C432      1.0  0.81563  0.66814  0.46967  1.0000
  C   C433      1.0  0.89942  0.56836  0.54875  1.0000
  H   H687      1.0  0.87474  0.55073  0.55669  1.0000
  H   H688      1.0  0.55886  0.75279  0.38889  1.0000
  H   H689      1.0  0.68893  0.65299  0.34749  1.0000
  H   H690      1.0  0.78206  0.66881  0.34262  1.0000
  C   C434      1.0  0.75918  0.68514  0.33248  1.0000
  C   C435      1.0  0.69701  0.72841  0.32967  1.0000
  S   S167      1.0  0.74867  0.61185  0.61411  1.0000
  C   C436      1.0  0.72523  0.69082  0.68905  1.0000
  H   H691      1.0  0.71229  0.66220  0.68399  1.0000
  C   C437      1.0  0.75210  0.71371  0.67690  1.0000
  Fe  Fe82      1.0  0.74961  0.63132  0.64575  1.0000
  S   S168      1.0  0.76390  0.69776  0.65298  1.0000
  C   C438      1.0  0.76891  0.75075  0.68365  1.0000
  S   S169      1.0  0.69167  0.59683  0.65391  1.0000
  Fe  Fe83      1.0  0.69471  0.57237  0.62336  1.0000
  N   N44       1.0  0.59030  0.55899  0.69402  1.0000
  C   C439      1.0  0.75843  0.76516  0.70234  1.0000
  S   S170      1.0  0.63541  0.56565  0.60593  1.0000
  C   C440      1.0  0.61677  0.59384  0.69982  1.0000
  H   H692      1.0  0.63666  0.60474  0.68740  1.0000
  Fe  Fe84      1.0  0.78760  0.55760  0.62537  1.0000
  H   H693      1.0  0.59757  0.62093  0.70438  1.0000
  C   C441      1.0  0.56397  0.57230  0.67687  1.0000
  H   H694      1.0  0.58309  0.58053  0.66372  1.0000
  H   H695      1.0  0.77574  0.55034  0.58170  1.0000
  S   S171      1.0  0.79292  0.57972  0.65632  1.0000
  H   H696      1.0  0.79025  0.76810  0.67439  1.0000
  H   H697      1.0  0.72904  0.84908  0.64965  1.0000
  H   H698      1.0  0.65605  0.84503  0.67951  1.0000
  C   C442      1.0  0.68927  0.84260  0.68428  1.0000
  H   H699      1.0  0.68992  0.84019  0.70072  1.0000
  C   C443      1.0  0.71432  0.87824  0.65490  1.0000
  H   H700      1.0  0.71196  0.94525  0.67790  1.0000
  H   H701      1.0  0.77547  0.90239  0.67958  1.0000
  H   H702      1.0  0.75711  0.87462  0.70094  1.0000
  C   C444      1.0  0.75660  0.87523  0.68453  1.0000
  N   N45       1.0  0.71350  0.87841  0.67670  1.0000
  C   C445      1.0  0.69396  0.91762  0.68304  1.0000
  H   H703      1.0  0.69279  0.91877  0.69941  1.0000
  H   H704      1.0  0.66152  0.92148  0.67730  1.0000
  H   H705      1.0  0.68231  0.88050  0.64846  1.0000
  H   H706      1.0  0.73242  0.90484  0.64870  1.0000
  H   H707      1.0  0.77275  0.84655  0.67970  1.0000
  H   H708      1.0  0.70188  0.81266  0.67891  1.0000
  H   H709      1.0  0.77179  0.79341  0.70758  1.0000
  C   C446      1.0  0.71428  0.70555  0.70760  1.0000
  H   H710      1.0  0.69281  0.68816  0.71677  1.0000
  C   C447      1.0  0.73043  0.74299  0.71416  1.0000
  H   H711      1.0  0.63799  0.58449  0.71233  1.0000
  S   S172      1.0  0.71452  0.76142  0.73706  1.0000
  H   H712      1.0  0.73531  0.73731  0.77791  1.0000
  H   H713      1.0  0.79382  0.76310  0.75708  1.0000
  C   C448      1.0  0.74817  0.04717  0.70916  1.0000
  H   H714      1.0  0.76807  0.69206  0.75359  1.0000
  C   C449      1.0  0.75894  0.72568  0.78900  1.0000
  H   H715      1.0  0.77825  0.65298  0.77265  1.0000
  C   C450      1.0  0.79097  0.68140  0.76524  1.0000
  H   H716      1.0  0.74534  0.69860  0.79715  1.0000
  H   H717      1.0  0.76349  0.75063  0.79976  1.0000
  H   H718      1.0  0.58888  0.78504  0.78806  1.0000
  N   N46       1.0  0.79856  0.71432  0.77949  1.0000
  H   H719      1.0  0.82012  0.67232  0.75763  1.0000
  H   H720      1.0  0.82062  0.77710  0.77912  1.0000
  C   C451      1.0  0.81548  0.75125  0.76895  1.0000
  H   H721      1.0  0.84586  0.74419  0.76196  1.0000
  H   H722      1.0  0.83534  0.72348  0.80558  1.0000
  C   C452      1.0  0.82882  0.69909  0.79475  1.0000
  H   H723      1.0  0.81698  0.67155  0.80323  1.0000
  H   H724      1.0  0.85912  0.69011  0.78816  1.0000
  H   H725      1.0  0.57695  0.02772  0.76614  1.0000
  C   C453      1.0  0.68254  0.04173  0.73585  1.0000
  S   S173      1.0  0.76906  0.96411  0.71352  1.0000
  H   H726      1.0  0.79100  0.03256  0.77594  1.0000
  Fe  Fe85      1.0  0.79442  0.86821  0.77315  1.0000
  C   C454      1.0  0.58324  0.81789  0.78995  1.0000
  H   H727      1.0  0.78068  0.83569  0.81439  1.0000
  C   C455      1.0  0.56887  0.90290  0.79474  1.0000
  H   H728      1.0  0.56339  0.93569  0.79680  1.0000
  Fe  Fe86      1.0  0.73373  0.82508  0.74635  1.0000
  S   S174      1.0  0.73513  0.83429  0.77898  1.0000
  H   H729      1.0  0.64648  0.83478  0.78378  1.0000
  S   S175      1.0  0.69641  0.88335  0.73957  1.0000
  C   C456      1.0  0.70589  0.00605  0.73158  1.0000
  S   S176      1.0  0.79547  0.85481  0.74082  1.0000
  C   C457      1.0  0.73874  0.00862  0.71823  1.0000
  Fe  Fe87      1.0  0.70352  0.89553  0.77171  1.0000
  S   S177      1.0  0.64948  0.92402  0.78733  1.0000
  S   S178      1.0  0.76306  0.93067  0.76877  1.0000
  C   C458      1.0  0.60879  0.88856  0.79003  1.0000
  C   C459      1.0  0.61586  0.84607  0.78750  1.0000
  H   H730      1.0  0.69838  0.97660  0.73873  1.0000
  Fe  Fe88      1.0  0.75826  0.91439  0.73700  1.0000
  H   H731      1.0  0.65713  0.03939  0.74619  1.0000
  C   C460      1.0  0.80678  0.81719  0.81997  1.0000
  H   H732      1.0  0.77189  0.04519  0.75158  1.0000
  H   H733      1.0  0.91115  0.80466  0.81399  1.0000
  S   S179      1.0  0.85298  0.85623  0.79122  1.0000
  H   H734      1.0  0.82644  0.03559  0.75557  1.0000
  C   C461      1.0  0.84631  0.82283  0.81198  1.0000
  C   C462      1.0  0.88042  0.80018  0.82007  1.0000
  C   C463      1.0  0.76800  0.70779  0.93851  1.0000
  H   H735      1.0  0.74918  0.71916  0.92612  1.0000
  N   N47       1.0  0.76770  0.56440  0.93730  1.0000
  C   C464      1.0  0.73721  0.59226  0.92680  1.0000
  H   H736      1.0  0.70474  0.58540  0.93138  1.0000
  H   H737      1.0  0.74277  0.62545  0.93002  1.0000
  H   H738      1.0  0.73895  0.58914  0.91053  1.0000
  H   H739      1.0  0.77006  0.78310  0.84123  1.0000
  H   H740      1.0  0.79577  0.75337  0.89797  1.0000
  H   H741      1.0  0.77046  0.79480  0.88404  1.0000
  H   H742      1.0  0.75769  0.78540  0.90960  1.0000
  C   C465      1.0  0.78370  0.78584  0.89886  1.0000
  C   C466      1.0  0.80094  0.78780  0.83537  1.0000
  C   C467      1.0  0.81018  0.57470  0.93079  1.0000
  H   H743      1.0  0.81704  0.60792  0.93293  1.0000
  H   H744      1.0  0.81444  0.56863  0.91487  1.0000
  S   S180      1.0  0.03611  0.69543  0.87663  1.0000
  H   H745      1.0  0.83428  0.55635  0.93931  1.0000
  C   C468      1.0  0.80937  0.69483  0.93562  1.0000
  H   H746      1.0  0.82254  0.69654  0.92102  1.0000
  Fe  Fe89      1.0  0.87975  0.69116  0.87545  1.0000
  S   S181      1.0  0.82527  0.72620  0.86148  1.0000
  Fe  Fe90      1.0  0.91509  0.60330  0.88215  1.0000
  S   S182      1.0  0.93065  0.65553  0.86095  1.0000
  Fe  Fe91      1.0  0.97139  0.67685  0.88575  1.0000
  S   S183      1.0  0.95916  0.62178  0.90601  1.0000
  S   S184      1.0  0.86019  0.63667  0.89436  1.0000
  S   S185      1.0  0.92148  0.71764  0.89849  1.0000
  Fe  Fe92      1.0  0.90516  0.66040  0.91648  1.0000
  C   C469      1.0  0.83469  0.76422  0.84303  1.0000
  S   S186      1.0  0.88502  0.66191  0.94818  1.0000
  H   H747      1.0  0.03815  0.69801  0.91954  1.0000
  C   C470      1.0  0.83352  0.67942  0.95161  1.0000
  H   H748      1.0  0.85216  0.76780  0.92160  1.0000
  H   H749      1.0  0.90089  0.75285  0.84159  1.0000
  C   C471      1.0  0.87465  0.77087  0.83564  1.0000
  H   H750      1.0  0.81303  0.79419  0.93534  1.0000
  C   C472      1.0  0.83650  0.79852  0.92346  1.0000
  H   H751      1.0  0.86284  0.78582  0.88653  1.0000
  H   H752      1.0  0.77489  0.85539  0.91945  1.0000
  C   C473      1.0  0.79869  0.85614  0.90759  1.0000
  H   H753      1.0  0.78315  0.86859  0.89380  1.0000
  H   H754      1.0  0.86064  0.82002  0.92882  1.0000
  H   H755      1.0  0.82294  0.87868  0.91180  1.0000
  H   H756      1.0  0.87454  0.83789  0.89313  1.0000
  H   H757      1.0  0.83510  0.82848  0.87479  1.0000
  N   N48       1.0  0.81694  0.81435  0.90477  1.0000
  C   C474      1.0  0.84876  0.81690  0.88916  1.0000
  C   C475      1.0  0.76454  0.56986  0.95878  1.0000
  H   H758      1.0  0.59039  0.55494  0.04689  1.0000
  C   C476      1.0  0.75034  0.70474  0.95730  1.0000
  H   H759      1.0  0.70773  0.75047  0.07469  1.0000
  S   S187      1.0  0.62298  0.68511  0.00568  1.0000
  H   H760      1.0  0.76079  0.68644  0.98782  1.0000
  S   S188      1.0  0.67336  0.60168  0.04525  1.0000
  S   S189      1.0  0.59645  0.58621  0.00156  1.0000
  C   C477      1.0  0.77421  0.68868  0.97324  1.0000
  S   S190      1.0  0.69877  0.72196  0.96058  1.0000
  H   H761      1.0  0.60624  0.66243  0.04931  1.0000
  S   S191      1.0  0.60844  0.64575  0.96173  1.0000
  C   C478      1.0  0.65048  0.62391  0.06590  1.0000
  C   C479      1.0  0.61815  0.65336  0.06383  1.0000
  S   S192      1.0  0.68999  0.61645  0.98911  1.0000
  Fe  Fe93      1.0  0.64810  0.62196  0.01522  1.0000
  Fe  Fe94      1.0  0.57363  0.64898  0.99014  1.0000
  Fe  Fe95      1.0  0.66028  0.67610  0.97810  1.0000
  Fe  Fe96      1.0  0.63600  0.58652  0.97455  1.0000
  H   H762      1.0  0.74639  0.71071  0.07052  1.0000
  H   H763      1.0  0.76930  0.60284  0.96258  1.0000
  H   H764      1.0  0.78826  0.55065  0.96716  1.0000
  H   H765      1.0  0.73338  0.56053  0.96425  1.0000
  H   H766      1.0  0.57686  0.69485  0.07896  1.0000
  H   H767      1.0  0.55982  0.58038  0.07747  1.0000
  C   C480      1.0  0.81585  0.67637  0.97042  1.0000
  H   H768      1.0  0.83432  0.66424  0.98282  1.0000
