data_image0
_chemical_formula_structural       CHCH2CH4C2HCSNHNCSH2CH2NHCH2C3NHSHCHC3SHSFeH4CH2SH2CHSCH3CHFeHCH2CH5CHC2HCFeH3CSCHFeCH2C2SHSH3FeSCHSCSCSCH2SH3CH2C2HCH3SC2H2CNCH2CFeCH2SFeC2SHC2HCH4SCHCH3CSHS2HC2H2SFeCHCHCSH3FeCH5CH6NCH2C2SNFeCH2CFeCSHC2HFeCHSH3C2H3NH2SH3C2H3CHCH3FeHCH2SC2SCH5CHCH3C2SHS2HC2HFeH2NHFeC2H2CHCH2CHCH2FeHSNC2SH2CHCHCNSH3C2HFeH2SH2NHSH3C2S2HC2H2SH2SHC3HCH2FeC2HC3HSCFeHCH4C2H3CHNCH2SH3CHSHC2H2CH2C3HSCHCFeH4NHFeSHS2CHFeCSC2FeHC2H3CH2SHCH2FeH8NHC3HFeH3S3H2C2H6CSHCHCHCHSCH2CH2NFe2H2C3HCH2CNC2SC2FeH3CHCH2S2C2SH2C2HS2H3C2H6FeH4CFeCNH2C2H4C2HSH2FeC4HCFe3HC2H2SH2CFeHS4HCH5CHSH4C2FeHCH2C3HCHCSCH4C2H3FeHSHCH2NCHNC2HS2HSH3FeS2CH2SH2C3HCSHCHCSFeCH2CHC2H3SHSC3HCH6C2H3CHSC2HSHSH2SH2CHCH3FeCHCHCS2H3N2CHCNH4C2H5NFeNHC3HCH2CH2C4H3NCHCFeC2H2CSH3FeH2CH2SFeSFeHCHCHSHCH3NHCSCSHC2HC2SFeH3FeCSCH3S2CH5C2H2CH4CHC2H2SCHC2HSCHCNC3SH2FeCHSH2CFeHCHC2HSH2CNHCHFeHSFeCH2CH5CH2CH2FeHNH3FeCHC2HC2FeHC3H3C2FeHCHCH2CH2SHSHC3H3SC2SH4FeSH2SCHNSCSCH3SFeHC2H10FeH5C2S4CFeH3SHSC3H4CHFeH3CFeC2H2FeHSHSH2SCNHCHCHC2H3SCHSCSCH2CSC3HFeH2CH2C2HCH2CHNCSC2S2H3N2HCHSHNCH2C2FeH3CNCH2C3H2SFeH4CH4SH3SH2SCHSFeHC2HFeSHC3HSHCHCHCFeHS2CSH2CH5CSFeCHCHFeC6H2SCHSH2FeCSHSHCHCH2C4FeCSCSCHCSCHCSHSHCH2NHFeH2C2NHFeH3SFeH3C2HNH2CSCHCHFeSH2C2H3CHCHFeHC2HFeHCH2SCH2SCHSH2C3H2SCH3SC2SHC3SH4SFeHCHCFeHCH
_chemical_formula_sum              "C400 H640 S160 N40 Fe80"
_cell_length_a       16.1623
_cell_length_b       45.9832
_cell_length_c       31.567
_cell_angle_alpha    56.0508
_cell_angle_beta     81.8627
_cell_angle_gamma    96.4915

_space_group_name_H-M_alt    "P 1"
_space_group_IT_number       1

loop_
  _space_group_symop_operation_xyz
  'x, y, z'

loop_
  _atom_site_type_symbol
  _atom_site_label
  _atom_site_symmetry_multiplicity
  _atom_site_fract_x
  _atom_site_fract_y
  _atom_site_fract_z
  _atom_site_occupancy
  C   C1        1.0  0.24004  0.91430  0.65941  1.0000
  H   H1        1.0  0.10900  0.88407  0.68618  1.0000
  C   C2        1.0  0.32720  0.10779  0.83231  1.0000
  H   H2        1.0  0.90793  0.17763  0.75682  1.0000
  H   H3        1.0  0.57649  0.17161  0.66394  1.0000
  C   C3        1.0  0.02775  0.03391  0.83863  1.0000
  H   H4        1.0  0.94101  0.94079  0.73241  1.0000
  H   H5        1.0  0.13942  0.99174  0.86262  1.0000
  H   H6        1.0  0.61228  0.90404  0.75020  1.0000
  H   H7        1.0  0.37623  0.91978  0.77733  1.0000
  C   C4        1.0  0.11611  0.99859  0.82728  1.0000
  C   C5        1.0  0.42544  0.14444  0.65497  1.0000
  H   H8        1.0  0.37817  0.15119  0.67546  1.0000
  C   C6        1.0  0.83808  0.16201  0.71684  1.0000
  S   S1        1.0  0.43633  0.11464  0.83030  1.0000
  N   N1        1.0  0.09431  0.03411  0.80105  1.0000
  H   H9        1.0  0.84413  0.13440  0.74047  1.0000
  N   N2        1.0  0.48283  0.12467  0.68799  1.0000
  C   C7        1.0  0.24813  0.88345  0.86322  1.0000
  S   S2        1.0  0.04193  0.10312  0.86051  1.0000
  H   H10       1.0  0.54604  0.98470  0.73077  1.0000
  H   H11       1.0  0.18332  0.15508  0.77250  1.0000
  C   C8        1.0  0.15110  0.91056  0.66521  1.0000
  H   H12       1.0  0.00911  0.06027  0.81990  1.0000
  H   H13       1.0  0.04822  0.93850  0.64682  1.0000
  N   N3        1.0  0.24154  0.89473  0.81009  1.0000
  H   H14       1.0  0.85200  0.10652  0.63515  1.0000
  C   C9        1.0  0.15046  0.10318  0.84746  1.0000
  H   H15       1.0  0.05084  0.02886  0.87324  1.0000
  H   H16       1.0  0.57179  0.13223  0.72757  1.0000
  C   C10       1.0  0.91517  0.93048  0.86466  1.0000
  C   C11       1.0  0.26997  0.07666  0.87655  1.0000
  C   C12       1.0  0.95928  0.90893  0.85647  1.0000
  N   N4        1.0  0.61231  0.96026  0.69933  1.0000
  H   H17       1.0  0.73075  0.99913  0.67069  1.0000
  S   S3        1.0  0.20888  0.12376  0.64751  1.0000
  H   H18       1.0  0.63006  0.96537  0.76112  1.0000
  C   C13       1.0  0.32654  0.90001  0.77914  1.0000
  H   H19       1.0  0.17224  0.87403  0.77552  1.0000
  C   C14       1.0  0.29596  0.13556  0.79377  1.0000
  C   C15       1.0  0.87962  0.95564  0.82521  1.0000
  C   C16       1.0  0.65661  0.93040  0.71772  1.0000
  S   S4        1.0  0.63160  0.06054  0.80510  1.0000
  H   H20       1.0  0.34809  0.87432  0.79679  1.0000
  S   S5        1.0  0.67893  0.04785  0.71302  1.0000
  Fe  Fe1       1.0  0.73176  0.08620  0.73010  1.0000
  H   H21       1.0  0.97450  0.05662  0.65907  1.0000
  H   H22       1.0  0.10971  0.04224  0.72606  1.0000
  H   H23       1.0  0.15791  0.08913  0.76517  1.0000
  H   H24       1.0  0.99112  0.09749  0.65537  1.0000
  C   C17       1.0  0.20742  0.13324  0.80149  1.0000
  H   H25       1.0  0.48818  0.15619  0.71876  1.0000
  H   H26       1.0  0.22211  0.06419  0.75242  1.0000
  S   S6        1.0  0.82813  0.05565  0.76895  1.0000
  H   H27       1.0  0.33999  0.15974  0.75975  1.0000
  H   H28       1.0  0.38129  0.09610  0.75879  1.0000
  C   C18       1.0  0.43094  0.09084  0.73749  1.0000
  H   H29       1.0  0.38844  0.12808  0.64511  1.0000
  S   S7        1.0  0.92330  0.17617  0.84632  1.0000
  C   C19       1.0  0.17870  0.86646  0.81490  1.0000
  H   H30       1.0  0.52971  0.93688  0.77566  1.0000
  H   H31       1.0  0.96813  0.01277  0.85376  1.0000
  H   H32       1.0  0.15104  0.92638  0.80653  1.0000
  C   C20       1.0  0.53164  0.14722  0.70009  1.0000
  H   H33       1.0  0.04605  0.06902  0.73442  1.0000
  Fe  Fe2       1.0  0.76714  0.01531  0.75757  1.0000
  H   H34       1.0  0.00193  0.02177  0.76722  1.0000
  C   C21       1.0  0.06143  0.04203  0.75520  1.0000
  H   H35       1.0  0.26139  0.95124  0.77673  1.0000
  H   H36       1.0  0.07957  0.14719  0.68555  1.0000
  C   C22       1.0  0.54088  0.95429  0.67849  1.0000
  H   H37       1.0  0.32514  0.91015  0.73807  1.0000
  H   H38       1.0  0.64427  0.01794  0.64547  1.0000
  H   H39       1.0  0.83323  0.06641  0.63693  1.0000
  H   H40       1.0  0.20203  0.05592  0.81584  1.0000
  H   H41       1.0  0.84655  0.97265  0.83128  1.0000
  C   C23       1.0  0.11673  0.94127  0.64274  1.0000
  H   H42       1.0  0.39785  0.07217  0.72998  1.0000
  C   C24       1.0  0.57803  0.96186  0.74371  1.0000
  C   C25       1.0  0.93328  0.93777  0.76942  1.0000
  H   H43       1.0  0.50275  0.97510  0.66743  1.0000
  C   C26       1.0  0.38134  0.98606  0.85623  1.0000
  Fe  Fe3       1.0  0.72287  0.02582  0.84353  1.0000
  H   H44       1.0  0.16737  0.99808  0.80032  1.0000
  H   H45       1.0  0.27441  0.95952  0.84711  1.0000
  H   H46       1.0  0.68242  0.92832  0.68514  1.0000
  C   C27       1.0  0.96792  0.91239  0.80904  1.0000
  S   S8        1.0  0.52862  0.87335  0.65234  1.0000
  C   C28       1.0  0.29829  0.96520  0.87258  1.0000
  H   H47       1.0  0.05947  0.97680  0.84076  1.0000
  Fe  Fe4       1.0  0.58443  0.01996  0.79054  1.0000
  C   C29       1.0  0.09853  0.16551  0.64294  1.0000
  H   H48       1.0  0.47149  0.07623  0.76485  1.0000
  H   H49       1.0  0.58766  0.10147  0.68316  1.0000
  C   C30       1.0  0.21329  0.92896  0.78309  1.0000
  C   C31       1.0  0.17248  0.06208  0.78288  1.0000
  S   S9        1.0  0.47780  0.86444  0.85684  1.0000
  H   H50       1.0  0.49677  0.92734  0.70783  1.0000
  S   S10       1.0  0.84651  0.99098  0.72776  1.0000
  H   H51       1.0  0.20438  0.93739  0.74367  1.0000
  H   H52       1.0  0.71172  0.93445  0.73293  1.0000
  H   H53       1.0  0.00195  0.89573  0.80259  1.0000
  Fe  Fe5       1.0  0.04414  0.15941  0.83562  1.0000
  S   S11       1.0  0.28360  0.87610  0.68618  1.0000
  C   C32       1.0  0.79612  0.17359  0.67621  1.0000
  H   H54       1.0  0.50957  0.09870  0.64986  1.0000
  S   S12       1.0  0.75185  0.14372  0.66343  1.0000
  C   C33       1.0  0.88889  0.95926  0.77760  1.0000
  S   S13       1.0  0.66798  0.98338  0.83406  1.0000
  C   C34       1.0  0.54349  0.11607  0.65928  1.0000
  S   S14       1.0  0.44719  0.00079  0.79570  1.0000
  C   C35       1.0  0.67389  0.99474  0.65748  1.0000
  H   H55       1.0  0.47584  0.00984  0.87680  1.0000
  H   H56       1.0  0.56499  0.95574  0.64243  1.0000
  S   S15       1.0  0.10942  0.17925  0.87591  1.0000
  H   H57       1.0  0.55809  0.19030  0.84469  1.0000
  H   H58       1.0  0.11393  0.86164  0.83841  1.0000
  H   H59       1.0  0.29318  0.90459  0.86107  1.0000
  C   C36       1.0  0.87386  0.18647  0.72626  1.0000
  H   H60       1.0  0.58388  0.17523  0.80393  1.0000
  H   H61       1.0  0.43555  0.91772  0.87201  1.0000
  C   C37       1.0  0.29382  0.94852  0.63327  1.0000
  C   C38       1.0  0.41199  0.99358  0.88920  1.0000
  H   H62       1.0  0.71088  0.87936  0.05083  1.0000
  C   C39       1.0  0.78416  0.10630  0.99124  1.0000
  H   H63       1.0  0.70919  0.91121  0.91408  1.0000
  H   H64       1.0  0.73529  0.97568  0.03068  1.0000
  H   H65       1.0  0.15288  0.03464  0.01603  1.0000
  S   S16       1.0  0.00715  0.87858  0.90413  1.0000
  C   C40       1.0  0.17957  0.19213  0.99560  1.0000
  C   C41       1.0  0.36346  0.16916  0.05986  1.0000
  H   H66       1.0  0.29425  0.05479  0.90570  1.0000
  H   H67       1.0  0.86218  0.09813  0.91737  1.0000
  C   C42       1.0  0.93139  0.10058  0.98737  1.0000
  N   N5        1.0  0.32317  0.14720  0.11699  1.0000
  C   C43       1.0  0.24762  0.95010  0.92303  1.0000
  H   H68       1.0  0.56417  0.91969  0.93593  1.0000
  H   H69       1.0  0.06297  0.93795  0.07939  1.0000
  C   C44       1.0  0.14150  0.00474  0.04216  1.0000
  Fe  Fe6       1.0  0.29488  0.10134  0.99244  1.0000
  C   C45       1.0  0.66509  0.89656  0.03370  1.0000
  H   H70       1.0  0.63506  0.98194  0.09100  1.0000
  H   H71       1.0  0.16793  0.99610  0.01743  1.0000
  S   S17       1.0  0.01395  0.92619  0.98073  1.0000
  Fe  Fe7       1.0  0.10021  0.89851  0.03294  1.0000
  C   C46       1.0  0.27858  0.95702  0.95652  1.0000
  C   C47       1.0  0.00141  0.99770  0.02665  1.0000
  S   S18       1.0  0.75542  0.00471  0.92115  1.0000
  H   H72       1.0  0.76984  0.89341  0.96319  1.0000
  C   C48       1.0  0.01680  0.99995  0.09985  1.0000
  C   C49       1.0  0.36003  0.97955  0.93904  1.0000
  H   H73       1.0  0.50935  0.04246  0.96782  1.0000
  C   C50       1.0  0.56806  0.01397  0.03268  1.0000
  H   H74       1.0  0.32814  0.16044  0.03960  1.0000
  H   H75       1.0  0.13751  0.05097  0.91957  1.0000
  H   H76       1.0  0.87730  0.05423  0.96332  1.0000
  H   H77       1.0  0.75483  0.93834  0.93329  1.0000
  S   S19       1.0  0.34643  0.06123  0.98369  1.0000
  C   C51       1.0  0.62897  0.99354  0.05122  1.0000
  H   H78       1.0  0.75475  0.16737  0.02889  1.0000
  C   C52       1.0  0.74412  0.18171  0.98969  1.0000
  H   H79       1.0  0.93105  0.98652  0.04421  1.0000
  H   H80       1.0  0.37946  0.91325  0.95318  1.0000
  H   H81       1.0  0.91007  0.92825  0.90094  1.0000
  C   C53       1.0  0.83791  0.07371  0.95868  1.0000
  S   S20       1.0  0.15371  0.09437  0.02155  1.0000
  H   H82       1.0  0.02486  0.02971  0.07533  1.0000
  S   S21       1.0  0.50747  0.02400  0.07143  1.0000
  S   S22       1.0  0.36797  0.14841  0.91180  1.0000
  H   H83       1.0  0.99492  0.14838  0.09294  1.0000
  C   C54       1.0  0.66066  0.18419  0.98289  1.0000
  C   C55       1.0  0.04936  0.15321  0.06387  1.0000
  H   H84       1.0  0.19481  0.14081  0.10792  1.0000
  H   H85       1.0  0.77076  0.06201  0.96280  1.0000
  S   S23       1.0  0.53851  0.11562  0.93720  1.0000
  Fe  Fe8       1.0  0.47178  0.15108  0.95004  1.0000
  C   C56       1.0  0.58206  0.91921  0.96895  1.0000
  H   H86       1.0  0.19943  0.05274  0.12149  1.0000
  C   C57       1.0  0.19265  0.16412  0.99134  1.0000
  H   H87       1.0  0.82170  0.05444  0.08078  1.0000
  C   C58       1.0  0.13462  0.13045  0.02377  1.0000
  S   S24       1.0  0.91567  0.19026  0.95448  1.0000
  H   H88       1.0  0.69584  0.92429  0.02005  1.0000
  H   H89       1.0  0.17990  0.99771  0.07174  1.0000
  H   H90       1.0  0.43155  0.16766  0.05163  1.0000
  Fe  Fe9       1.0  0.45329  0.07006  0.01612  1.0000
  C   C59       1.0  0.61335  0.02356  0.94840  1.0000
  H   H91       1.0  0.85437  0.02924  0.05633  1.0000
  H   H92       1.0  0.01724  0.09922  0.08478  1.0000
  H   H93       1.0  0.60672  0.03535  0.90891  1.0000
  H   H94       1.0  0.60932  0.94751  0.95407  1.0000
  H   H95       1.0  0.60707  0.88654  0.06592  1.0000
  C   C60       1.0  0.10952  0.18642  0.03309  1.0000
  H   H96       1.0  0.52175  0.90926  0.99979  1.0000
  H   H97       1.0  0.46146  0.95036  0.06311  1.0000
  H   H98       1.0  0.38416  0.98543  0.96433  1.0000
  H   H99       1.0  0.80168  0.13169  0.95067  1.0000
  H   H100      1.0  0.60690  0.17209  0.01677  1.0000
  H   H101      1.0  0.93708  0.10804  0.01504  1.0000
  N   N6        1.0  0.84229  0.08235  0.99707  1.0000
  C   C61       1.0  0.72287  0.91048  0.94820  1.0000
  H   H102      1.0  0.74676  0.03554  0.06079  1.0000
  H   H103      1.0  0.38070  0.92400  0.05640  1.0000
  C   C62       1.0  0.67861  0.00557  0.96535  1.0000
  C   C63       1.0  0.55840  0.02787  0.98189  1.0000
  S   S25       1.0  0.82962  0.92091  0.07512  1.0000
  N   N7        1.0  0.64363  0.89633  0.99000  1.0000
  Fe  Fe10      1.0  0.99494  0.87962  0.97489  1.0000
  C   C64       1.0  0.39161  0.93804  0.07537  1.0000
  H   H104      1.0  0.22911  0.91612  0.13259  1.0000
  H   H105      1.0  0.97764  0.08362  0.99096  1.0000
  C   C65       1.0  0.39344  0.88993  0.95610  1.0000
  Fe  Fe11      1.0  0.42804  0.10904  0.90573  1.0000
  C   C66       1.0  0.68515  0.98979  0.01727  1.0000
  S   S26       1.0  0.21720  0.93585  0.02091  1.0000
  H   H106      1.0  0.94762  0.98706  0.12026  1.0000
  C   C67       1.0  0.06185  0.12532  0.05915  1.0000
  C   C68       1.0  0.44382  0.86218  0.91407  1.0000
  H   H107      1.0  0.18578  0.93222  0.93644  1.0000
  Fe  Fe12      1.0  0.91010  0.89177  0.05542  1.0000
  C   C69       1.0  0.81522  0.04884  0.05120  1.0000
  H   H108      1.0  0.35743  0.96032  0.05888  1.0000
  S   S27       1.0  0.39558  0.10622  0.03188  1.0000
  H   H109      1.0  0.95357  0.12602  0.94721  1.0000
  H   H110      1.0  0.02135  0.98711  0.00353  1.0000
  H   H111      1.0  0.01271  0.02752  0.99844  1.0000
  C   C70       1.0  0.03730  0.94801  0.10218  1.0000
  C   C71       1.0  0.42562  0.89242  0.91027  1.0000
  H   H112      1.0  0.71599  0.09320  0.99917  1.0000
  H   H113      1.0  0.24761  0.16872  0.96277  1.0000
  H   H114      1.0  0.78729  0.11406  0.01875  1.0000
  N   N8        1.0  0.04918  0.98760  0.06773  1.0000
  H   H115      1.0  0.96807  0.93402  0.12111  1.0000
  H   H116      1.0  0.28440  0.09881  0.12252  1.0000
  S   S28       1.0  0.99673  0.86555  0.10817  1.0000
  H   H117      1.0  0.91305  0.18267  0.11567  1.0000
  H   H118      1.0  0.05226  0.99309  0.13077  1.0000
  H   H119      1.0  0.23128  0.17962  0.10692  1.0000
  C   C72       1.0  0.23406  0.15103  0.12517  1.0000
  C   C73       1.0  0.74489  0.89154  0.13110  1.0000
  H   H120      1.0  0.25826  0.88055  0.12999  1.0000
  H   H121      1.0  0.36978  0.18779  0.12767  1.0000
  H   H122      1.0  0.18493  0.87825  0.88846  1.0000
  C   C74       1.0  0.18136  0.07433  0.88421  1.0000
  H   H123      1.0  0.38870  0.86540  0.19735  1.0000
  C   C75       1.0  0.09065  0.99527  0.25051  1.0000
  H   H124      1.0  0.62728  0.90968  0.36150  1.0000
  H   H125      1.0  0.71242  0.93341  0.13718  1.0000
  H   H126      1.0  0.16006  0.16216  0.37969  1.0000
  Fe  Fe13      1.0  0.05245  0.87755  0.29200  1.0000
  H   H127      1.0  0.72941  0.18612  0.33323  1.0000
  C   C76       1.0  0.92482  0.18095  0.15085  1.0000
  H   H128      1.0  0.38858  0.10502  0.13428  1.0000
  H   H129      1.0  0.21919  0.89373  0.35034  1.0000
  S   S29       1.0  0.93425  0.88370  0.33016  1.0000
  C   C77       1.0  0.28853  0.14564  0.33344  1.0000
  C   C78       1.0  0.78146  0.95480  0.32782  1.0000
  S   S30       1.0  0.19072  0.07596  0.28411  1.0000
  C   C79       1.0  0.10534  0.96291  0.25982  1.0000
  H   H130      1.0  0.24276  0.87650  0.19095  1.0000
  H   H131      1.0  0.64451  0.97331  0.28771  1.0000
  H   H132      1.0  0.40438  0.86969  0.13639  1.0000
  H   H133      1.0  0.76917  0.18589  0.18710  1.0000
  H   H134      1.0  0.23128  0.99613  0.13929  1.0000
  C   C80       1.0  0.37138  0.93300  0.15667  1.0000
  H   H135      1.0  0.07852  0.93790  0.29818  1.0000
  C   C81       1.0  0.12275  0.02754  0.20018  1.0000
  H   H136      1.0  0.05166  0.99507  0.28153  1.0000
  H   H137      1.0  0.20840  0.93227  0.35001  1.0000
  H   H138      1.0  0.07146  0.93950  0.13417  1.0000
  C   C82       1.0  0.65754  0.98093  0.31439  1.0000
  C   C83       1.0  0.19010  0.90227  0.37466  1.0000
  S   S31       1.0  0.16205  0.92266  0.22752  1.0000
  H   H139      1.0  0.34657  0.91498  0.20032  1.0000
  S   S32       1.0  0.09517  0.06733  0.18532  1.0000
  S   S33       1.0  0.25723  0.17513  0.23595  1.0000
  H   H140      1.0  0.44070  0.15894  0.13481  1.0000
  C   C84       1.0  0.15394  0.96307  0.21924  1.0000
  C   C85       1.0  0.37185  0.15957  0.14254  1.0000
  H   H141      1.0  0.75864  0.99379  0.36594  1.0000
  Fe  Fe14      1.0  0.15592  0.12454  0.27446  1.0000
  H   H142      1.0  0.59474  0.98155  0.33342  1.0000
  H   H143      1.0  0.58339  0.89311  0.21114  1.0000
  N   N9        1.0  0.36055  0.91294  0.13333  1.0000
  H   H144      1.0  0.33586  0.95487  0.14132  1.0000
  Fe  Fe15      1.0  0.09375  0.04438  0.36199  1.0000
  C   C86       1.0  0.71539  0.15641  0.35355  1.0000
  C   C87       1.0  0.69535  0.90516  0.15304  1.0000
  H   H145      1.0  0.74296  0.15109  0.32485  1.0000
  H   H146      1.0  0.69859  0.00885  0.28969  1.0000
  C   C88       1.0  0.19168  0.99573  0.17030  1.0000
  H   H147      1.0  0.48034  0.89703  0.14400  1.0000
  C   C89       1.0  0.26863  0.89569  0.14745  1.0000
  H   H148      1.0  0.60179  0.15091  0.30258  1.0000
  H   H149      1.0  0.20256  0.13538  0.16770  1.0000
  C   C90       1.0  0.17415  0.02780  0.16036  1.0000
  H   H150      1.0  0.63037  0.09397  0.37508  1.0000
  C   C91       1.0  0.41072  0.88502  0.15369  1.0000
  H   H151      1.0  0.24430  0.12119  0.34627  1.0000
  H   H152      1.0  0.77160  0.94605  0.30197  1.0000
  Fe  Fe16      1.0  0.07894  0.07312  0.25127  1.0000
  H   H153      1.0  0.34470  0.14270  0.18597  1.0000
  S   S34       1.0  0.05087  0.12437  0.23547  1.0000
  N   N10       1.0  0.69894  0.95527  0.35431  1.0000
  C   C92       1.0  0.57712  0.15545  0.33266  1.0000
  C   C93       1.0  0.37745  0.17991  0.35411  1.0000
  S   S35       1.0  0.83117  0.09581  0.33322  1.0000
  H   H154      1.0  0.88658  0.15448  0.18678  1.0000
  H   H155      1.0  0.11760  0.17628  0.32331  1.0000
  C   C94       1.0  0.30986  0.17538  0.28054  1.0000
  H   H156      1.0  0.88272  0.18179  0.23493  1.0000
  C   C95       1.0  0.32178  0.14800  0.37037  1.0000
  H   H157      1.0  0.29197  0.09149  0.18339  1.0000
  C   C96       1.0  0.62279  0.88233  0.19508  1.0000
  N   N11       1.0  0.62205  0.14006  0.37555  1.0000
  S   S36       1.0  0.06706  0.09359  0.35500  1.0000
  H   H158      1.0  0.44019  0.94584  0.14750  1.0000
  H   H159      1.0  0.99402  0.18102  0.14946  1.0000
  H   H160      1.0  0.24971  0.01727  0.35152  1.0000
  C   C97       1.0  0.32245  0.10895  0.14036  1.0000
  C   C98       1.0  0.11099  0.17565  0.35947  1.0000
  H   H161      1.0  0.38823  0.99966  0.34974  1.0000
  Fe  Fe17      1.0  0.96454  0.08957  0.31638  1.0000
  H   H162      1.0  0.58463  0.18502  0.31237  1.0000
  H   H163      1.0  0.81435  0.93573  0.35697  1.0000
  S   S37       1.0  0.98374  0.03779  0.32964  1.0000
  H   H164      1.0  0.82642  0.98196  0.30290  1.0000
  H   H165      1.0  0.50681  0.14297  0.34815  1.0000
  N   N12       1.0  0.21858  0.88627  0.42409  1.0000
  H   H166      1.0  0.88382  0.95376  0.56969  1.0000
  S   S38       1.0  0.12895  0.01430  0.58625  1.0000
  H   H167      1.0  0.67230  0.04688  0.54153  1.0000
  H   H168      1.0  0.99234  0.88368  0.57947  1.0000
  H   H169      1.0  0.03582  0.09167  0.54156  1.0000
  C   C99       1.0  0.73975  0.00147  0.50618  1.0000
  C   C100      1.0  0.25942  0.97906  0.61142  1.0000
  S   S39       1.0  0.41002  0.18499  0.40052  1.0000
  S   S40       1.0  0.70941  0.96315  0.57149  1.0000
  H   H170      1.0  0.82781  0.10894  0.57995  1.0000
  C   C101      1.0  0.31319  0.89774  0.41166  1.0000
  C   C102      1.0  0.16067  0.16002  0.61409  1.0000
  H   H171      1.0  0.95097  0.92406  0.60380  1.0000
  H   H172      1.0  0.33674  0.88715  0.44809  1.0000
  S   S41       1.0  0.40886  0.86475  0.58236  1.0000
  H   H173      1.0  0.77428  0.90051  0.59548  1.0000
  H   H174      1.0  0.23491  0.18039  0.53663  1.0000
  S   S42       1.0  0.46239  0.95144  0.43271  1.0000
  H   H175      1.0  0.30182  0.00530  0.59113  1.0000
  C   C103      1.0  0.70855  0.14236  0.51034  1.0000
  C   C104      1.0  0.17109  0.97566  0.61517  1.0000
  C   C105      1.0  0.36683  0.96577  0.43424  1.0000
  H   H176      1.0  0.71746  0.16888  0.50173  1.0000
  C   C106      1.0  0.60690  0.10063  0.40284  1.0000
  H   H177      1.0  0.67712  0.03899  0.39129  1.0000
  H   H178      1.0  0.30199  0.12552  0.41159  1.0000
  Fe  Fe18      1.0  0.23317  0.06089  0.56226  1.0000
  C   C107      1.0  0.26710  0.99997  0.38796  1.0000
  C   C108      1.0  0.93374  0.94016  0.56541  1.0000
  H   H179      1.0  0.62104  0.13653  0.44610  1.0000
  C   C109      1.0  0.63119  0.11704  0.54356  1.0000
  C   C110      1.0  0.84338  0.05627  0.43517  1.0000
  C   C111      1.0  0.17783  0.89825  0.45488  1.0000
  H   H180      1.0  0.20096  0.88812  0.49127  1.0000
  S   S43       1.0  0.21725  0.11704  0.52925  1.0000
  C   C112      1.0  0.82738  0.88886  0.58910  1.0000
  Fe  Fe19      1.0  0.35440  0.13551  0.48307  1.0000
  H   H181      1.0  0.65379  0.96760  0.40863  1.0000
  C   C113      1.0  0.34517  0.98957  0.38703  1.0000
  H   H182      1.0  0.85625  0.02305  0.51497  1.0000
  H   H183      1.0  0.18924  0.95274  0.52064  1.0000
  H   H184      1.0  0.93406  0.09915  0.52612  1.0000
  H   H185      1.0  0.59769  0.17711  0.39451  1.0000
  C   C114      1.0  0.79283  0.06095  0.40029  1.0000
  C   C115      1.0  0.75984  0.09895  0.49947  1.0000
  H   H186      1.0  0.93509  0.96222  0.46685  1.0000
  H   H187      1.0  0.10664  0.88836  0.46704  1.0000
  H   H188      1.0  0.32617  0.93368  0.51909  1.0000
  C   C116      1.0  0.71483  0.96648  0.38872  1.0000
  H   H189      1.0  0.84283  0.87093  0.62770  1.0000
  N   N13       1.0  0.90348  0.91741  0.54866  1.0000
  C   C117      1.0  0.68275  0.07338  0.53340  1.0000
  H   H190      1.0  0.95962  0.15568  0.52082  1.0000
  H   H191      1.0  0.34592  0.88775  0.39042  1.0000
  S   S44       1.0  0.52157  0.05091  0.59708  1.0000
  H   H192      1.0  0.57884  0.91768  0.40765  1.0000
  H   H193      1.0  0.98349  0.15473  0.57509  1.0000
  H   H194      1.0  0.46253  0.16999  0.61717  1.0000
  C   C118      1.0  0.71548  0.03596  0.41836  1.0000
  H   H195      1.0  0.90285  0.07569  0.42146  1.0000
  S   S45       1.0  0.61086  0.90904  0.52740  1.0000
  H   H196      1.0  0.80933  0.09204  0.48218  1.0000
  C   C119      1.0  0.81672  0.02662  0.48819  1.0000
  C   C120      1.0  0.77271  0.13345  0.48795  1.0000
  H   H197      1.0  0.99184  0.96179  0.53625  1.0000
  H   H198      1.0  0.62994  0.98681  0.48464  1.0000
  C   C121      1.0  0.68908  0.00620  0.47128  1.0000
  H   H199      1.0  0.69774  0.99578  0.62188  1.0000
  H   H200      1.0  0.51871  0.13528  0.43145  1.0000
  C   C122      1.0  0.21078  0.98683  0.43602  1.0000
  C   C123      1.0  0.97266  0.90073  0.54210  1.0000
  C   C124      1.0  0.96687  0.08719  0.55891  1.0000
  H   H201      1.0  0.79477  0.86963  0.44910  1.0000
  S   S46       1.0  0.86888  0.16541  0.44592  1.0000
  C   C125      1.0  0.31045  0.95244  0.48241  1.0000
  H   H202      1.0  0.06173  0.14873  0.53572  1.0000
  C   C126      1.0  0.61833  0.08249  0.55540  1.0000
  Fe  Fe20      1.0  0.41143  0.07678  0.57514  1.0000
  H   H203      1.0  0.64094  0.08819  0.43503  1.0000
  H   H204      1.0  0.67067  0.89854  0.41657  1.0000
  H   H205      1.0  0.93997  0.05746  0.58478  1.0000
  H   H206      1.0  0.74437  0.94733  0.42003  1.0000
  N   N14       1.0  0.95555  0.10292  0.58878  1.0000
  H   H207      1.0  0.19223  0.92809  0.43140  1.0000
  Fe  Fe21      1.0  0.48253  0.92045  0.51426  1.0000
  S   S47       1.0  0.10992  0.99724  0.43813  1.0000
  H   H208      1.0  0.58163  0.12442  0.55986  1.0000
  S   S48       1.0  0.40924  0.13358  0.54563  1.0000
  S   S49       1.0  0.36518  0.07993  0.50955  1.0000
  C   C127      1.0  0.58854  0.14765  0.41351  1.0000
  H   H209      1.0  0.03090  0.92162  0.51172  1.0000
  Fe  Fe22      1.0  0.27303  0.11115  0.59387  1.0000
  C   C128      1.0  0.64159  0.91878  0.38633  1.0000
  S   S50       1.0  0.47149  0.94389  0.56010  1.0000
  C   C129      1.0  0.99195  0.14224  0.55347  1.0000
  C   C130      1.0  0.87981  0.93982  0.49802  1.0000
  Fe  Fe23      1.0  0.59393  0.92782  0.57886  1.0000
  H   H210      1.0  0.85839  0.92355  0.48386  1.0000
  C   C131      1.0  0.23256  0.96302  0.48329  1.0000
  C   C132      1.0  0.18530  0.18398  0.55904  1.0000
  H   H211      1.0  0.82677  0.95229  0.50183  1.0000
  H   H212      1.0  0.33552  0.92759  0.38658  1.0000
  H   H213      1.0  0.58443  0.14101  0.62182  1.0000
  C   C133      1.0  0.86302  0.09581  0.61127  1.0000
  H   H214      1.0  0.53727  0.08720  0.42100  1.0000
  H   H215      1.0  0.95201  0.88334  0.52949  1.0000
  S   S51       1.0  0.28068  0.05404  0.62969  1.0000
  H   H216      1.0  0.06987  0.09152  0.61654  1.0000
  C   C134      1.0  0.99966  0.08636  0.63192  1.0000
  H   H217      1.0  0.04662  0.15830  0.38613  1.0000
  H   H218      1.0  0.80197  0.87172  0.57717  1.0000
  Fe  Fe24      1.0  0.40597  0.88757  0.62959  1.0000
  H   H219      1.0  0.36205  0.95160  0.63034  1.0000
  H   H220      1.0  0.11893  0.89399  0.38300  1.0000
  H   H221      1.0  0.75096  0.14508  0.38510  1.0000
  H   H222      1.0  0.39432  0.47457  0.84450  1.0000
  H   H223      1.0  0.61065  0.26532  0.67753  1.0000
  H   H224      1.0  0.90641  0.31220  0.86614  1.0000
  H   H225      1.0  0.38680  0.24463  0.65704  1.0000
  H   H226      1.0  0.39522  0.41651  0.71565  1.0000
  N   N15       1.0  0.57212  0.23030  0.76228  1.0000
  H   H227      1.0  0.51859  0.45686  0.63960  1.0000
  C   C135      1.0  0.63593  0.35571  0.83410  1.0000
  C   C136      1.0  0.39836  0.31629  0.75780  1.0000
  C   C137      1.0  0.59594  0.19881  0.80574  1.0000
  H   H228      1.0  0.46074  0.24329  0.73143  1.0000
  Fe  Fe25      1.0  0.80726  0.39671  0.70127  1.0000
  H   H229      1.0  0.56666  0.28429  0.73620  1.0000
  H   H230      1.0  0.20943  0.48004  0.85842  1.0000
  H   H231      1.0  0.37438  0.42760  0.87013  1.0000
  S   S52       1.0  0.29833  0.26134  0.76360  1.0000
  S   S53       1.0  0.05354  0.42276  0.67505  1.0000
  S   S54       1.0  0.10142  0.21018  0.75464  1.0000
  H   H232      1.0  0.46768  0.19702  0.76194  1.0000
  H   H233      1.0  0.27753  0.21890  0.69028  1.0000
  C   C138      1.0  0.48074  0.22036  0.76413  1.0000
  C   C139      1.0  0.28971  0.30495  0.84527  1.0000
  H   H234      1.0  0.62032  0.21961  0.70637  1.0000
  H   H235      1.0  0.29371  0.40398  0.70636  1.0000
  H   H236      1.0  0.92733  0.47022  0.75253  1.0000
  H   H237      1.0  0.70555  0.45892  0.66028  1.0000
  H   H238      1.0  0.70189  0.32134  0.79551  1.0000
  H   H239      1.0  0.54465  0.25208  0.80633  1.0000
  C   C140      1.0  0.13277  0.34913  0.65166  1.0000
  S   S55       1.0  0.90639  0.25265  0.70875  1.0000
  H   H240      1.0  0.30585  0.26455  0.66930  1.0000
  C   C141      1.0  0.66499  0.42050  0.64414  1.0000
  H   H241      1.0  0.70643  0.23280  0.84913  1.0000
  C   C142      1.0  0.84814  0.46483  0.86306  1.0000
  H   H242      1.0  0.66528  0.20490  0.80455  1.0000
  C   C143      1.0  0.78882  0.20936  0.64552  1.0000
  H   H243      1.0  0.01349  0.19939  0.63916  1.0000
  S   S56       1.0  0.66799  0.38352  0.70570  1.0000
  C   C144      1.0  0.36314  0.33326  0.81732  1.0000
  H   H244      1.0  0.33256  0.44952  0.68513  1.0000
  H   H245      1.0  0.32321  0.32533  0.64597  1.0000
  C   C145      1.0  0.62702  0.24181  0.71145  1.0000
  H   H246      1.0  0.62856  0.36375  0.86150  1.0000
  H   H247      1.0  0.69870  0.37185  0.80456  1.0000
  N   N16       1.0  0.39605  0.43634  0.63566  1.0000
  Fe  Fe26      1.0  0.95461  0.41111  0.74289  1.0000
  Fe  Fe27      1.0  0.97268  0.37542  0.68636  1.0000
  H   H248      1.0  0.46929  0.39583  0.66465  1.0000
  H   H249      1.0  0.36483  0.38162  0.65999  1.0000
  C   C146      1.0  0.82262  0.23352  0.65584  1.0000
  C   C147      1.0  0.63917  0.30691  0.82518  1.0000
  C   C148      1.0  0.58491  0.26016  0.76803  1.0000
  H   H250      1.0  0.05278  0.34902  0.81643  1.0000
  C   C149      1.0  0.19361  0.32832  0.66687  1.0000
  H   H251      1.0  0.17797  0.30257  0.70492  1.0000
  H   H252      1.0  0.21196  0.26110  0.85049  1.0000
  C   C150      1.0  0.24347  0.48544  0.82067  1.0000
  N   N17       1.0  0.28196  0.45531  0.82988  1.0000
  C   C151      1.0  0.26896  0.28293  0.82875  1.0000
  C   C152      1.0  0.91348  0.46031  0.79345  1.0000
  S   S57       1.0  0.87331  0.44597  0.69250  1.0000
  C   C153      1.0  0.07876  0.32491  0.84048  1.0000
  C   C154      1.0  0.32837  0.46408  0.77879  1.0000
  Fe  Fe28      1.0  0.15858  0.23150  0.79573  1.0000
  H   H253      1.0  0.14260  0.33450  0.84329  1.0000
  H   H254      1.0  0.58461  0.36377  0.81232  1.0000
  H   H255      1.0  0.65326  0.26855  0.76653  1.0000
  C   C155      1.0  0.41791  0.33872  0.77383  1.0000
  H   H256      1.0  0.58761  0.31375  0.80353  1.0000
  C   C156      1.0  0.86713  0.47767  0.81002  1.0000
  H   H257      1.0  0.84580  0.50084  0.78173  1.0000
  H   H258      1.0  0.85255  0.22744  0.86113  1.0000
  S   S58       1.0  0.04517  0.25373  0.80405  1.0000
  S   S59       1.0  0.03048  0.33211  0.69336  1.0000
  C   C157      1.0  0.21331  0.42207  0.85681  1.0000
  C   C158      1.0  0.32320  0.28865  0.78483  1.0000
  S   S60       1.0  0.38731  0.36120  0.83768  1.0000
  H   H259      1.0  0.16583  0.42545  0.83290  1.0000
  H   H260      1.0  0.63443  0.27762  0.84585  1.0000
  C   C159      1.0  0.35238  0.42614  0.68809  1.0000
  C   C160      1.0  0.86537  0.22214  0.69611  1.0000
  H   H261      1.0  0.28470  0.46888  0.75238  1.0000
  S   S61       1.0  0.99822  0.40815  0.80942  1.0000
  S   S62       1.0  0.87906  0.36093  0.75797  1.0000
  H   H262      1.0  0.43765  0.21262  0.80144  1.0000
  H   H263      1.0  0.24029  0.39887  0.86408  1.0000
  H   H264      1.0  0.19649  0.49021  0.79618  1.0000
  C   C161      1.0  0.94262  0.43057  0.82968  1.0000
  C   C162      1.0  0.31846  0.24611  0.65807  1.0000
  H   H265      1.0  0.08912  0.31318  0.81793  1.0000
  H   H266      1.0  0.44093  0.32066  0.72406  1.0000
  H   H267      1.0  0.93885  0.27680  0.86419  1.0000
  H   H268      1.0  0.19348  0.50166  0.66774  1.0000
  H   H269      1.0  0.35829  0.44189  0.78433  1.0000
  H   H270      1.0  0.47626  0.35984  0.75321  1.0000
  Fe  Fe29      1.0  0.98463  0.22857  0.76855  1.0000
  H   H271      1.0  0.69627  0.24982  0.70897  1.0000
  H   H272      1.0  0.76357  0.32155  0.86335  1.0000
  H   H273      1.0  0.38095  0.48897  0.75748  1.0000
  H   H274      1.0  0.29364  0.51094  0.80016  1.0000
  C   C163      1.0  0.34281  0.44967  0.86322  1.0000
  Fe  Fe30      1.0  0.99167  0.19972  0.88102  1.0000
  C   C164      1.0  0.42117  0.40482  0.64082  1.0000
  N   N18       1.0  0.63039  0.31659  0.86269  1.0000
  H   H275      1.0  0.07772  0.52388  0.69815  1.0000
  H   H276      1.0  0.05582  0.49349  0.64564  1.0000
  C   C165      1.0  0.92685  0.41859  0.88235  1.0000
  C   C166      1.0  0.27532  0.34100  0.63334  1.0000
  H   H277      1.0  0.16440  0.23401  0.64064  1.0000
  H   H278      1.0  0.24893  0.30020  0.87962  1.0000
  H   H279      1.0  0.49287  0.30340  0.88074  1.0000
  H   H280      1.0  0.69398  0.31396  0.91964  1.0000
  C   C167      1.0  0.73685  0.51352  0.03507  1.0000
  C   C168      1.0  0.14336  0.31002  0.11349  1.0000
  H   H281      1.0  0.00793  0.24465  0.96142  1.0000
  S   S63       1.0  0.50909  0.49880  0.00140  1.0000
  H   H282      1.0  0.98111  0.33795  0.90353  1.0000
  H   H283      1.0  0.84420  0.49177  0.09895  1.0000
  Fe  Fe31      1.0  0.87784  0.39876  0.08504  1.0000
  C   C169      1.0  0.87887  0.43551  0.89914  1.0000
  C   C170      1.0  0.60143  0.41394  0.94384  1.0000
  C   C171      1.0  0.77388  0.29799  0.02215  1.0000
  C   C172      1.0  0.79943  0.21548  0.89522  1.0000
  H   H284      1.0  0.17711  0.41460  0.89560  1.0000
  C   C173      1.0  0.76919  0.26909  0.01817  1.0000
  Fe  Fe32      1.0  0.85046  0.33893  0.06970  1.0000
  Fe  Fe33      1.0  0.22164  0.25933  0.02043  1.0000
  Fe  Fe34      1.0  0.43961  0.49372  0.07273  1.0000
  H   H285      1.0  0.86519  0.42571  0.94011  1.0000
  C   C174      1.0  0.69591  0.50980  0.11495  1.0000
  C   C175      1.0  0.05354  0.26590  0.92272  1.0000
  H   H286      1.0  0.22351  0.21807  0.96944  1.0000
  H   H287      1.0  0.07507  0.32421  0.92570  1.0000
  S   S64       1.0  0.77432  0.37917  0.06033  1.0000
  H   H288      1.0  0.43769  0.42255  0.01367  1.0000
  H   H289      1.0  0.56103  0.29781  0.04265  1.0000
  C   C176      1.0  0.47435  0.42387  0.97974  1.0000
  Fe  Fe35      1.0  0.41331  0.26845  0.01865  1.0000
  H   H290      1.0  0.53794  0.30241  0.93048  1.0000
  S   S65       1.0  0.32295  0.50741  0.04304  1.0000
  S   S66       1.0  0.51628  0.23738  0.03726  1.0000
  S   S67       1.0  0.33858  0.26711  0.96526  1.0000
  S   S68       1.0  0.29510  0.25588  0.07772  1.0000
  H   H291      1.0  0.69573  0.27742  0.91354  1.0000
  C   C177      1.0  0.69913  0.30692  0.89103  1.0000
  H   H292      1.0  0.09041  0.46448  0.11471  1.0000
  H   H293      1.0  0.66436  0.40648  0.94915  1.0000
  H   H294      1.0  0.06458  0.25379  0.90083  1.0000
  H   H295      1.0  0.61537  0.44151  0.90640  1.0000
  H   H296      1.0  0.48513  0.45201  0.94394  1.0000
  C   C178      1.0  0.61443  0.26070  0.03228  1.0000
  H   H297      1.0  0.56268  0.39513  0.93865  1.0000
  S   S69       1.0  0.54322  0.20529  0.92327  1.0000
  H   H298      1.0  0.43191  0.40582  0.97464  1.0000
  H   H299      1.0  0.94950  0.39562  0.91056  1.0000
  H   H300      1.0  0.94120  0.26931  0.10042  1.0000
  H   H301      1.0  0.79720  0.21263  0.11633  1.0000
  C   C179      1.0  0.84588  0.52113  0.07522  1.0000
  C   C180      1.0  0.54616  0.29648  0.90085  1.0000
  Fe  Fe36      1.0  0.31253  0.31585  0.03080  1.0000
  H   H302      1.0  0.59866  0.36705  0.04711  1.0000
  C   C181      1.0  0.15038  0.45822  0.96705  1.0000
  H   H303      1.0  0.17086  0.44188  0.95482  1.0000
  H   H304      1.0  0.53907  0.26682  0.92304  1.0000
  C   C182      1.0  0.68933  0.25006  0.02421  1.0000
  C   C183      1.0  0.18303  0.50642  0.97683  1.0000
  C   C184      1.0  0.21063  0.48551  0.96084  1.0000
  H   H305      1.0  0.68564  0.22738  0.02190  1.0000
  C   C185      1.0  0.81319  0.19676  0.94587  1.0000
  H   H306      1.0  0.88868  0.26774  0.92610  1.0000
  C   C186      1.0  0.61106  0.43803  0.99439  1.0000
  S   S70       1.0  0.78418  0.48463  0.88472  1.0000
  C   C187      1.0  0.95747  0.24567  0.10287  1.0000
  H   H307      1.0  0.30988  0.44266  0.90229  1.0000
  H   H308      1.0  0.15722  0.43270  0.08315  1.0000
  H   H309      1.0  0.63919  0.39895  0.11595  1.0000
  H   H310      1.0  0.11488  0.27175  0.93137  1.0000
  C   C188      1.0  0.01147  0.31457  0.92267  1.0000
  C   C189      1.0  0.53851  0.37591  0.03784  1.0000
  H   H311      1.0  0.57332  0.44851  0.10446  1.0000
  H   H312      1.0  0.36352  0.19794  0.04106  1.0000
  H   H313      1.0  0.07681  0.51366  0.01703  1.0000
  Fe  Fe37      1.0  0.39460  0.51611  0.96946  1.0000
  H   H314      1.0  0.50187  0.37385  0.07245  1.0000
  S   S71       1.0  0.93338  0.45681  0.05037  1.0000
  H   H315      1.0  0.63142  0.51447  0.10818  1.0000
  C   C190      1.0  0.06363  0.45091  0.99145  1.0000
  H   H316      1.0  0.73429  0.48416  0.05710  1.0000
  H   H317      1.0  0.49912  0.35604  0.03476  1.0000
  N   N19       1.0  0.01968  0.29847  0.89321  1.0000
  C   C191      1.0  0.09685  0.49860  0.00230  1.0000
  H   H318      1.0  0.62298  0.46640  0.95900  1.0000
  N   N20       1.0  0.55628  0.41290  0.98896  1.0000
  C   C192      1.0  0.17828  0.41668  0.12031  1.0000
  C   C193      1.0  0.61903  0.28994  0.03547  1.0000
  H   H319      1.0  0.24590  0.42988  0.11300  1.0000
  S   S72       1.0  0.09919  0.21926  0.04485  1.0000
  S   S73       1.0  0.32080  0.49204  0.93652  1.0000
  H   H320      1.0  0.17881  0.38991  0.12833  1.0000
  S   S74       1.0  0.31388  0.34256  0.07198  1.0000
  H   H321      1.0  0.97118  0.29470  0.96352  1.0000
  H   H322      1.0  0.94870  0.24864  0.06640  1.0000
  H   H323      1.0  0.82672  0.26069  0.01195  1.0000
  Fe  Fe38      1.0  0.35076  0.32597  0.92594  1.0000
  S   S75       1.0  0.87318  0.31993  0.01837  1.0000
  S   S76       1.0  0.43529  0.32832  0.97482  1.0000
  C   C194      1.0  0.03749  0.47012  0.01099  1.0000
  H   H324      1.0  0.70225  0.33050  0.03445  1.0000
  H   H325      1.0  0.01715  0.43023  0.99538  1.0000
  S   S77       1.0  0.22879  0.31866  0.97803  1.0000
  H   H326      1.0  0.58091  0.43674  0.02938  1.0000
  H   H327      1.0  0.67522  0.43183  0.99856  1.0000
  C   C195      1.0  0.64699  0.20259  0.93220  1.0000
  C   C196      1.0  0.71652  0.21862  0.88838  1.0000
  C   C197      1.0  0.69880  0.30829  0.03113  1.0000
  H   H328      1.0  0.14574  0.31020  0.07895  1.0000
  C   C198      1.0  0.21791  0.32355  0.12057  1.0000
  S   S78       1.0  0.95862  0.36152  0.08781  1.0000
  H   H329      1.0  0.02709  0.24741  0.10194  1.0000
  C   C199      1.0  0.93443  0.28837  0.88716  1.0000
  H   H330      1.0  0.67305  0.51788  0.02679  1.0000
  C   C200      1.0  0.20531  0.23520  0.30823  1.0000
  S   S79       1.0  0.15759  0.44341  0.35276  1.0000
  Fe  Fe39      1.0  0.46063  0.44938  0.34866  1.0000
  C   C201      1.0  0.08949  0.41743  0.34139  1.0000
  H   H331      1.0  0.11447  0.50683  0.16944  1.0000
  H   H332      1.0  0.07254  0.44756  0.18291  1.0000
  C   C202      1.0  0.02824  0.35962  0.36050  1.0000
  H   H333      1.0  0.03513  0.36488  0.18765  1.0000
  C   C203      1.0  0.44832  0.34889  0.20711  1.0000
  C   C204      1.0  0.81187  0.21098  0.15093  1.0000
  H   H334      1.0  0.34994  0.37044  0.22645  1.0000
  H   H335      1.0  0.13242  0.31198  0.23535  1.0000
  H   H336      1.0  0.05430  0.23127  0.28537  1.0000
  S   S80       1.0  0.37267  0.41938  0.32943  1.0000
  H   H337      1.0  0.79418  0.23441  0.14874  1.0000
  S   S81       1.0  0.95964  0.29113  0.23166  1.0000
  C   C205      1.0  0.92015  0.20797  0.19804  1.0000
  C   C206      1.0  0.97849  0.41218  0.29993  1.0000
  C   C207      1.0  0.05174  0.22812  0.32316  1.0000
  H   H338      1.0  0.18025  0.46570  0.14193  1.0000
  C   C208      1.0  0.21455  0.32339  0.16527  1.0000
  H   H339      1.0  0.27262  0.33359  0.17089  1.0000
  H   H340      1.0  0.60844  0.36983  0.27457  1.0000
  H   H341      1.0  0.25962  0.22524  0.32574  1.0000
  H   H342      1.0  0.47240  0.52536  0.15243  1.0000
  H   H343      1.0  0.03774  0.46169  0.28749  1.0000
  H   H344      1.0  0.71165  0.32636  0.35640  1.0000
  C   C209      1.0  0.36944  0.20650  0.26387  1.0000
  C   C210      1.0  0.06028  0.29962  0.19281  1.0000
  H   H345      1.0  0.46358  0.49347  0.22136  1.0000
  H   H346      1.0  0.05477  0.25504  0.31533  1.0000
  H   H347      1.0  0.64385  0.35604  0.23347  1.0000
  C   C211      1.0  0.97363  0.37517  0.32720  1.0000
  H   H348      1.0  0.22090  0.40973  0.20468  1.0000
  S   S82       1.0  0.57556  0.32144  0.18587  1.0000
  C   C212      1.0  0.65118  0.35413  0.26931  1.0000
  C   C213      1.0  0.13560  0.31102  0.20178  1.0000
  H   H349      1.0  0.71892  0.36753  0.26154  1.0000
  S   S83       1.0  0.78376  0.29692  0.15460  1.0000
  H   H350      1.0  0.80349  0.46586  0.34244  1.0000
  S   S84       1.0  0.55994  0.50074  0.28960  1.0000
  H   H351      1.0  0.31302  0.46711  0.23568  1.0000
  H   H352      1.0  0.74319  0.49660  0.30220  1.0000
  S   S85       1.0  0.89833  0.34807  0.32086  1.0000
  H   H353      1.0  0.98894  0.38953  0.20898  1.0000
  H   H354      1.0  0.16162  0.36730  0.22334  1.0000
  C   C214      1.0  0.68498  0.29598  0.30641  1.0000
  H   H355      1.0  0.89600  0.51501  0.36676  1.0000
  C   C215      1.0  0.41262  0.37675  0.20193  1.0000
  H   H356      1.0  0.98748  0.21103  0.34959  1.0000
  H   H357      1.0  0.49451  0.31498  0.33135  1.0000
  H   H358      1.0  0.63513  0.47458  0.38091  1.0000
  Fe  Fe40      1.0  0.71576  0.33881  0.14693  1.0000
  C   C216      1.0  0.50981  0.51995  0.35537  1.0000
  H   H359      1.0  0.67661  0.29670  0.27143  1.0000
  C   C217      1.0  0.64313  0.31505  0.36204  1.0000
  H   H360      1.0  0.85410  0.51294  0.29537  1.0000
  C   C218      1.0  0.06451  0.29845  0.14936  1.0000
  S   S86       1.0  0.81358  0.36121  0.17132  1.0000
  S   S87       1.0  0.41083  0.44723  0.15749  1.0000
  H   H361      1.0  0.93642  0.42438  0.27418  1.0000
  H   H362      1.0  0.38661  0.22948  0.22285  1.0000
  H   H363      1.0  0.41304  0.32112  0.23557  1.0000
  N   N21       1.0  0.12109  0.41325  0.16460  1.0000
  N   N22       1.0  0.62936  0.31617  0.31595  1.0000
  C   C219      1.0  0.53832  0.29963  0.32607  1.0000
  H   H364      1.0  0.51865  0.27136  0.36223  1.0000
  C   C220      1.0  0.03417  0.39251  0.17600  1.0000
  N   N23       1.0  0.90351  0.21140  0.15073  1.0000
  H   H365      1.0  0.90289  0.23009  0.19988  1.0000
  H   H366      1.0  0.00678  0.40585  0.14092  1.0000
  H   H367      1.0  0.66923  0.26716  0.34070  1.0000
  H   H368      1.0  0.21202  0.23574  0.27212  1.0000
  C   C221      1.0  0.45729  0.41266  0.16454  1.0000
  C   C222      1.0  0.79312  0.49352  0.32451  1.0000
  H   H369      1.0  0.98943  0.20917  0.19807  1.0000
  H   H370      1.0  0.52637  0.29885  0.29286  1.0000
  H   H371      1.0  0.75428  0.30744  0.29922  1.0000
  H   H372      1.0  0.11338  0.39088  0.24617  1.0000
  H   H373      1.0  0.60409  0.33109  0.36898  1.0000
  N   N24       1.0  0.12184  0.21233  0.34650  1.0000
  Fe  Fe41      1.0  0.88626  0.32236  0.17217  1.0000
  N   N25       1.0  0.76659  0.49983  0.36498  1.0000
  H   H374      1.0  0.31829  0.49818  0.16720  1.0000
  C   C223      1.0  0.52996  0.35684  0.17616  1.0000
  C   C224      1.0  0.40383  0.20867  0.30062  1.0000
  C   C225      1.0  0.30511  0.49448  0.20568  1.0000
  H   H375      1.0  0.00630  0.29002  0.14224  1.0000
  C   C226      1.0  0.03566  0.43323  0.30757  1.0000
  H   H376      1.0  0.23658  0.49461  0.21639  1.0000
  H   H377      1.0  0.35045  0.49059  0.28694  1.0000
  C   C227      1.0  0.15573  0.39447  0.21178  1.0000
  H   H378      1.0  0.44747  0.23335  0.28778  1.0000
  H   H379      1.0  0.21348  0.26355  0.29541  1.0000
  C   C228      1.0  0.11595  0.44942  0.15033  1.0000
  C   C229      1.0  0.08694  0.38078  0.36705  1.0000
  C   C230      1.0  0.45348  0.52046  0.19149  1.0000
  C   C231      1.0  0.34300  0.51730  0.25487  1.0000
  H   H380      1.0  0.27544  0.51846  0.26561  1.0000
  H   H381      1.0  0.02572  0.33123  0.38131  1.0000
  H   H382      1.0  0.71200  0.52045  0.13776  1.0000
  N   N26       1.0  0.36362  0.52266  0.20351  1.0000
  C   C232      1.0  0.57563  0.39276  0.13948  1.0000
  H   H383      1.0  0.68991  0.48016  0.14011  1.0000
  C   C233      1.0  0.53857  0.42074  0.13304  1.0000
  Fe  Fe42      1.0  0.94457  0.25180  0.49194  1.0000
  C   C234      1.0  0.15304  0.38256  0.60248  1.0000
  C   C235      1.0  0.05690  0.38001  0.49840  1.0000
  H   H384      1.0  0.34140  0.31519  0.57253  1.0000
  H   H385      1.0  0.01741  0.39947  0.47714  1.0000
  C   C236      1.0  0.29456  0.37359  0.58345  1.0000
  S   S88       1.0  0.70112  0.51791  0.47605  1.0000
  H   H386      1.0  0.60741  0.29513  0.51180  1.0000
  H   H387      1.0  0.91034  0.34749  0.49536  1.0000
  H   H388      1.0  0.72127  0.51219  0.56905  1.0000
  Fe  Fe43      1.0  0.38694  0.36906  0.40238  1.0000
  H   H389      1.0  0.38455  0.23213  0.58920  1.0000
  H   H390      1.0  0.27664  0.42812  0.61704  1.0000
  C   C237      1.0  0.14797  0.21359  0.53287  1.0000
  H   H391      1.0  0.75650  0.21829  0.61398  1.0000
  H   H392      1.0  0.65907  0.47969  0.43034  1.0000
  S   S89       1.0  0.61990  0.22273  0.55305  1.0000
  Fe  Fe44      1.0  0.87640  0.29234  0.39466  1.0000
  S   S90       1.0  0.85082  0.28711  0.47045  1.0000
  Fe  Fe45      1.0  0.86584  0.21229  0.45028  1.0000
  H   H393      1.0  0.01850  0.29099  0.59912  1.0000
  C   C238      1.0  0.83420  0.49526  0.39377  1.0000
  H   H394      1.0  0.19373  0.27951  0.62040  1.0000
  C   C239      1.0  0.23345  0.39434  0.56757  1.0000
  H   H395      1.0  0.10404  0.31717  0.54015  1.0000
  S   S91       1.0  0.97631  0.25973  0.41424  1.0000
  H   H396      1.0  0.69349  0.44558  0.42538  1.0000
  C   C240      1.0  0.68613  0.48055  0.54077  1.0000
  H   H397      1.0  0.89943  0.36332  0.55912  1.0000
  H   H398      1.0  0.49120  0.20730  0.50991  1.0000
  H   H399      1.0  0.19193  0.27046  0.57181  1.0000
  N   N27       1.0  0.00274  0.34357  0.54013  1.0000
  H   H400      1.0  0.10147  0.37986  0.46831  1.0000
  C   C241      1.0  0.50941  0.30496  0.46868  1.0000
  S   S92       1.0  0.39482  0.38770  0.54106  1.0000
  C   C242      1.0  0.08604  0.21913  0.56181  1.0000
  S   S93       1.0  0.27537  0.36705  0.45579  1.0000
  H   H401      1.0  0.81565  0.26097  0.63257  1.0000
  C   C243      1.0  0.31582  0.23348  0.59349  1.0000
  C   C244      1.0  0.11925  0.21038  0.39504  1.0000
  H   H402      1.0  0.30013  0.24196  0.55546  1.0000
  C   C245      1.0  0.65931  0.44581  0.55406  1.0000
  C   C246      1.0  0.94262  0.34520  0.57826  1.0000
  S   S94       1.0  0.84274  0.20147  0.52987  1.0000
  Fe  Fe46      1.0  0.37461  0.40005  0.46492  1.0000
  H   H403      1.0  0.31940  0.47366  0.59405  1.0000
  H   H404      1.0  0.45803  0.48993  0.60778  1.0000
  H   H405      1.0  0.84618  0.46775  0.41322  1.0000
  Fe  Fe47      1.0  0.75094  0.23742  0.50197  1.0000
  C   C247      1.0  0.70045  0.48534  0.57931  1.0000
  S   S95       1.0  0.76797  0.24553  0.42407  1.0000
  C   C248      1.0  0.45134  0.29095  0.45198  1.0000
  H   H406      1.0  0.09450  0.32770  0.58747  1.0000
  H   H407      1.0  0.17022  0.19770  0.41429  1.0000
  H   H408      1.0  0.05599  0.19434  0.42404  1.0000
  S   S96       1.0  0.39084  0.31781  0.40970  1.0000
  S   S97       1.0  0.02019  0.50935  0.54983  1.0000
  C   C249      1.0  0.55492  0.24881  0.51449  1.0000
  H   H409      1.0  0.91454  0.30211  0.54607  1.0000
  H   H410      1.0  0.42426  0.29502  0.56345  1.0000
  H   H411      1.0  0.51610  0.33224  0.45662  1.0000
  H   H412      1.0  0.99782  0.32903  0.48647  1.0000
  H   H413      1.0  0.39963  0.24460  0.45434  1.0000
  C   C250      1.0  0.49585  0.23445  0.49874  1.0000
  C   C251      1.0  0.68515  0.47368  0.40217  1.0000
  H   H414      1.0  0.64731  0.44208  0.52439  1.0000
  H   H415      1.0  0.81580  0.49941  0.42501  1.0000
  C   C252      1.0  0.11289  0.52290  0.56247  1.0000
  H   H416      1.0  0.34512  0.30449  0.52575  1.0000
  H   H417      1.0  0.50932  0.47312  0.57426  1.0000
  H   H418      1.0  0.10600  0.39880  0.59087  1.0000
  H   H419      1.0  0.90196  0.31804  0.61078  1.0000
  C   C253      1.0  0.44429  0.25557  0.46728  1.0000
  H   H420      1.0  0.09654  0.39079  0.51486  1.0000
  C   C254      1.0  0.95390  0.33006  0.51595  1.0000
  C   C255      1.0  0.64787  0.41572  0.60599  1.0000
  H   H421      1.0  0.97776  0.35523  0.59721  1.0000
  H   H422      1.0  0.24889  0.41977  0.52892  1.0000
  S   S98       1.0  0.48645  0.39934  0.41556  1.0000
  C   C256      1.0  0.33722  0.44907  0.60036  1.0000
  H   H423      1.0  0.45116  0.41127  0.60166  1.0000
  C   C257      1.0  0.56151  0.28399  0.49969  1.0000
  C   C258      1.0  0.05767  0.31886  0.56785  1.0000
  H   H424      1.0  0.36718  0.45587  0.56093  1.0000
  S   S99       1.0  0.04555  0.25785  0.53006  1.0000
  C   C259      1.0  0.35502  0.29495  0.56533  1.0000
  H   H425      1.0  0.16887  0.23277  0.49041  1.0000
  C   C260      1.0  0.47390  0.46536  0.61330  1.0000
  N   N28       1.0  0.29944  0.25880  0.60676  1.0000
  C   C261      1.0  0.19186  0.51390  0.62709  1.0000
  C   C262      1.0  0.11437  0.50887  0.61463  1.0000
  C   C263      1.0  0.20841  0.26083  0.60998  1.0000
  S   S100      1.0  0.35423  0.45191  0.39922  1.0000
  H   H426      1.0  0.27608  0.20576  0.62436  1.0000
  H   H427      1.0  0.50547  0.49242  0.38757  1.0000
  Fe  Fe48      1.0  0.96708  0.45437  0.62517  1.0000
  C   C264      1.0  0.06104  0.19497  0.61677  1.0000
  H   H428      1.0  0.62911  0.38883  0.61607  1.0000
  S   S101      1.0  0.89587  0.40755  0.63019  1.0000
  H   H429      1.0  0.62500  0.28698  0.39846  1.0000
  H   H430      1.0  0.12887  0.36849  0.39286  1.0000
  C   C265      1.0  0.69134  0.45523  0.63087  1.0000
  Fe  Fe49      1.0  0.26744  0.41959  0.38357  1.0000
  H   H431      1.0  0.12998  0.23773  0.38635  1.0000
  C   C266      1.0  0.15661  0.81201  0.66548  1.0000
  H   H432      1.0  0.14826  0.80618  0.75591  1.0000
  C   C267      1.0  0.96605  0.71337  0.64884  1.0000
  C   C268      1.0  0.98406  0.74587  0.64360  1.0000
  H   H433      1.0  0.20233  0.78430  0.84477  1.0000
  S   S102      1.0  0.68834  0.61241  0.70223  1.0000
  H   H434      1.0  0.64713  0.72135  0.63276  1.0000
  H   H435      1.0  0.09611  0.60384  0.70291  1.0000
  C   C269      1.0  0.89173  0.68669  0.68534  1.0000
  N   N29       1.0  0.16585  0.78088  0.71610  1.0000
  H   H436      1.0  0.08809  0.81062  0.66383  1.0000
  C   C270      1.0  0.28311  0.63913  0.87902  1.0000
  H   H437      1.0  0.41647  0.62802  0.80488  1.0000
  Fe  Fe50      1.0  0.60436  0.55747  0.76245  1.0000
  H   H438      1.0  0.28585  0.80503  0.71858  1.0000
  S   S103      1.0  0.47102  0.54847  0.75324  1.0000
  Fe  Fe51      1.0  0.57330  0.75523  0.88175  1.0000
  C   C271      1.0  0.25808  0.78313  0.71568  1.0000
  H   H439      1.0  0.31552  0.65704  0.83637  1.0000
  H   H440      1.0  0.98914  0.54203  0.70614  1.0000
  C   C272      1.0  0.43822  0.59220  0.78334  1.0000
  H   H441      1.0  0.63677  0.76865  0.72336  1.0000
  H   H442      1.0  0.60781  0.75074  0.79177  1.0000
  H   H443      1.0  0.46894  0.57663  0.81480  1.0000
  H   H444      1.0  0.94117  0.77694  0.67036  1.0000
  H   H445      1.0  0.59824  0.67120  0.82804  1.0000
  C   C273      1.0  0.37072  0.64214  0.73628  1.0000
  H   H446      1.0  0.51812  0.68765  0.74017  1.0000
  H   H447      1.0  0.29699  0.78860  0.67911  1.0000
  C   C274      1.0  0.08139  0.60778  0.66693  1.0000
  H   H448      1.0  0.87717  0.66190  0.68865  1.0000
  H   H449      1.0  0.74728  0.78238  0.64274  1.0000
  Fe  Fe52      1.0  0.31423  0.71353  0.64700  1.0000
  H   H450      1.0  0.06981  0.53773  0.74156  1.0000
  N   N30       1.0  0.10883  0.58129  0.65879  1.0000
  H   H451      1.0  0.13954  0.57895  0.87940  1.0000
  H   H452      1.0  0.26866  0.75761  0.74893  1.0000
  H   H453      1.0  0.81274  0.72922  0.73634  1.0000
  Fe  Fe53      1.0  0.47421  0.80854  0.88004  1.0000
  C   C275      1.0  0.70777  0.70462  0.88066  1.0000
  H   H454      1.0  0.17409  0.66325  0.81688  1.0000
  C   C276      1.0  0.20167  0.58384  0.65633  1.0000
  C   C277      1.0  0.53943  0.68213  0.82559  1.0000
  H   H455      1.0  0.70956  0.68794  0.65468  1.0000
  C   C278      1.0  0.92783  0.75174  0.67458  1.0000
  C   C279      1.0  0.83676  0.69226  0.71734  1.0000
  Fe  Fe54      1.0  0.38688  0.74965  0.87448  1.0000
  H   H456      1.0  0.47874  0.75617  0.73250  1.0000
  C   C280      1.0  0.77113  0.66267  0.87035  1.0000
  C   C281      1.0  0.38713  0.60300  0.70837  1.0000
  C   C282      1.0  0.47101  0.72973  0.77092  1.0000
  H   H457      1.0  0.22536  0.56443  0.65006  1.0000
  H   H458      1.0  0.12542  0.75779  0.79841  1.0000
  H   H459      1.0  0.52688  0.68594  0.85754  1.0000
  C   C283      1.0  0.12050  0.78126  0.75977  1.0000
  C   C284      1.0  0.56817  0.70987  0.73224  1.0000
  Fe  Fe55      1.0  0.73187  0.60854  0.76857  1.0000
  H   H460      1.0  0.38033  0.59624  0.68105  1.0000
  C   C285      1.0  0.85481  0.72486  0.71168  1.0000
  H   H461      1.0  0.41573  0.71087  0.77522  1.0000
  C   C286      1.0  0.12766  0.74697  0.72385  1.0000
  H   H462      1.0  0.01110  0.60558  0.67142  1.0000
  H   H463      1.0  0.05096  0.77999  0.76093  1.0000
  C   C287      1.0  0.42808  0.58316  0.74851  1.0000
  H   H464      1.0  0.22621  0.61385  0.82494  1.0000
  H   H465      1.0  0.48509  0.66102  0.83427  1.0000
  S   S104      1.0  0.50599  0.79398  0.82360  1.0000
  H   H466      1.0  0.21624  0.57833  0.69321  1.0000
  S   S105      1.0  0.63977  0.55517  0.83023  1.0000
  H   H467      1.0  0.32906  0.64840  0.67025  1.0000
  C   C288      1.0  0.14432  0.64546  0.86012  1.0000
  C   C289      1.0  0.62248  0.74343  0.76392  1.0000
  C   C290      1.0  0.35901  0.63269  0.70198  1.0000
  H   H468      1.0  0.13921  0.66319  0.87352  1.0000
  H   H469      1.0  0.56999  0.73413  0.69275  1.0000
  H   H470      1.0  0.18303  0.83797  0.65895  1.0000
  S   S106      1.0  0.34047  0.68042  0.72687  1.0000
  C   C291      1.0  0.16902  0.75813  0.88022  1.0000
  C   C292      1.0  0.05950  0.54458  0.70318  1.0000
  S   S107      1.0  0.70567  0.74919  0.85837  1.0000
  H   H471      1.0  0.68183  0.73311  0.76960  1.0000
  H   H472      1.0  0.82113  0.65768  0.85017  1.0000
  H   H473      1.0  0.63091  0.70255  0.73012  1.0000
  H   H474      1.0  0.19873  0.84045  0.83475  1.0000
  Fe  Fe56      1.0  0.79119  0.58484  0.69909  1.0000
  S   S108      1.0  0.28453  0.73178  0.84782  1.0000
  H   H475      1.0  0.13519  0.72302  0.76109  1.0000
  H   H476      1.0  0.82647  0.71988  0.82471  1.0000
  S   S109      1.0  0.74427  0.65934  0.76375  1.0000
  C   C293      1.0  0.20277  0.59692  0.86863  1.0000
  H   H477      1.0  0.15803  0.74592  0.69107  1.0000
  N   N31       1.0  0.55016  0.71624  0.77320  1.0000
  S   S110      1.0  0.18876  0.69689  0.63549  1.0000
  C   C294      1.0  0.40840  0.62132  0.77772  1.0000
  S   S111      1.0  0.84124  0.58433  0.76190  1.0000
  C   C295      1.0  0.77412  0.69786  0.85596  1.0000
  H   H478      1.0  0.05777  0.74400  0.72573  1.0000
  H   H479      1.0  0.45383  0.73345  0.80268  1.0000
  H   H480      1.0  0.07803  0.63151  0.86647  1.0000
  S   S112      1.0  0.70378  0.52967  0.75392  1.0000
  Fe  Fe57      1.0  0.74622  0.53114  0.81771  1.0000
  H   H481      1.0  0.11383  0.63588  0.63274  1.0000
  C   C296      1.0  0.18604  0.60995  0.06125  1.0000
  C   C297      1.0  0.17822  0.77330  0.09161  1.0000
  H   H482      1.0  0.20671  0.63879  0.03168  1.0000
  H   H483      1.0  0.37042  0.56404  0.12233  1.0000
  H   H484      1.0  0.39947  0.80351  0.04756  1.0000
  H   H485      1.0  0.59285  0.85775  0.97643  1.0000
  H   H486      1.0  0.32426  0.62036  0.89953  1.0000
  H   H487      1.0  0.23397  0.79691  0.06871  1.0000
  H   H488      1.0  0.90578  0.77886  0.97686  1.0000
  H   H489      1.0  0.08641  0.77925  0.91091  1.0000
  H   H490      1.0  0.78769  0.57902  0.05294  1.0000
  H   H491      1.0  0.54229  0.84841  0.03815  1.0000
  Fe  Fe58      1.0  0.38590  0.56463  0.00645  1.0000
  H   H492      1.0  0.52186  0.67533  0.12985  1.0000
  H   H493      1.0  0.86829  0.74193  0.94410  1.0000
  H   H494      1.0  0.24446  0.72490  0.04788  1.0000
  H   H495      1.0  0.17472  0.66984  0.94462  1.0000
  H   H496      1.0  0.89634  0.53421  0.03793  1.0000
  C   C298      1.0  0.15495  0.59615  0.94553  1.0000
  C   C299      1.0  0.40461  0.82807  0.00950  1.0000
  S   S113      1.0  0.69329  0.59062  0.92457  1.0000
  S   S114      1.0  0.89559  0.61440  0.08439  1.0000
  S   S115      1.0  0.45546  0.70991  0.92793  1.0000
  S   S116      1.0  0.31970  0.60533  0.00424  1.0000
  C   C300      1.0  0.69297  0.73774  0.02257  1.0000
  Fe  Fe59      1.0  0.97709  0.82442  0.09104  1.0000
  H   H497      1.0  0.51967  0.61138  0.04527  1.0000
  H   H498      1.0  0.22879  0.52826  0.97031  1.0000
  H   H499      1.0  0.70282  0.57301  0.02629  1.0000
  S   S117      1.0  0.64750  0.59229  0.10402  1.0000
  H   H500      1.0  0.75772  0.72105  0.95779  1.0000
  S   S118      1.0  0.88073  0.84794  0.04423  1.0000
  C   C301      1.0  0.70105  0.63433  0.90876  1.0000
  C   C302      1.0  0.46444  0.66580  0.07972  1.0000
  C   C303      1.0  0.23229  0.58705  0.05816  1.0000
  H   H501      1.0  0.58273  0.61971  0.96411  1.0000
  H   H502      1.0  0.81197  0.58160  0.99339  1.0000
  H   H503      1.0  0.26790  0.72629  0.10079  1.0000
  H   H504      1.0  0.59272  0.68020  0.94299  1.0000
  C   C304      1.0  0.60499  0.85908  0.00921  1.0000
  H   H505      1.0  0.03555  0.72964  0.10302  1.0000
  Fe  Fe60      1.0  0.55834  0.55719  0.96828  1.0000
  H   H506      1.0  0.66770  0.75646  0.02995  1.0000
  H   H507      1.0  0.24905  0.57965  0.88458  1.0000
  H   H508      1.0  0.41815  0.64992  0.03324  1.0000
  C   C305      1.0  0.52005  0.62499  0.06410  1.0000
  Fe  Fe61      1.0  0.76241  0.60627  0.12687  1.0000
  C   C306      1.0  0.46340  0.64734  0.05659  1.0000
  C   C307      1.0  0.76658  0.56704  0.03288  1.0000
  H   H509      1.0  0.76785  0.74581  0.10718  1.0000
  H   H510      1.0  0.44818  0.80659  0.96727  1.0000
  Fe  Fe62      1.0  0.42901  0.73064  0.97679  1.0000
  H   H511      1.0  0.64421  0.72760  0.00939  1.0000
  S   S119      1.0  0.79394  0.65701  0.12080  1.0000
  H   H512      1.0  0.12021  0.78365  0.09374  1.0000
  S   S120      1.0  0.59736  0.75216  0.12840  1.0000
  H   H513      1.0  0.09309  0.78546  0.01670  1.0000
  H   H514      1.0  0.82205  0.78505  0.01295  1.0000
  S   S121      1.0  0.55074  0.77371  0.93370  1.0000
  C   C308      1.0  0.84112  0.76576  0.00489  1.0000
  N   N32       1.0  0.17069  0.75384  0.06722  1.0000
  H   H515      1.0  0.86668  0.53169  0.09731  1.0000
  C   C309      1.0  0.10426  0.75528  0.91766  1.0000
  H   H516      1.0  0.78368  0.52732  0.99613  1.0000
  C   C310      1.0  0.38301  0.85785  0.00578  1.0000
  H   H517      1.0  0.64691  0.84035  0.02904  1.0000
  C   C311      1.0  0.64111  0.67588  0.92131  1.0000
  C   C312      1.0  0.09799  0.72187  0.10056  1.0000
  H   H518      1.0  0.74423  0.80662  0.94051  1.0000
  H   H519      1.0  0.05999  0.66464  0.01100  1.0000
  H   H520      1.0  0.15522  0.76481  0.99366  1.0000
  S   S122      1.0  0.39986  0.69663  0.06510  1.0000
  C   C313      1.0  0.77096  0.78785  0.93385  1.0000
  H   H521      1.0  0.20738  0.80336  0.98928  1.0000
  S   S123      1.0  0.09031  0.85465  0.02105  1.0000
  C   C314      1.0  0.52014  0.66088  0.11209  1.0000
  S   S124      1.0  0.44959  0.57481  0.93024  1.0000
  C   C315      1.0  0.43331  0.83000  0.96378  1.0000
  H   H522      1.0  0.83498  0.80278  0.90528  1.0000
  H   H523      1.0  0.09309  0.70569  0.08455  1.0000
  C   C316      1.0  0.15600  0.77803  0.01427  1.0000
  S   S125      1.0  0.49709  0.55018  0.04266  1.0000
  C   C317      1.0  0.06525  0.72156  0.96492  1.0000
  C   C318      1.0  0.15295  0.69344  0.93629  1.0000
  C   C319      1.0  0.25054  0.74204  0.06245  1.0000
  H   H524      1.0  0.69716  0.71411  0.06138  1.0000
  Fe  Fe63      1.0  0.92877  0.66310  0.08411  1.0000
  H   H525      1.0  0.30578  0.76521  0.03423  1.0000
  H   H526      1.0  0.08952  0.58046  0.95432  1.0000
  C   C320      1.0  0.80500  0.72974  0.97333  1.0000
  H   H527      1.0  0.84842  0.74187  0.04242  1.0000
  H   H528      1.0  0.07685  0.61349  0.10413  1.0000
  C   C321      1.0  0.63658  0.64113  0.93432  1.0000
  C   C322      1.0  0.08866  0.69057  0.97404  1.0000
  H   H529      1.0  0.81145  0.70493  0.00978  1.0000
  C   C323      1.0  0.11282  0.59562  0.10245  1.0000
  H   H530      1.0  0.72923  0.78078  0.91434  1.0000
  H   H531      1.0  0.14889  0.61230  0.96154  1.0000
  C   C324      1.0  0.57723  0.62054  0.09538  1.0000
  H   H532      1.0  0.19373  0.57682  0.96809  1.0000
  N   N33       1.0  0.77742  0.75524  0.98371  1.0000
  C   C325      1.0  0.19330  0.72720  0.88963  1.0000
  S   S126      1.0  0.35024  0.76692  0.92703  1.0000
  C   C326      1.0  0.20713  0.54989  0.09741  1.0000
  C   C327      1.0  0.57647  0.63822  0.11990  1.0000
  S   S127      1.0  0.99255  0.71928  0.01360  1.0000
  S   S128      1.0  0.34616  0.85595  0.06253  1.0000
  H   H533      1.0  0.24369  0.53228  0.09577  1.0000
  H   H534      1.0  0.28102  0.65600  0.89405  1.0000
  H   H535      1.0  0.27254  0.85845  0.88374  1.0000
  N   N34       1.0  0.19620  0.61935  0.88840  1.0000
  N   N35       1.0  0.76132  0.52784  0.06455  1.0000
  H   H536      1.0  0.18540  0.75554  0.13255  1.0000
  C   C328      1.0  0.25594  0.60934  0.29539  1.0000
  H   H537      1.0  0.81359  0.80739  0.21652  1.0000
  S   S129      1.0  0.50127  0.81878  0.26072  1.0000
  H   H538      1.0  0.56427  0.85338  0.30666  1.0000
  N   N36       1.0  0.29225  0.63180  0.23770  1.0000
  C   C329      1.0  0.77965  0.69723  0.17708  1.0000
  H   H539      1.0  0.23786  0.62596  0.30906  1.0000
  H   H540      1.0  0.04414  0.61793  0.37986  1.0000
  C   C330      1.0  0.65350  0.72177  0.16952  1.0000
  C   C331      1.0  0.82184  0.71915  0.28909  1.0000
  Fe  Fe64      1.0  0.82799  0.62392  0.19813  1.0000
  H   H541      1.0  0.61873  0.63443  0.14517  1.0000
  H   H542      1.0  0.67282  0.72078  0.33465  1.0000
  H   H543      1.0  0.37147  0.59653  0.24103  1.0000
  C   C332      1.0  0.47615  0.71991  0.37775  1.0000
  N   N37       1.0  0.79538  0.75159  0.27985  1.0000
  C   C333      1.0  0.65921  0.66817  0.25282  1.0000
  H   H544      1.0  0.38688  0.53774  0.25490  1.0000
  H   H545      1.0  0.81367  0.55749  0.31099  1.0000
  C   C334      1.0  0.52479  0.59198  0.27342  1.0000
  C   C335      1.0  0.10510  0.70810  0.25924  1.0000
  C   C336      1.0  0.10559  0.74430  0.23707  1.0000
  H   H546      1.0  0.63129  0.80437  0.20762  1.0000
  H   H547      1.0  0.26587  0.58695  0.23309  1.0000
  S   S130      1.0  0.35423  0.75316  0.15753  1.0000
  Fe  Fe65      1.0  0.30586  0.73469  0.24105  1.0000
  H   H548      1.0  0.57937  0.77922  0.35483  1.0000
  H   H549      1.0  0.89250  0.72246  0.28401  1.0000
  H   H550      1.0  0.19773  0.58837  0.30786  1.0000
  H   H551      1.0  0.25077  0.66429  0.16693  1.0000
  C   C337      1.0  0.72309  0.85500  0.15171  1.0000
  H   H552      1.0  0.41969  0.64882  0.24059  1.0000
  H   H553      1.0  0.30326  0.59522  0.31700  1.0000
  H   H554      1.0  0.84326  0.69849  0.15907  1.0000
  H   H555      1.0  0.34889  0.67662  0.23716  1.0000
  S   S131      1.0  0.18655  0.68983  0.28962  1.0000
  H   H556      1.0  0.39542  0.58024  0.16015  1.0000
  H   H557      1.0  0.76082  0.84446  0.13451  1.0000
  H   H558      1.0  0.05831  0.79011  0.18342  1.0000
  S   S132      1.0  0.31050  0.79079  0.21845  1.0000
  H   H559      1.0  0.49929  0.54074  0.19093  1.0000
  H   H560      1.0  0.94944  0.68990  0.20991  1.0000
  S   S133      1.0  0.43668  0.73301  0.25798  1.0000
  C   C338      1.0  0.64990  0.83230  0.19317  1.0000
  H   H561      1.0  0.80962  0.73790  0.35525  1.0000
  S   S134      1.0  0.96605  0.63373  0.16122  1.0000
  Fe  Fe66      1.0  0.44318  0.79014  0.23013  1.0000
  H   H562      1.0  0.55065  0.69262  0.24033  1.0000
  C   C339      1.0  0.35308  0.55855  0.16200  1.0000
  C   C340      1.0  0.05447  0.76167  0.20224  1.0000
  H   H563      1.0  0.90072  0.78767  0.21212  1.0000
  Fe  Fe67      1.0  0.48493  0.75656  0.17228  1.0000
  S   S135      1.0  0.73798  0.84443  0.30319  1.0000
  H   H564      1.0  0.16751  0.62797  0.22222  1.0000
  C   C341      1.0  0.82981  0.76080  0.31293  1.0000
  C   C342      1.0  0.99315  0.70518  0.21741  1.0000
  C   C343      1.0  0.59939  0.84598  0.21466  1.0000
  H   H565      1.0  0.39346  0.67891  0.17935  1.0000
  S   S136      1.0  0.94215  0.76411  0.14393  1.0000
  H   H566      1.0  0.67333  0.73835  0.26769  1.0000
  C   C344      1.0  0.73978  0.66865  0.22922  1.0000
  H   H567      1.0  0.79109  0.69483  0.32986  1.0000
  C   C345      1.0  0.66044  0.84128  0.35104  1.0000
  H   H568      1.0  0.52361  0.70374  0.37977  1.0000
  C   C346      1.0  0.54918  0.56803  0.26234  1.0000
  Fe  Fe68      1.0  0.36763  0.80882  0.13637  1.0000
  H   H569      1.0  0.20639  0.66727  0.21965  1.0000
  S   S137      1.0  0.97805  0.83944  0.28064  1.0000
  S   S138      1.0  0.99275  0.54047  0.19096  1.0000
  C   C347      1.0  0.73679  0.72383  0.14743  1.0000
  S   S139      1.0  0.78571  0.63150  0.26128  1.0000
  H   H570      1.0  0.04459  0.65995  0.26860  1.0000
  H   H571      1.0  0.67844  0.76797  0.28826  1.0000
  C   C348      1.0  0.57888  0.84650  0.34306  1.0000
  H   H572      1.0  0.80409  0.71341  0.26117  1.0000
  H   H573      1.0  0.14508  0.75894  0.24698  1.0000
  H   H574      1.0  0.70306  0.54139  0.31743  1.0000
  H   H575      1.0  0.48843  0.74375  0.33615  1.0000
  H   H576      1.0  0.90136  0.76776  0.30195  1.0000
  C   C349      1.0  0.49113  0.57957  0.32571  1.0000
  S   S140      1.0  0.78586  0.57230  0.20700  1.0000
  Fe  Fe69      1.0  0.92179  0.58425  0.16464  1.0000
  C   C350      1.0  0.04645  0.68811  0.25100  1.0000
  H   H577      1.0  0.62843  0.64601  0.29304  1.0000
  C   C351      1.0  0.32028  0.60898  0.22194  1.0000
  H   H578      1.0  0.34702  0.62512  0.17858  1.0000
  Fe  Fe70      1.0  0.86227  0.84098  0.32657  1.0000
  C   C352      1.0  0.82957  0.78228  0.22394  1.0000
  C   C353      1.0  0.36671  0.66034  0.22287  1.0000
  C   C354      1.0  0.61534  0.69459  0.22284  1.0000
  C   C355      1.0  0.70060  0.74443  0.29318  1.0000
  C   C356      1.0  0.08663  0.55840  0.14114  1.0000
  C   C357      1.0  0.22613  0.64860  0.21043  1.0000
  H   H579      1.0  0.28562  0.56102  0.16897  1.0000
  H   H580      1.0  0.57427  0.57728  0.22220  1.0000
  S   S141      1.0  0.50041  0.81323  0.14632  1.0000
  C   C358      1.0  0.99978  0.74226  0.19140  1.0000
  H   H581      1.0  0.80327  0.77698  0.19747  1.0000
  S   S142      1.0  0.45605  0.60838  0.34083  1.0000
  H   H582      1.0  0.53334  0.62008  0.24157  1.0000
  H   H583      1.0  0.80810  0.78423  0.30869  1.0000
  Fe  Fe71      1.0  0.99357  0.79576  0.35953  1.0000
  C   C359      1.0  0.48420  0.54353  0.36643  1.0000
  S   S143      1.0  0.07643  0.83389  0.36791  1.0000
  H   H584      1.0  0.92911  0.65028  0.36975  1.0000
  S   S144      1.0  0.02383  0.74728  0.36607  1.0000
  H   H585      1.0  0.10532  0.70387  0.14139  1.0000
  C   C360      1.0  0.75381  0.53688  0.33938  1.0000
  H   H586      1.0  0.73335  0.54272  0.36852  1.0000
  C   C361      1.0  0.53980  0.53180  0.30330  1.0000
  H   H587      1.0  0.42427  0.77601  0.37117  1.0000
  H   H588      1.0  0.45399  0.84815  0.37519  1.0000
  C   C362      1.0  0.51635  0.84327  0.38197  1.0000
  C   C363      1.0  0.13451  0.53555  0.13914  1.0000
  C   C364      1.0  0.75731  0.80166  0.60060  1.0000
  C   C365      1.0  0.87385  0.65905  0.52039  1.0000
  Fe  Fe72      1.0  0.95334  0.83771  0.40588  1.0000
  C   C366      1.0  0.92570  0.64349  0.40988  1.0000
  S   S145      1.0  0.30497  0.77074  0.60833  1.0000
  C   C367      1.0  0.74275  0.66217  0.49079  1.0000
  S   S146      1.0  0.47568  0.62048  0.45698  1.0000
  C   C368      1.0  0.17888  0.69419  0.48788  1.0000
  H   H589      1.0  0.21860  0.67000  0.44873  1.0000
  C   C369      1.0  0.83102  0.67511  0.48002  1.0000
  S   S147      1.0  0.64539  0.61063  0.40049  1.0000
  C   C370      1.0  0.67921  0.83264  0.39809  1.0000
  H   H590      1.0  0.71071  0.75897  0.49209  1.0000
  C   C371      1.0  0.03925  0.61194  0.41962  1.0000
  S   S148      1.0  0.24910  0.67843  0.52926  1.0000
  H   H591      1.0  0.12325  0.72006  0.52061  1.0000
  S   S149      1.0  0.87275  0.79477  0.40533  1.0000
  H   H592      1.0  0.64975  0.69525  0.54009  1.0000
  C   C372      1.0  0.80044  0.71307  0.55728  1.0000
  H   H593      1.0  0.21362  0.83395  0.49297  1.0000
  H   H594      1.0  0.94260  0.66840  0.51186  1.0000
  N   N38       1.0  0.95099  0.60920  0.44407  1.0000
  H   H595      1.0  0.13183  0.69828  0.38314  1.0000
  Fe  Fe73      1.0  0.18575  0.75524  0.59052  1.0000
  H   H596      1.0  0.96859  0.66647  0.40502  1.0000
  H   H597      1.0  0.65486  0.85592  0.50941  1.0000
  C   C373      1.0  0.85012  0.83438  0.51234  1.0000
  C   C374      1.0  0.78463  0.85099  0.49134  1.0000
  N   N39       1.0  0.71641  0.71926  0.57157  1.0000
  H   H598      1.0  0.65106  0.76255  0.54094  1.0000
  Fe  Fe74      1.0  0.26901  0.71193  0.55919  1.0000
  H   H599      1.0  0.99195  0.62394  0.49292  1.0000
  H   H600      1.0  0.89025  0.58402  0.41218  1.0000
  H   H601      1.0  0.62769  0.62508  0.55107  1.0000
  S   S150      1.0  0.25566  0.76890  0.51313  1.0000
  Fe  Fe75      1.0  0.61604  0.62793  0.45344  1.0000
  H   H602      1.0  0.86684  0.69653  0.44021  1.0000
  H   H603      1.0  0.41498  0.75852  0.43901  1.0000
  H   H604      1.0  0.61986  0.74080  0.39753  1.0000
  C   C375      1.0  0.07871  0.73214  0.45272  1.0000
  C   C376      1.0  0.89078  0.57942  0.45068  1.0000
  H   H605      1.0  0.22122  0.83655  0.43324  1.0000
  N   N40       1.0  0.48186  0.73100  0.41327  1.0000
  H   H606      1.0  0.12186  0.83661  0.46653  1.0000
  H   H607      1.0  0.45637  0.53332  0.40657  1.0000
  C   C377      1.0  0.82796  0.63050  0.57155  1.0000
  S   S151      1.0  0.36454  0.53847  0.60302  1.0000
  C   C378      1.0  0.69640  0.63464  0.54235  1.0000
  H   H608      1.0  0.90790  0.55307  0.47632  1.0000
  C   C379      1.0  0.94824  0.60182  0.49629  1.0000
  H   H609      1.0  0.85869  0.64208  0.42661  1.0000
  Fe  Fe76      1.0  0.37484  0.78118  0.53347  1.0000
  S   S152      1.0  0.60633  0.57327  0.52716  1.0000
  H   H610      1.0  0.74232  0.82938  0.40420  1.0000
  H   H611      1.0  0.12449  0.57380  0.59680  1.0000
  C   C380      1.0  0.08092  0.72591  0.41406  1.0000
  C   C381      1.0  0.41475  0.75078  0.41133  1.0000
  H   H612      1.0  0.85484  0.73251  0.55296  1.0000
  H   H613      1.0  0.76623  0.77653  0.52114  1.0000
  H   H614      1.0  0.34955  0.73426  0.42188  1.0000
  C   C382      1.0  0.73899  0.61876  0.58278  1.0000
  H   H615      1.0  0.88220  0.59888  0.51636  1.0000
  C   C383      1.0  0.69181  0.81831  0.57990  1.0000
  H   H616      1.0  0.88773  0.79782  0.58289  1.0000
  Fe  Fe77      1.0  0.46683  0.56484  0.52842  1.0000
  H   H617      1.0  0.70328  0.59652  0.62225  1.0000
  C   C384      1.0  0.26515  0.54954  0.53451  1.0000
  C   C385      1.0  0.19284  0.84660  0.45549  1.0000
  H   H618      1.0  0.24055  0.61117  0.62311  1.0000
  Fe  Fe78      1.0  0.50305  0.59761  0.41085  1.0000
  H   H619      1.0  0.58189  0.69598  0.58986  1.0000
  C   C386      1.0  0.71073  0.75594  0.52961  1.0000
  H   H620      1.0  0.64934  0.66459  0.60777  1.0000
  H   H621      1.0  0.96797  0.57632  0.52280  1.0000
  S   S153      1.0  0.07743  0.77920  0.59958  1.0000
  C   C387      1.0  0.61619  0.82856  0.43738  1.0000
  H   H622      1.0  0.82363  0.57642  0.46947  1.0000
  H   H623      1.0  0.32329  0.56489  0.50338  1.0000
  S   S154      1.0  0.59315  0.80739  0.62291  1.0000
  C   C388      1.0  0.70602  0.84345  0.52532  1.0000
  H   H624      1.0  0.02272  0.58199  0.61209  1.0000
  S   S155      1.0  0.48175  0.54127  0.48294  1.0000
  H   H625      1.0  0.08634  0.63402  0.41441  1.0000
  H   H626      1.0  0.03947  0.74930  0.45405  1.0000
  C   C389      1.0  0.64615  0.69267  0.57757  1.0000
  C   C390      1.0  0.09246  0.58901  0.60888  1.0000
  C   C391      1.0  0.56737  0.75476  0.39614  1.0000
  H   H627      1.0  0.41117  0.70309  0.38830  1.0000
  H   H628      1.0  0.46680  0.70548  0.49632  1.0000
  S   S156      1.0  0.88208  0.60935  0.62113  1.0000
  C   C392      1.0  0.53544  0.83441  0.42903  1.0000
  H   H629      1.0  0.19155  0.81299  0.63154  1.0000
  H   H630      1.0  0.18703  0.55449  0.48185  1.0000
  H   H631      1.0  0.57313  0.76413  0.42155  1.0000
  S   S157      1.0  0.69195  0.67761  0.43924  1.0000
  C   C393      1.0  0.12954  0.70275  0.41347  1.0000
  C   C394      1.0  0.46920  0.69857  0.46765  1.0000
  S   S158      1.0  0.95040  0.84384  0.47199  1.0000
  H   H632      1.0  0.52173  0.68427  0.47112  1.0000
  C   C395      1.0  0.83678  0.81036  0.56691  1.0000
  C   C396      1.0  0.17863  0.68686  0.45043  1.0000
  C   C397      1.0  0.12680  0.71585  0.49009  1.0000
  S   S159      1.0  0.46329  0.83528  0.47453  1.0000
  H   H633      1.0  0.40799  0.67892  0.48025  1.0000
  H   H634      1.0  0.63047  0.82179  0.47373  1.0000
  H   H635      1.0  0.11667  0.61795  0.57579  1.0000
  H   H636      1.0  0.80958  0.71617  0.51927  1.0000
  S   S160      1.0  0.39588  0.72514  0.57308  1.0000
  Fe  Fe79      1.0  0.53756  0.85532  0.59919  1.0000
  H   H637      1.0  0.06012  0.58640  0.44432  1.0000
  C   C398      1.0  0.18777  0.54399  0.52214  1.0000
  H   H638      1.0  0.80655  0.68546  0.58799  1.0000
  C   C399      1.0  0.26728  0.53408  0.58702  1.0000
  Fe  Fe80      1.0  0.62274  0.55529  0.47440  1.0000
  H   H639      1.0  0.76223  0.73432  0.61897  1.0000
  C   C400      1.0  0.70825  0.71558  0.62166  1.0000
  H   H640      1.0  0.00855  0.70897  0.62427  1.0000
