data_image0
_chemical_formula_structural       S2HSHFeCH3FeH2NC2SCFeH4C2HCHFeSFeHC2HC2H2CSHCS2C5HCH2FeSHSH6FeHC4H4CH5C2HSCSHCFeNCH6CH4NHCSNHSHCH3SHCH4CH5CSHSH2C2HCH2FeC2HC2SH3SNFe2H3C4H4S2C2H2CH2CHSC2SFeHC2FeHNHSH2SHCH2C2H3CH2SHC2HSHCHFeHCNHCSHCHCHS2C2FeHCHCHCNCSH6CH2SH3NCH5CH2CNHSCH4CH4CSH2C2HSCH4CH2SHNHCNH3C2HC4H2C2H2SHC2H2CHC2H6CH3SHFeC2SH4SHCSHC2FeSCFeHSFeHFeCS2HSHFeHSHCFeC2SCSC3H3SFeH3CHSC2SH3CH2SHC2HCH5C2H2CH3CHCNHCHSHSC2HC4HCH2FeH3CHSH2CH4CNCH4SH3SNSFeCHC3SCSHSCHC2Fe2C8SHNFe2HC2H2CSHFeH2CH2CH2CHFeC2HSH4CH3CSCHCHFeSCH3CH2SHC4HSCNCHSHCHCHCSHSHCH4CHC3HSC2HFeHFeH2CH4CNCH2CHCHSCHNCH2S2HFeCH3CFeCSHSCH2CSHCSH3NC2H2FeHC3SCFeSH3CHFeHC4SFe2SH2FeHSH3SC3HSH2FeHCHCHCNCH2CHCSHSCH2C2H6CH3CH2C3HC2SH2CHCNHSH2FeHCSC2H3C2H5NHCHCH2CFeH6SCHS2H2SHCNCHCHCHFeH3FeH2NHSH2CSHSHCHSHCSHCHSCHSHCHC3H2FeH3FeCSHCFeSFeH2FeC4H5SHCHSH5SHN2H2CH2CH2SH2SHCHCHC2HCHC2FeNCH3CH6CHC4H2CH2SHSH2C2HCSC2H2CHCSNHCSCFe2SHC2HSHCFeCSHCFeH2FeCSH3CFe2H2CH2SCHC2FeHCHCH2CH2CHCHCH5NH2SH2CHCH3CH3C3H5SCH2FeNH2SHNSH3C2HCFeHSHCH2CHC2HCH4C4HSHCNCSHCHSH3CS2C2S2CHC2SH3C4H7CFeCH2CFeH2FeSH2SC2FeCSCSCH2C2HFeHCSCHCHS2CH2C2H2SHCSH6SNHC2SCHCH2CH2SH3CHCH2FeHCH4C2NCHNH5CHCHCH4CHSH2C2FeSHS2CHCHSHFeCSHCFeH2CSCSHC3SNHC2FeH2FeH3CH2CHCH2SH4CH4FeC2HC2H3CHCNFeH2S2HCH3C2H2CHNH2CH3CH3SH3SH3SHFeCHC4FeCS2CH2C3H2CHCFeCH2C2HCS3HCSH2C2HCNFeH2SNSC2HCH3FeH3FeH3CHCH4SH2SH3C2H4C2Fe2CHCHSC3SC2HFeNSCHCH6CHCH7CHCHCNSHSH2FeHC2HC3H2NCSC2HC2H2C2SH6Fe2S2CHSCSHCHCHCH3Fe2HNH2SHCSHC3H4CH3NCSHC3H2C3HC2H5CHCNCSHS2HCFeHCFeH6SNCSHCH2SHCH3C3H2CFeH2CFeSHFe2HCH2CH2S
_chemical_formula_sum              "S192 H768 Fe96 C480 N48"
_cell_length_a       34.3581
_cell_length_b       38.9477
_cell_length_c       21.174
_cell_angle_alpha    70.6048
_cell_angle_beta     86.6049
_cell_angle_gamma    116.091

_space_group_name_H-M_alt    "P 1"
_space_group_IT_number       1

loop_
  _space_group_symop_operation_xyz
  'x, y, z'

loop_
  _atom_site_type_symbol
  _atom_site_label
  _atom_site_symmetry_multiplicity
  _atom_site_fract_x
  _atom_site_fract_y
  _atom_site_fract_z
  _atom_site_occupancy
  S   S1        1.0  0.10327  0.18897  0.22567  1.0000
  S   S2        1.0  0.05320  0.91567  0.27809  1.0000
  H   H1        1.0  0.07830  0.94845  0.11404  1.0000
  S   S3        1.0  0.02564  0.99255  0.13493  1.0000
  H   H2        1.0  0.31921  0.95762  0.20500  1.0000
  Fe  Fe1       1.0  0.05666  0.97753  0.22331  1.0000
  C   C1        1.0  0.08839  0.93186  0.08835  1.0000
  H   H3        1.0  0.27317  0.85913  0.30299  1.0000
  H   H4        1.0  0.31421  0.29422  0.20570  1.0000
  H   H5        1.0  0.20935  0.07813  0.23833  1.0000
  Fe  Fe2       1.0  0.10884  0.24906  0.22370  1.0000
  H   H6        1.0  0.33490  0.01105  0.15382  1.0000
  H   H7        1.0  0.33363  0.83742  0.28154  1.0000
  N   N1        1.0  0.31689  0.97094  0.09882  1.0000
  C   C2        1.0  0.33660  0.98333  0.15305  1.0000
  C   C3        1.0  0.28885  0.97568  0.30695  1.0000
  S   S4        1.0  0.13082  0.01492  0.20607  1.0000
  C   C4        1.0  0.27143  0.12940  0.23409  1.0000
  Fe  Fe3       1.0  0.12619  0.95349  0.26878  1.0000
  H   H8        1.0  0.29147  0.12511  0.19961  1.0000
  H   H9        1.0  0.05997  0.04999  0.20188  1.0000
  H   H10       1.0  0.35233  0.10522  0.12772  1.0000
  H   H11       1.0  0.24918  0.93787  0.15935  1.0000
  C   C5        1.0  0.27873  0.03317  0.23864  1.0000
  C   C6        1.0  0.06030  0.10577  0.13791  1.0000
  H   H12       1.0  0.26886  0.99179  0.10612  1.0000
  C   C7        1.0  0.31715  0.93240  0.10290  1.0000
  H   H13       1.0  0.29048  0.06605  0.21445  1.0000
  Fe  Fe4       1.0  0.06197  0.19439  0.14800  1.0000
  S   S5        1.0  0.35058  0.18764  0.24221  1.0000
  Fe  Fe5       1.0  0.03963  0.15878  0.30577  1.0000
  H   H14       1.0  0.21744  0.01692  0.20578  1.0000
  C   C8        1.0  0.19913  0.10883  0.30044  1.0000
  C   C9        1.0  0.30501  0.01852  0.27375  1.0000
  H   H15       1.0  0.07193  0.12108  0.17249  1.0000
  C   C10       1.0  0.29213  0.16039  0.25900  1.0000
  C   C11       1.0  0.22236  0.96247  0.26343  1.0000
  H   H16       1.0  0.29774  0.90633  0.15408  1.0000
  H   H17       1.0  0.35176  0.93718  0.09479  1.0000
  C   C12       1.0  0.23723  0.00522  0.23405  1.0000
  S   S6        1.0  0.17162  0.29770  0.23396  1.0000
  H   H18       1.0  0.09275  0.30229  0.27475  1.0000
  C   C13       1.0  0.22499  0.10312  0.25559  1.0000
  S   S7        1.0  0.17142  0.92811  0.25458  1.0000
  S   S8        1.0  0.07259  0.25721  0.13964  1.0000
  C   C14       1.0  0.27044  0.96344  0.10853  1.0000
  C   C15       1.0  0.24801  0.94752  0.30028  1.0000
  C   C16       1.0  0.03800  0.04483  0.11062  1.0000
  C   C17       1.0  0.05234  0.12638  0.07667  1.0000
  C   C18       1.0  0.05350  0.06527  0.15454  1.0000
  H   H19       1.0  0.06596  0.89777  0.11767  1.0000
  C   C19       1.0  0.26604  0.16730  0.30124  1.0000
  H   H20       1.0  0.12296  0.93886  0.09315  1.0000
  H   H21       1.0  0.16855  0.21003  0.08353  1.0000
  Fe  Fe6       1.0  0.11493  0.01795  0.30774  1.0000
  S   S9        1.0  0.04789  0.21790  0.30933  1.0000
  H   H22       1.0  0.25485  0.95457  0.06777  1.0000
  S   S10       1.0  0.14187  0.07408  0.33402  1.0000
  H   H23       1.0  0.20817  0.25703  0.37239  1.0000
  H   H24       1.0  0.09112  0.13934  0.48501  1.0000
  H   H25       1.0  0.18735  0.17775  0.50233  1.0000
  H   H26       1.0  0.09481  0.20365  0.48467  1.0000
  H   H27       1.0  0.04285  0.03561  0.42765  1.0000
  H   H28       1.0  0.13848  0.87013  0.49485  1.0000
  Fe  Fe7       1.0  0.34484  0.25705  0.40019  1.0000
  H   H29       1.0  0.14062  0.17603  0.54911  1.0000
  C   C20       1.0  0.26453  0.01721  0.43665  1.0000
  C   C21       1.0  0.11995  0.15868  0.43898  1.0000
  C   C22       1.0  0.26972  0.84350  0.35751  1.0000
  C   C23       1.0  0.32306  0.08900  0.38346  1.0000
  H   H30       1.0  0.26491  0.10273  0.44595  1.0000
  H   H31       1.0  0.33957  0.81614  0.40103  1.0000
  H   H32       1.0  0.25051  0.01882  0.39031  1.0000
  H   H33       1.0  0.31320  0.09158  0.33363  1.0000
  C   C24       1.0  0.04851  0.01286  0.46883  1.0000
  H   H34       1.0  0.33770  0.12054  0.38438  1.0000
  H   H35       1.0  0.35005  0.08052  0.38286  1.0000
  H   H36       1.0  0.20888  0.21051  0.37661  1.0000
  H   H37       1.0  0.19952  0.14627  0.35594  1.0000
  H   H38       1.0  0.15555  0.84588  0.34285  1.0000
  C   C25       1.0  0.28545  0.86674  0.39731  1.0000
  C   C26       1.0  0.15336  0.86459  0.45363  1.0000
  H   H39       1.0  0.07479  0.03120  0.49041  1.0000
  S   S11       1.0  0.28775  0.26672  0.42670  1.0000
  C   C27       1.0  0.25081  0.07156  0.44373  1.0000
  S   S12       1.0  0.30635  0.87594  0.51518  1.0000
  H   H40       1.0  0.11224  0.22889  0.39211  1.0000
  C   C28       1.0  0.12436  0.22218  0.43984  1.0000
  Fe  Fe8       1.0  0.04470  0.92572  0.37507  1.0000
  N   N2        1.0  0.14977  0.19994  0.43911  1.0000
  C   C29       1.0  0.18693  0.22465  0.37651  1.0000
  H   H41       1.0  0.22186  0.04943  0.48886  1.0000
  H   H42       1.0  0.31500  0.08351  0.51409  1.0000
  H   H43       1.0  0.09321  0.85736  0.37562  1.0000
  H   H44       1.0  0.06282  0.99865  0.44377  1.0000
  H   H45       1.0  0.12512  0.99607  0.53880  1.0000
  H   H46       1.0  0.32515  0.04289  0.50891  1.0000
  C   C30       1.0  0.28172  0.84677  0.46745  1.0000
  H   H47       1.0  0.06549  0.83686  0.46481  1.0000
  H   H48       1.0  0.23724  0.99231  0.48278  1.0000
  H   H49       1.0  0.04876  0.23486  0.54286  1.0000
  H   H50       1.0  0.13785  0.14078  0.43916  1.0000
  N   N3        1.0  0.28457  0.05781  0.44293  1.0000
  H   H51       1.0  0.23766  0.07375  0.39665  1.0000
  C   C31       1.0  0.16787  0.19435  0.50110  1.0000
  S   S13       1.0  0.32801  0.19113  0.42368  1.0000
  N   N4        1.0  0.12093  0.82625  0.44696  1.0000
  H   H52       1.0  0.19058  0.22490  0.50271  1.0000
  S   S14       1.0  0.04078  0.98373  0.32169  1.0000
  H   H53       1.0  0.27161  0.03002  0.55361  1.0000
  C   C32       1.0  0.08250  0.83090  0.42651  1.0000
  H   H54       1.0  0.18368  0.86289  0.46631  1.0000
  H   H55       1.0  0.17433  0.22702  0.32888  1.0000
  H   H56       1.0  0.30083  0.90010  0.37363  1.0000
  S   S15       1.0  0.11747  0.96014  0.36889  1.0000
  H   H57       1.0  0.28966  0.00705  0.43148  1.0000
  C   C33       1.0  0.29977  0.05347  0.50765  1.0000
  H   H58       1.0  0.16452  0.89251  0.40482  1.0000
  H   H59       1.0  0.10601  0.16178  0.39251  1.0000
  H   H60       1.0  0.14531  0.25264  0.44312  1.0000
  H   H61       1.0  0.23637  0.91437  0.32381  1.0000
  C   C34       1.0  0.14273  0.81916  0.39388  1.0000
  H   H62       1.0  0.16704  0.95727  0.56387  1.0000
  H   H63       1.0  0.30840  0.96446  0.33627  1.0000
  H   H64       1.0  0.17150  0.81492  0.40802  1.0000
  H   H65       1.0  0.02922  0.93528  0.54760  1.0000
  H   H66       1.0  0.28155  0.19238  0.31818  1.0000
  C   C35       1.0  0.21957  0.14157  0.32188  1.0000
  S   S16       1.0  0.07684  0.18332  0.63445  1.0000
  H   H67       1.0  0.15964  0.16637  0.78909  1.0000
  S   S17       1.0  0.30273  0.27793  0.78467  1.0000
  H   H68       1.0  0.29498  0.12079  0.61175  1.0000
  H   H69       1.0  0.33361  0.82297  0.61133  1.0000
  C   C36       1.0  0.22342  0.21607  0.78385  1.0000
  C   C37       1.0  0.05942  0.29479  0.72181  1.0000
  H   H70       1.0  0.26673  0.15902  0.73640  1.0000
  C   C38       1.0  0.02836  0.22219  0.59441  1.0000
  H   H71       1.0  0.23566  0.08735  0.64538  1.0000
  H   H72       1.0  0.14845  0.02415  0.71731  1.0000
  Fe  Fe9       1.0  0.32917  0.96619  0.80874  1.0000
  C   C39       1.0  0.31490  0.12171  0.73182  1.0000
  C   C40       1.0  0.16352  0.97226  0.59694  1.0000
  H   H73       1.0  0.34292  0.87433  0.73485  1.0000
  C   C41       1.0  0.18343  0.97042  0.65277  1.0000
  C   C42       1.0  0.27486  0.82985  0.69057  1.0000
  S   S18       1.0  0.29251  0.00163  0.77174  1.0000
  H   H74       1.0  0.21722  0.24065  0.75283  1.0000
  H   H75       1.0  0.05635  0.26345  0.74804  1.0000
  H   H76       1.0  0.28817  0.17224  0.64747  1.0000
  S   S19       1.0  0.02488  0.06280  0.69614  1.0000
  N   N5        1.0  0.27059  0.10995  0.71618  1.0000
  Fe  Fe10      1.0  0.24329  0.94458  0.75901  1.0000
  Fe  Fe11      1.0  0.06751  0.12224  0.70826  1.0000
  H   H77       1.0  0.22942  0.13832  0.68686  1.0000
  H   H78       1.0  0.20153  0.06715  0.76966  1.0000
  H   H79       1.0  0.03229  0.29108  0.69394  1.0000
  C   C43       1.0  0.23562  0.07578  0.77821  1.0000
  C   C44       1.0  0.26362  0.22603  0.80435  1.0000
  C   C45       1.0  0.13426  0.01278  0.62630  1.0000
  C   C46       1.0  0.19087  0.17415  0.80448  1.0000
  H   H80       1.0  0.27337  0.06813  0.67275  1.0000
  H   H81       1.0  0.19291  0.98716  0.74021  1.0000
  H   H82       1.0  0.32252  0.09557  0.74389  1.0000
  H   H83       1.0  0.28786  0.86403  0.66320  1.0000
  S   S20       1.0  0.28281  0.91126  0.78756  1.0000
  S   S21       1.0  0.21707  0.94688  0.66412  1.0000
  C   C47       1.0  0.17785  0.98890  0.69663  1.0000
  C   C48       1.0  0.15282  0.00982  0.68369  1.0000
  H   H84       1.0  0.25927  0.81506  0.65531  1.0000
  H   H85       1.0  0.31678  0.13055  0.77692  1.0000
  C   C49       1.0  0.26340  0.14649  0.69574  1.0000
  H   H86       1.0  0.34196  0.14876  0.68746  1.0000
  H   H87       1.0  0.23923  0.04730  0.79376  1.0000
  C   C50       1.0  0.26850  0.09592  0.65897  1.0000
  H   H88       1.0  0.24797  0.81821  0.73663  1.0000
  S   S22       1.0  0.12984  0.11757  0.69552  1.0000
  C   C51       1.0  0.13946  0.99385  0.58319  1.0000
  C   C52       1.0  0.32954  0.83999  0.75843  1.0000
  S   S23       1.0  0.10531  0.04074  0.60618  1.0000
  Fe  Fe12      1.0  0.08645  0.05649  0.69089  1.0000
  H   H89       1.0  0.10888  0.27919  0.64414  1.0000
  C   C53       1.0  0.34650  0.83740  0.64833  1.0000
  C   C54       1.0  0.03556  0.19603  0.65019  1.0000
  Fe  Fe13      1.0  0.10907  0.08276  0.80984  1.0000
  H   H90       1.0  0.13830  0.29888  0.73877  1.0000
  N   N6        1.0  0.31080  0.82057  0.71035  1.0000
  H   H91       1.0  0.30367  0.82722  0.80662  1.0000
  S   S24       1.0  0.07152  0.02078  0.80443  1.0000
  H   H92       1.0  0.04069  0.96463  0.60027  1.0000
  H   H93       1.0  0.13531  0.92999  0.98404  1.0000
  S   S25       1.0  0.29230  0.93752  0.91954  1.0000
  H   H94       1.0  0.30326  0.20149  0.85709  1.0000
  C   C55       1.0  0.34356  0.00470  0.03058  1.0000
  H   H95       1.0  0.32945  0.99660  0.98845  1.0000
  H   H96       1.0  0.30233  0.92201  0.06291  1.0000
  C   C56       1.0  0.32326  0.06217  0.88781  1.0000
  C   C57       1.0  0.27795  0.07500  0.95888  1.0000
  H   H97       1.0  0.11644  0.00143  0.92323  1.0000
  H   H98       1.0  0.03734  0.94557  0.95659  1.0000
  H   H99       1.0  0.23241  0.20428  0.03367  1.0000
  C   C58       1.0  0.27166  0.19424  0.84384  1.0000
  H   H100      1.0  0.24455  0.12818  0.89858  1.0000
  H   H101      1.0  0.23176  0.29847  0.91266  1.0000
  S   S26       1.0  0.19981  0.91508  0.86587  1.0000
  H   H102      1.0  0.03417  0.12335  0.98225  1.0000
  C   C59       1.0  0.17809  0.23713  0.03414  1.0000
  C   C60       1.0  0.08754  0.29981  0.93105  1.0000
  H   H103      1.0  0.09895  0.93233  0.92720  1.0000
  S   S27       1.0  0.23535  0.00225  0.93912  1.0000
  H   H104      1.0  0.17698  0.27043  0.90161  1.0000
  C   C61       1.0  0.20766  0.26842  0.91074  1.0000
  H   H105      1.0  0.16004  0.81973  0.87036  1.0000
  Fe  Fe14      1.0  0.25255  0.96944  0.88159  1.0000
  H   H106      1.0  0.32681  0.04282  0.86389  1.0000
  C   C62       1.0  0.03991  0.93535  0.01116  1.0000
  N   N7        1.0  0.08618  0.94510  0.01527  1.0000
  H   H107      1.0  0.23724  0.08472  0.82318  1.0000
  C   C63       1.0  0.03913  0.10696  0.03072  1.0000
  S   S28       1.0  0.21575  0.81863  0.96940  1.0000
  H   H108      1.0  0.22237  0.26613  0.86513  1.0000
  C   C64       1.0  0.23863  0.15264  0.86661  1.0000
  H   H109      1.0  0.15481  0.16588  0.01936  1.0000
  C   C65       1.0  0.16511  0.19352  0.97038  1.0000
  H   H110      1.0  0.13422  0.19445  0.95941  1.0000
  S   S29       1.0  0.05912  0.17645  0.05680  1.0000
  S   S30       1.0  0.34970  0.23538  0.94023  1.0000
  C   C66       1.0  0.31547  0.11282  0.94998  1.0000
  C   C67       1.0  0.28189  0.04964  0.92777  1.0000
  Fe  Fe15      1.0  0.24255  0.88527  0.89551  1.0000
  H   H111      1.0  0.10582  0.00841  0.00087  1.0000
  C   C68       1.0  0.03170  0.06611  0.04786  1.0000
  H   H112      1.0  0.02809  0.95141  0.03572  1.0000
  C   C69       1.0  0.23896  0.23112  0.98558  1.0000
  H   H113      1.0  0.14746  0.23958  0.02680  1.0000
  C   C70       1.0  0.10032  0.92298  0.98242  1.0000
  N   N8        1.0  0.19746  0.23253  0.97523  1.0000
  C   C71       1.0  0.19839  0.14256  0.84683  1.0000
  S   S31       1.0  0.15878  0.09024  0.87367  1.0000
  H   H114      1.0  0.07823  0.26941  0.97015  1.0000
  H   H115      1.0  0.26408  0.26017  0.98922  1.0000
  H   H116      1.0  0.24590  0.06542  0.98984  1.0000
  H   H117      1.0  0.31238  0.13212  0.97457  1.0000
  H   H118      1.0  0.25451  0.22796  0.94174  1.0000
  H   H119      1.0  0.17929  0.18811  0.92843  1.0000
  C   C72       1.0  0.11619  0.99049  0.97895  1.0000
  H   H120      1.0  0.20171  0.26603  0.03987  1.0000
  H   H121      1.0  0.15131  0.99942  0.98226  1.0000
  S   S32       1.0  0.04950  0.09159  0.82420  1.0000
  H   H122      1.0  0.07827  0.88855  0.00836  1.0000
  H   H123      1.0  0.34452  0.03442  0.02584  1.0000
  H   H124      1.0  0.22333  0.33941  0.31395  1.0000
  N   N9        1.0  0.33120  0.35860  0.17443  1.0000
  C   C73       1.0  0.11653  0.31429  0.30332  1.0000
  H   H125      1.0  0.07566  0.45363  0.24125  1.0000
  H   H126      1.0  0.08377  0.63003  0.18230  1.0000
  H   H127      1.0  0.04164  0.33870  0.14780  1.0000
  H   H128      1.0  0.14335  0.60714  0.21243  1.0000
  H   H129      1.0  0.29740  0.73867  0.09865  1.0000
  C   C74       1.0  0.04538  0.67388  0.10924  1.0000
  H   H130      1.0  0.33807  0.70115  0.15399  1.0000
  H   H131      1.0  0.35105  0.38807  0.24533  1.0000
  C   C75       1.0  0.03702  0.65796  0.23092  1.0000
  N   N10       1.0  0.14299  0.46674  0.24513  1.0000
  H   H132      1.0  0.08742  0.39083  0.09995  1.0000
  S   S33       1.0  0.05114  0.50275  0.08668  1.0000
  C   C76       1.0  0.11076  0.47829  0.21447  1.0000
  H   H133      1.0  0.24501  0.69362  0.14987  1.0000
  H   H134      1.0  0.11497  0.50772  0.21756  1.0000
  H   H135      1.0  0.07101  0.73889  0.14475  1.0000
  H   H136      1.0  0.32452  0.43087  0.28496  1.0000
  C   C77       1.0  0.15453  0.59571  0.25758  1.0000
  H   H137      1.0  0.12222  0.67161  0.20228  1.0000
  H   H138      1.0  0.10211  0.40114  0.27098  1.0000
  H   H139      1.0  0.16081  0.41855  0.26189  1.0000
  H   H140      1.0  0.14006  0.43022  0.18672  1.0000
  C   C78       1.0  0.19204  0.59050  0.25007  1.0000
  S   S34       1.0  0.23297  0.45561  0.12729  1.0000
  H   H141      1.0  0.33485  0.33373  0.27918  1.0000
  H   H142      1.0  0.11938  0.74338  0.09726  1.0000
  C   C79       1.0  0.06618  0.36033  0.09707  1.0000
  C   C80       1.0  0.33112  0.75301  0.20426  1.0000
  H   H143      1.0  0.26432  0.62603  0.09569  1.0000
  S   S35       1.0  0.06856  0.59336  0.08071  1.0000
  C   C81       1.0  0.15887  0.31797  0.28992  1.0000
  H   H144      1.0  0.28452  0.65653  0.20159  1.0000
  H   H145      1.0  0.28197  0.37455  0.20192  1.0000
  H   H146      1.0  0.19474  0.50563  0.15123  1.0000
  H   H147      1.0  0.24705  0.71349  0.27985  1.0000
  C   C82       1.0  0.28345  0.46700  0.15153  1.0000
  H   H148      1.0  0.33158  0.54210  0.19783  1.0000
  H   H149      1.0  0.11212  0.73188  0.18795  1.0000
  S   S36       1.0  0.25275  0.56763  0.29671  1.0000
  H   H150      1.0  0.31921  0.77487  0.20754  1.0000
  N   N11       1.0  0.06952  0.68057  0.16323  1.0000
  H   H151      1.0  0.20956  0.59806  0.19930  1.0000
  C   C83       1.0  0.09406  0.72567  0.14769  1.0000
  N   N12       1.0  0.29393  0.71367  0.20739  1.0000
  H   H152      1.0  0.34736  0.74710  0.24760  1.0000
  H   H153      1.0  0.21427  0.49203  0.22757  1.0000
  H   H154      1.0  0.19584  0.53005  0.20963  1.0000
  C   C84       1.0  0.28388  0.44449  0.21807  1.0000
  C   C85       1.0  0.13596  0.42736  0.24106  1.0000
  H   H155      1.0  0.31639  0.32005  0.11690  1.0000
  C   C86       1.0  0.33235  0.32443  0.15987  1.0000
  C   C87       1.0  0.10145  0.66455  0.16522  1.0000
  C   C88       1.0  0.32371  0.49623  0.10242  1.0000
  C   C89       1.0  0.20633  0.57483  0.30789  1.0000
  H   H156      1.0  0.35533  0.42436  0.12141  1.0000
  H   H157      1.0  0.23174  0.66351  0.27798  1.0000
  C   C90       1.0  0.28432  0.34871  0.19365  1.0000
  C   C91       1.0  0.27291  0.72274  0.14953  1.0000
  H   H158      1.0  0.26656  0.34321  0.15280  1.0000
  H   H159      1.0  0.33140  0.55546  0.30205  1.0000
  S   S37       1.0  0.17344  0.57673  0.08775  1.0000
  H   H160      1.0  0.12439  0.67826  0.11387  1.0000
  C   C92       1.0  0.31132  0.68585  0.20207  1.0000
  C   C93       1.0  0.35230  0.36317  0.23199  1.0000
  H   H161      1.0  0.25906  0.74342  0.15202  1.0000
  H   H162      1.0  0.25274  0.42174  0.25596  1.0000
  C   C94       1.0  0.18899  0.50004  0.20688  1.0000
  H   H163      1.0  0.11571  0.48369  0.15890  1.0000
  C   C95       1.0  0.32449  0.44953  0.23433  1.0000
  C   C96       1.0  0.26051  0.69314  0.27377  1.0000
  H   H164      1.0  0.08851  0.34739  0.08978  1.0000
  H   H165      1.0  0.05393  0.66067  0.27342  1.0000
  H   H166      1.0  0.35168  0.61049  0.25951  1.0000
  H   H167      1.0  0.26530  0.32012  0.24198  1.0000
  H   H168      1.0  0.34412  0.59519  0.15338  1.0000
  H   H169      1.0  0.32574  0.67686  0.24641  1.0000
  C   C97       1.0  0.35568  0.39799  0.11245  1.0000
  H   H170      1.0  0.02890  0.64056  0.11686  1.0000
  H   H171      1.0  0.34034  0.39577  0.06837  1.0000
  H   H172      1.0  0.21513  0.60886  0.49012  1.0000
  S   S38       1.0  0.18377  0.46747  0.46943  1.0000
  H   H173      1.0  0.10200  0.43622  0.34858  1.0000
  Fe  Fe16      1.0  0.07245  0.68963  0.43704  1.0000
  C   C98       1.0  0.13696  0.34588  0.38589  1.0000
  C   C99       1.0  0.13226  0.58699  0.32295  1.0000
  S   S39       1.0  0.34773  0.70666  0.40629  1.0000
  H   H174      1.0  0.25636  0.59492  0.47034  1.0000
  H   H175      1.0  0.26205  0.37580  0.44839  1.0000
  H   H176      1.0  0.33466  0.37348  0.56229  1.0000
  H   H177      1.0  0.19473  0.55351  0.41843  1.0000
  S   S40       1.0  0.02735  0.71718  0.43167  1.0000
  H   H178      1.0  0.22963  0.74631  0.48245  1.0000
  C   C100      1.0  0.26003  0.80320  0.49881  1.0000
  S   S41       1.0  0.22985  0.40828  0.52000  1.0000
  H   H179      1.0  0.11897  0.79077  0.38687  1.0000
  C   C101      1.0  0.24289  0.60395  0.50748  1.0000
  C   C102      1.0  0.35062  0.34699  0.40045  1.0000
  Fe  Fe17      1.0  0.18717  0.41648  0.44702  1.0000
  S   S42       1.0  0.34850  0.44803  0.41036  1.0000
  C   C103      1.0  0.28673  0.36787  0.43537  1.0000
  Fe  Fe18      1.0  0.09997  0.63451  0.39480  1.0000
  H   H180      1.0  0.14169  0.49059  0.32291  1.0000
  S   S43       1.0  0.23493  0.77152  0.33711  1.0000
  Fe  Fe19      1.0  0.23186  0.46316  0.53427  1.0000
  H   H181      1.0  0.13342  0.78602  0.53080  1.0000
  Fe  Fe20      1.0  0.28809  0.45531  0.42980  1.0000
  C   C104      1.0  0.27333  0.32764  0.43901  1.0000
  S   S44       1.0  0.12735  0.70808  0.49071  1.0000
  S   S45       1.0  0.11661  0.70112  0.34243  1.0000
  H   H182      1.0  0.05705  0.80229  0.42188  1.0000
  S   S46       1.0  0.29287  0.51020  0.44825  1.0000
  H   H183      1.0  0.26987  0.63455  0.50346  1.0000
  Fe  Fe21      1.0  0.10885  0.64052  0.53225  1.0000
  H   H184      1.0  0.25701  0.78755  0.55317  1.0000
  S   S47       1.0  0.34191  0.75746  0.53976  1.0000
  H   H185      1.0  0.08090  0.76084  0.51041  1.0000
  C   C105      1.0  0.17969  0.35079  0.37097  1.0000
  Fe  Fe22      1.0  0.17036  0.71448  0.39911  1.0000
  C   C106      1.0  0.24442  0.77986  0.45892  1.0000
  C   C107      1.0  0.14698  0.57204  0.38104  1.0000
  S   S48       1.0  0.15730  0.64863  0.44529  1.0000
  C   C108      1.0  0.30525  0.31711  0.42202  1.0000
  S   S49       1.0  0.05033  0.62137  0.48477  1.0000
  C   C109      1.0  0.19049  0.33630  0.32386  1.0000
  C   C110      1.0  0.33188  0.39773  0.41451  1.0000
  C   C111      1.0  0.10514  0.32712  0.35268  1.0000
  H   H186      1.0  0.08816  0.79434  0.55498  1.0000
  H   H187      1.0  0.23818  0.30483  0.45492  1.0000
  H   H188      1.0  0.07216  0.32373  0.36343  1.0000
  S   S50       1.0  0.24527  0.45964  0.35510  1.0000
  Fe  Fe23      1.0  0.24472  0.51042  0.38183  1.0000
  H   H189      1.0  0.15985  0.45234  0.34264  1.0000
  H   H190      1.0  0.27872  0.55625  0.56267  1.0000
  H   H191      1.0  0.20436  0.36559  0.39606  1.0000
  C   C112      1.0  0.18364  0.56533  0.37360  1.0000
  H   H192      1.0  0.12961  0.56505  0.43175  1.0000
  S   S51       1.0  0.12413  0.36552  0.44263  1.0000
  C   C113      1.0  0.10518  0.79030  0.51385  1.0000
  C   C114      1.0  0.25037  0.80015  0.38801  1.0000
  S   S52       1.0  0.08779  0.59713  0.33096  1.0000
  H   H193      1.0  0.20180  0.52065  0.54803  1.0000
  H   H194      1.0  0.31677  0.52065  0.56390  1.0000
  H   H195      1.0  0.27531  0.68561  0.31844  1.0000
  C   C115      1.0  0.13630  0.46131  0.31803  1.0000
  H   H196      1.0  0.02373  0.65980  0.56330  1.0000
  H   H197      1.0  0.12015  0.40966  0.79522  1.0000
  S   S53       1.0  0.27941  0.68177  0.73273  1.0000
  H   H198      1.0  0.12290  0.57982  0.77447  1.0000
  C   C116      1.0  0.28037  0.46221  0.65206  1.0000
  C   C117      1.0  0.22507  0.68105  0.64293  1.0000
  H   H199      1.0  0.08124  0.36461  0.60962  1.0000
  C   C118      1.0  0.22833  0.66210  0.70973  1.0000
  H   H200      1.0  0.05297  0.30510  0.76244  1.0000
  H   H201      1.0  0.14760  0.48869  0.75529  1.0000
  H   H202      1.0  0.17910  0.50764  0.63599  1.0000
  H   H203      1.0  0.04433  0.54618  0.79277  1.0000
  H   H204      1.0  0.13984  0.39005  0.60671  1.0000
  C   C119      1.0  0.31863  0.49548  0.60216  1.0000
  C   C120      1.0  0.11069  0.31020  0.62097  1.0000
  H   H205      1.0  0.07159  0.47308  0.80473  1.0000
  H   H206      1.0  0.14368  0.33220  0.58367  1.0000
  C   C121      1.0  0.34943  0.37024  0.60791  1.0000
  H   H207      1.0  0.20155  0.56383  0.68066  1.0000
  H   H208      1.0  0.19321  0.61129  0.80937  1.0000
  H   H209      1.0  0.09988  0.37751  0.68050  1.0000
  C   C122      1.0  0.02990  0.56428  0.80587  1.0000
  H   H210      1.0  0.05125  0.59751  0.76982  1.0000
  C   C123      1.0  0.18496  0.66364  0.62346  1.0000
  N   N13       1.0  0.10386  0.32507  0.67428  1.0000
  H   H211      1.0  0.16170  0.53579  0.56854  1.0000
  C   C124      1.0  0.13885  0.32914  0.71325  1.0000
  H   H212      1.0  0.31575  0.62552  0.79391  1.0000
  S   S54       1.0  0.23069  0.52227  0.79523  1.0000
  H   H213      1.0  0.32456  0.34078  0.65128  1.0000
  S   S55       1.0  0.22821  0.45765  0.64268  1.0000
  C   C125      1.0  0.15096  0.60849  0.73791  1.0000
  C   C126      1.0  0.32529  0.43170  0.70242  1.0000
  H   H214      1.0  0.31818  0.76647  0.75966  1.0000
  C   C127      1.0  0.28368  0.43031  0.70262  1.0000
  C   C128      1.0  0.10625  0.36611  0.64124  1.0000
  C   C129      1.0  0.29210  0.77492  0.74430  1.0000
  C   C130      1.0  0.19098  0.62619  0.75761  1.0000
  H   H215      1.0  0.13434  0.34002  0.75416  1.0000
  C   C131      1.0  0.14798  0.62717  0.67071  1.0000
  H   H216      1.0  0.26558  0.76114  0.79189  1.0000
  H   H217      1.0  0.32800  0.40722  0.74177  1.0000
  Fe  Fe24      1.0  0.33746  0.71266  0.64243  1.0000
  H   H218      1.0  0.23854  0.61672  0.62358  1.0000
  H   H219      1.0  0.17282  0.35236  0.67899  1.0000
  H   H220      1.0  0.25407  0.40419  0.74091  1.0000
  C   C132      1.0  0.14174  0.49494  0.79993  1.0000
  H   H221      1.0  0.34295  0.54589  0.79185  1.0000
  S   S56       1.0  0.09933  0.60355  0.64395  1.0000
  H   H222      1.0  0.27708  0.75929  0.70968  1.0000
  H   H223      1.0  0.25324  0.70920  0.60617  1.0000
  C   C133      1.0  0.21194  0.58636  0.62612  1.0000
  H   H224      1.0  0.25437  0.54049  0.65141  1.0000
  H   H225      1.0  0.29287  0.59442  0.59938  1.0000
  H   H226      1.0  0.18266  0.59008  0.61377  1.0000
  H   H227      1.0  0.08489  0.30700  0.59050  1.0000
  C   C134      1.0  0.19085  0.53236  0.58281  1.0000
  N   N14       1.0  0.22773  0.57209  0.57879  1.0000
  C   C135      1.0  0.26521  0.56567  0.59887  1.0000
  H   H228      1.0  0.35371  0.39626  0.62265  1.0000
  H   H229      1.0  0.02877  0.74980  0.81664  1.0000
  H   H230      1.0  0.18295  0.67797  0.57145  1.0000
  H   H231      1.0  0.13188  0.67520  0.99142  1.0000
  S   S57       1.0  0.19185  0.43010  0.96964  1.0000
  H   H232      1.0  0.03504  0.30850  0.03359  1.0000
  H   H233      1.0  0.26002  0.60323  0.84280  1.0000
  H   H234      1.0  0.28802  0.57299  0.85784  1.0000
  S   S58       1.0  0.29623  0.50057  0.93721  1.0000
  N   N15       1.0  0.31058  0.62012  0.89897  1.0000
  S   S59       1.0  0.31863  0.76083  0.90185  1.0000
  Fe  Fe25      1.0  0.06242  0.60978  0.97108  1.0000
  C   C136      1.0  0.13115  0.33263  0.91421  1.0000
  H   H235      1.0  0.06824  0.69231  0.05689  1.0000
  C   C137      1.0  0.17006  0.73893  0.97882  1.0000
  C   C138      1.0  0.09079  0.49352  0.88636  1.0000
  C   C139      1.0  0.23540  0.69527  0.94946  1.0000
  S   S60       1.0  0.10722  0.58655  0.94247  1.0000
  C   C140      1.0  0.21352  0.62912  0.04251  1.0000
  S   S61       1.0  0.26453  0.40159  0.02317  1.0000
  H   H236      1.0  0.10259  0.76196  0.84613  1.0000
  S   S62       1.0  0.03724  0.48323  0.92077  1.0000
  C   C141      1.0  0.29294  0.60477  0.84615  1.0000
  H   H237      1.0  0.18910  0.73240  0.01550  1.0000
  C   C142      1.0  0.20322  0.65433  0.99056  1.0000
  C   C143      1.0  0.11297  0.71435  0.91781  1.0000
  Fe  Fe26      1.0  0.31428  0.45374  0.92660  1.0000
  Fe  Fe27      1.0  0.24633  0.47989  0.87644  1.0000
  C   C144      1.0  0.13790  0.70649  0.96483  1.0000
  C   C145      1.0  0.16863  0.51753  0.88981  1.0000
  C   C146      1.0  0.11094  0.37891  0.83284  1.0000
  C   C147      1.0  0.28852  0.68705  0.01465  1.0000
  C   C148      1.0  0.31683  0.66259  0.88058  1.0000
  C   C149      1.0  0.07733  0.39251  0.97386  1.0000
  C   C150      1.0  0.35404  0.62140  0.90191  1.0000
  C   C151      1.0  0.14307  0.37189  0.86389  1.0000
  S   S63       1.0  0.26919  0.43791  0.85692  1.0000
  H   H238      1.0  0.24559  0.59076  0.96647  1.0000
  N   N16       1.0  0.04351  0.36515  0.04006  1.0000
  Fe  Fe28      1.0  0.21773  0.38906  0.95436  1.0000
  Fe  Fe29      1.0  0.04573  0.52436  0.97755  1.0000
  H   H239      1.0  0.09978  0.42382  0.97272  1.0000
  C   C152      1.0  0.05523  0.30695  0.90041  1.0000
  C   C153      1.0  0.17794  0.77975  0.94541  1.0000
  H   H240      1.0  0.32173  0.69965  0.02328  1.0000
  H   H241      1.0  0.09864  0.37910  0.96497  1.0000
  C   C154      1.0  0.27856  0.59185  0.96689  1.0000
  S   S64       1.0  0.16940  0.32596  0.96087  1.0000
  H   H242      1.0  0.22711  0.71409  0.90821  1.0000
  Fe  Fe30      1.0  0.24342  0.44745  0.02929  1.0000
  H   H243      1.0  0.27247  0.55934  0.98189  1.0000
  H   H244      1.0  0.32692  0.38274  0.93632  1.0000
  C   C155      1.0  0.12576  0.50914  0.91739  1.0000
  H   H245      1.0  0.35095  0.58996  0.91623  1.0000
  H   H246      1.0  0.11970  0.51413  0.96338  1.0000
  C   C156      1.0  0.12147  0.75545  0.88297  1.0000
  H   H247      1.0  0.19538  0.52921  0.91439  1.0000
  H   H248      1.0  0.33188  0.67602  0.91748  1.0000
  C   C157      1.0  0.27820  0.71145  0.96049  1.0000
  H   H249      1.0  0.29094  0.60216  0.00819  1.0000
  Fe  Fe31      1.0  0.10983  0.56662  0.05380  1.0000
  C   C158      1.0  0.15407  0.78819  0.89653  1.0000
  C   C159      1.0  0.06682  0.34673  0.85223  1.0000
  H   H250      1.0  0.17063  0.64208  0.98073  1.0000
  S   S65       1.0  0.06973  0.67261  0.90552  1.0000
  H   H251      1.0  0.33659  0.32048  0.98803  1.0000
  H   H252      1.0  0.32377  0.51464  0.05151  1.0000
  H   H253      1.0  0.06165  0.39715  0.92936  1.0000
  H   H254      1.0  0.28449  0.66277  0.87990  1.0000
  C   C160      1.0  0.25610  0.64555  0.05551  1.0000
  H   H255      1.0  0.17678  0.39733  0.84990  1.0000
  H   H256      1.0  0.03321  0.56222  0.85853  1.0000
  H   H257      1.0  0.03648  0.41556  0.04949  1.0000
  C   C161      1.0  0.17687  0.51124  0.83020  1.0000
  S   S66       1.0  0.02641  0.35736  0.81776  1.0000
  C   C162      1.0  0.09866  0.48580  0.82824  1.0000
  H   H258      1.0  0.33939  0.68435  0.82837  1.0000
  C   C163      1.0  0.65873  0.21430  0.11124  1.0000
  H   H259      1.0  0.49723  0.29485  0.21157  1.0000
  Fe  Fe32      1.0  0.52287  0.11717  0.10901  1.0000
  S   S67       1.0  0.43548  0.96472  0.14038  1.0000
  C   C164      1.0  0.65841  0.94904  0.27765  1.0000
  H   H260      1.0  0.62487  0.21884  0.27196  1.0000
  H   H261      1.0  0.57026  0.96436  0.24719  1.0000
  H   H262      1.0  0.43690  0.18766  0.17494  1.0000
  C   C165      1.0  0.56777  0.85369  0.15068  1.0000
  H   H263      1.0  0.36190  0.89104  0.27218  1.0000
  H   H264      1.0  0.65668  0.93142  0.24495  1.0000
  S   S68       1.0  0.38385  0.28200  0.29197  1.0000
  H   H265      1.0  0.37241  0.99160  0.14488  1.0000
  C   C166      1.0  0.39156  0.18702  0.07624  1.0000
  C   C167      1.0  0.63896  0.26476  0.12286  1.0000
  C   C168      1.0  0.43948  0.89422  0.29320  1.0000
  C   C169      1.0  0.44594  0.91568  0.08101  1.0000
  H   H266      1.0  0.62832  0.99958  0.20613  1.0000
  S   S69       1.0  0.53519  0.06311  0.15048  1.0000
  C   C170      1.0  0.52785  0.83934  0.19722  1.0000
  N   N17       1.0  0.61496  0.94651  0.29750  1.0000
  C   C171      1.0  0.56364  0.03016  0.30929  1.0000
  H   H267      1.0  0.60402  0.15276  0.13720  1.0000
  S   S70       1.0  0.51729  0.98920  0.30170  1.0000
  H   H268      1.0  0.60080  0.95033  0.19863  1.0000
  C   C172      1.0  0.67148  0.25483  0.10539  1.0000
  H   H269      1.0  0.68502  0.98189  0.24821  1.0000
  C   C173      1.0  0.56775  0.83537  0.10407  1.0000
  H   H270      1.0  0.68346  0.20628  0.09759  1.0000
  C   C174      1.0  0.60310  0.96608  0.23458  1.0000
  S   S71       1.0  0.61793  0.89406  0.15086  1.0000
  H   H271      1.0  0.43589  0.92106  0.29438  1.0000
  S   S72       1.0  0.52463  0.15850  0.16321  1.0000
  H   H272      1.0  0.43468  0.13839  0.19109  1.0000
  C   C175      1.0  0.49489  0.28842  0.16410  1.0000
  H   H273      1.0  0.45808  0.90423  0.23996  1.0000
  H   H274      1.0  0.60545  0.04841  0.21124  1.0000
  H   H275      1.0  0.57746  0.95855  0.08078  1.0000
  H   H276      1.0  0.56831  0.24228  0.15562  1.0000
  C   C176      1.0  0.64060  0.08612  0.26519  1.0000
  H   H277      1.0  0.64886  0.29554  0.12129  1.0000
  C   C177      1.0  0.48792  0.80689  0.19637  1.0000
  C   C178      1.0  0.58099  0.19451  0.14681  1.0000
  C   C179      1.0  0.61357  0.18410  0.13256  1.0000
  H   H278      1.0  0.67121  0.10448  0.22518  1.0000
  S   S73       1.0  0.68397  0.84772  0.08127  1.0000
  C   C180      1.0  0.59360  0.23458  0.14333  1.0000
  C   C181      1.0  0.60349  0.05405  0.25766  1.0000
  H   H279      1.0  0.52761  0.85347  0.23325  1.0000
  Fe  Fe33      1.0  0.48430  0.03322  0.09725  1.0000
  H   H280      1.0  0.38199  0.87544  0.21295  1.0000
  Fe  Fe34      1.0  0.67276  0.90115  0.07552  1.0000
  H   H281      1.0  0.58293  0.81997  0.29725  1.0000
  H   H282      1.0  0.50110  0.26170  0.17264  1.0000
  C   C182      1.0  0.41786  0.15711  0.17127  1.0000
  H   H283      1.0  0.44301  0.89495  0.13194  1.0000
  H   H284      1.0  0.41684  0.83096  0.25115  1.0000
  H   H285      1.0  0.45983  0.27837  0.15898  1.0000
  H   H286      1.0  0.40094  0.09934  0.12322  1.0000
  C   C183      1.0  0.38747  0.12043  0.09887  1.0000
  N   N18       1.0  0.41400  0.16199  0.10008  1.0000
  C   C184      1.0  0.36693  0.86545  0.26794  1.0000
  H   H287      1.0  0.38437  0.14038  0.20729  1.0000
  H   H288      1.0  0.57438  0.22071  0.29167  1.0000
  C   C185      1.0  0.44169  0.95110  0.07127  1.0000
  H   H289      1.0  0.58254  0.14221  0.30622  1.0000
  C   C186      1.0  0.52790  0.80342  0.10275  1.0000
  H   H290      1.0  0.41104  0.21897  0.07492  1.0000
  S   S74       1.0  0.35906  0.05389  0.27170  1.0000
  C   C187      1.0  0.60076  0.21551  0.31411  1.0000
  H   H291      1.0  0.35811  0.17258  0.11106  1.0000
  N   N19       1.0  0.39549  0.85643  0.31277  1.0000
  C   C188      1.0  0.40146  0.82248  0.30554  1.0000
  H   H292      1.0  0.57654  0.88486  0.30066  1.0000
  H   H293      1.0  0.59826  0.84609  0.06798  1.0000
  S   S75       1.0  0.46785  0.05202  0.52202  1.0000
  S   S76       1.0  0.62727  0.05685  0.54070  1.0000
  H   H294      1.0  0.58590  0.96700  0.35956  1.0000
  Fe  Fe35      1.0  0.39129  0.02098  0.33617  1.0000
  C   C189      1.0  0.60735  0.82985  0.49823  1.0000
  H   H295      1.0  0.53495  0.13996  0.47073  1.0000
  H   H296      1.0  0.58815  0.98094  0.48645  1.0000
  H   H297      1.0  0.42328  0.81516  0.33819  1.0000
  C   C190      1.0  0.44388  0.08156  0.53304  1.0000
  Fe  Fe36      1.0  0.68622  0.10047  0.44891  1.0000
  C   C191      1.0  0.37375  0.84331  0.38511  1.0000
  S   S77       1.0  0.46285  0.04987  0.34152  1.0000
  H   H298      1.0  0.58805  0.88666  0.38143  1.0000
  S   S78       1.0  0.44641  0.86513  0.49813  1.0000
  C   C192      1.0  0.59829  0.06988  0.37633  1.0000
  H   H299      1.0  0.51470  0.27745  0.38081  1.0000
  H   H300      1.0  0.51992  0.94829  0.44579  1.0000
  C   C193      1.0  0.56092  0.03870  0.36798  1.0000
  S   S79       1.0  0.36470  0.99538  0.45007  1.0000
  H   H301      1.0  0.54698  0.89968  0.35033  1.0000
  C   C194      1.0  0.52519  0.93006  0.49195  1.0000
  S   S80       1.0  0.61655  0.29472  0.51895  1.0000
  H   H302      1.0  0.46065  0.88938  0.32934  1.0000
  H   H303      1.0  0.52061  0.17293  0.40641  1.0000
  H   H304      1.0  0.60475  0.13795  0.44310  1.0000
  N   N20       1.0  0.58153  0.17414  0.37170  1.0000
  C   C195      1.0  0.54906  0.17050  0.42592  1.0000
  C   C196      1.0  0.41173  0.12634  0.48874  1.0000
  H   H305      1.0  0.54284  0.10954  0.38842  1.0000
  H   H306      1.0  0.56529  0.85505  0.51583  1.0000
  Fe  Fe37      1.0  0.45814  0.98875  0.35275  1.0000
  H   H307      1.0  0.53026  0.02064  0.40791  1.0000
  C   C197      1.0  0.49363  0.88792  0.52832  1.0000
  C   C198      1.0  0.41097  0.13294  0.54984  1.0000
  C   C199      1.0  0.58439  0.29478  0.35999  1.0000
  S   S81       1.0  0.65374  0.87931  0.45428  1.0000
  C   C200      1.0  0.54775  0.30126  0.34965  1.0000
  Fe  Fe38      1.0  0.36545  0.93833  0.45016  1.0000
  S   S82       1.0  0.43436  0.95929  0.46771  1.0000
  H   H308      1.0  0.57935  0.26620  0.39952  1.0000
  H   H309      1.0  0.39307  0.83392  0.42036  1.0000
  H   H310      1.0  0.56496  0.19518  0.44590  1.0000
  C   C201      1.0  0.58002  0.90239  0.33393  1.0000
  H   H311      1.0  0.61926  0.24108  0.33125  1.0000
  Fe  Fe39      1.0  0.43596  0.01914  0.45564  1.0000
  H   H312      1.0  0.59582  0.07594  0.42206  1.0000
  C   C202      1.0  0.56360  0.94846  0.51503  1.0000
  C   C203      1.0  0.61819  0.96839  0.34380  1.0000
  C   C204      1.0  0.42769  0.10013  0.48063  1.0000
  C   C205      1.0  0.56710  0.82701  0.52301  1.0000
  S   S83       1.0  0.68550  0.13039  0.33867  1.0000
  Fe  Fe40      1.0  0.65746  0.01511  0.55982  1.0000
  Fe  Fe41      1.0  0.44290  0.29046  0.33782  1.0000
  S   S84       1.0  0.43297  0.22696  0.35519  1.0000
  H   H313      1.0  0.62667  0.95396  0.39212  1.0000
  H   H314      1.0  0.66925  0.93582  0.32368  1.0000
  Fe  Fe42      1.0  0.39113  0.20748  0.45903  1.0000
  H   H315      1.0  0.37132  0.86900  0.39398  1.0000
  S   S85       1.0  0.40502  0.27181  0.44410  1.0000
  H   H316      1.0  0.39975  0.14111  0.44807  1.0000
  H   H317      1.0  0.42858  0.09513  0.43337  1.0000
  H   H318      1.0  0.63479  0.19306  0.42261  1.0000
  S   S86       1.0  0.39230  0.16624  0.56044  1.0000
  C   C206      1.0  0.55879  0.14121  0.34589  1.0000
  C   C207      1.0  0.61771  0.16938  0.40100  1.0000
  C   C208      1.0  0.63819  0.09348  0.32523  1.0000
  H   H319      1.0  0.64355  0.17341  0.36086  1.0000
  S   S87       1.0  0.38919  0.96283  0.33522  1.0000
  H   H320      1.0  0.64396  0.00188  0.31852  1.0000
  H   H321      1.0  0.53204  0.14450  0.32165  1.0000
  Fe  Fe43      1.0  0.37081  0.21693  0.31781  1.0000
  H   H322      1.0  0.65093  0.80723  0.77097  1.0000
  C   C209      1.0  0.62587  0.84461  0.66172  1.0000
  H   H323      1.0  0.50527  0.00147  0.73551  1.0000
  C   C210      1.0  0.45722  0.18772  0.73419  1.0000
  H   H324      1.0  0.54457  0.28662  0.65851  1.0000
  C   C211      1.0  0.57015  0.92449  0.57471  1.0000
  N   N21       1.0  0.49169  0.96312  0.67770  1.0000
  C   C212      1.0  0.64871  0.20875  0.69087  1.0000
  H   H325      1.0  0.42983  0.19559  0.73546  1.0000
  H   H326      1.0  0.52391  0.18138  0.67846  1.0000
  C   C213      1.0  0.49144  0.96730  0.60586  1.0000
  H   H327      1.0  0.67008  0.89339  0.76716  1.0000
  C   C214      1.0  0.64342  0.87531  0.74570  1.0000
  S   S88       1.0  0.40936  0.26772  0.78385  1.0000
  H   H328      1.0  0.46709  0.97732  0.58726  1.0000
  S   S89       1.0  0.64663  0.09003  0.69714  1.0000
  C   C215      1.0  0.66070  0.16999  0.62961  1.0000
  H   H329      1.0  0.54079  0.02729  0.64986  1.0000
  H   H330      1.0  0.49437  0.06493  0.71616  1.0000
  C   C216      1.0  0.63438  0.17428  0.75319  1.0000
  C   C217      1.0  0.50428  0.09959  0.77953  1.0000
  H   H331      1.0  0.52459  0.94487  0.75504  1.0000
  H   H332      1.0  0.46364  0.18006  0.78674  1.0000
  H   H333      1.0  0.58946  0.26749  0.77855  1.0000
  H   H334      1.0  0.43387  0.90224  0.72037  1.0000
  H   H335      1.0  0.54249  0.86428  0.65888  1.0000
  H   H336      1.0  0.62698  0.89394  0.72335  1.0000
  C   C218      1.0  0.60856  0.28993  0.80130  1.0000
  H   H337      1.0  0.46051  0.23594  0.60855  1.0000
  H   H338      1.0  0.63850  0.83685  0.62183  1.0000
  H   H339      1.0  0.51594  0.25531  0.74811  1.0000
  C   C219      1.0  0.53805  0.88269  0.61185  1.0000
  H   H340      1.0  0.56503  0.23541  0.64629  1.0000
  H   H341      1.0  0.61796  0.84684  0.79018  1.0000
  C   C220      1.0  0.53386  0.21090  0.68564  1.0000
  C   C221      1.0  0.42594  0.11333  0.60273  1.0000
  C   C222      1.0  0.47926  0.06689  0.76000  1.0000
  H   H342      1.0  0.51240  0.91647  0.70079  1.0000
  C   C223      1.0  0.63286  0.13774  0.75388  1.0000
  C   C224      1.0  0.44301  0.08824  0.59371  1.0000
  S   S90       1.0  0.61789  0.94580  0.60452  1.0000
  H   H343      1.0  0.54265  0.20662  0.73626  1.0000
  H   H344      1.0  0.67275  0.23329  0.58048  1.0000
  C   C225      1.0  0.52279  0.94769  0.70152  1.0000
  H   H345      1.0  0.55729  0.96915  0.66825  1.0000
  C   C226      1.0  0.43504  0.03724  0.79663  1.0000
  N   N22       1.0  0.66135  0.86471  0.69411  1.0000
  H   H346      1.0  0.42218  0.94481  0.70515  1.0000
  S   S91       1.0  0.65081  0.25420  0.69248  1.0000
  H   H347      1.0  0.42485  0.11772  0.65049  1.0000
  H   H348      1.0  0.48179  0.93715  0.60124  1.0000
  Fe  Fe44      1.0  0.67251  0.08701  0.60053  1.0000
  H   H349      1.0  0.44497  0.15873  0.72455  1.0000
  C   C227      1.0  0.64628  0.13559  0.69238  1.0000
  S   S92       1.0  0.40373  0.99709  0.76999  1.0000
  C   C228      1.0  0.66165  0.20663  0.62882  1.0000
  C   C229      1.0  0.50619  0.00405  0.68132  1.0000
  H   H350      1.0  0.62381  0.17540  0.80119  1.0000
  H   H351      1.0  0.48379  0.01679  0.66218  1.0000
  H   H352      1.0  0.53828  0.12246  0.75060  1.0000
  C   C230      1.0  0.51212  0.26063  0.69447  1.0000
  C   C231      1.0  0.44604  0.93345  0.72182  1.0000
  H   H353      1.0  0.47539  0.83230  0.61805  1.0000
  H   H354      1.0  0.45486  0.07330  0.63427  1.0000
  H   H355      1.0  0.44468  0.92969  0.77645  1.0000
  H   H356      1.0  0.61276  0.86562  0.63526  1.0000
  H   H357      1.0  0.67108  0.16835  0.58195  1.0000
  N   N23       1.0  0.49809  0.22231  0.68153  1.0000
  H   H358      1.0  0.48740  0.27193  0.68673  1.0000
  C   C232      1.0  0.49987  0.86446  0.58873  1.0000
  H   H359      1.0  0.59705  0.81562  0.70055  1.0000
  C   C233      1.0  0.48914  0.22972  0.61215  1.0000
  H   H360      1.0  0.37433  0.83128  0.66172  1.0000
  H   H361      1.0  0.62133  0.11112  0.80239  1.0000
  C   C234      1.0  0.67780  0.83584  0.72861  1.0000
  Fe  Fe45      1.0  0.66310  0.30244  0.58874  1.0000
  H   H362      1.0  0.48088  0.20229  0.59901  1.0000
  H   H363      1.0  0.68732  0.92546  0.61286  1.0000
  H   H364      1.0  0.35697  0.83393  0.77426  1.0000
  H   H365      1.0  0.52479  0.99076  0.57016  1.0000
  H   H366      1.0  0.51847  0.25725  0.57153  1.0000
  H   H367      1.0  0.36081  0.87168  0.62016  1.0000
  S   S93       1.0  0.50562  0.83643  0.94788  1.0000
  C   C235      1.0  0.46055  0.97238  0.94755  1.0000
  H   H368      1.0  0.54729  0.21526  0.90117  1.0000
  S   S94       1.0  0.51736  0.14253  0.86240  1.0000
  S   S95       1.0  0.67794  0.92368  0.96144  1.0000
  H   H369      1.0  0.57107  0.22477  0.97111  1.0000
  H   H370      1.0  0.67024  0.01285  0.92246  1.0000
  S   S96       1.0  0.48622  0.93248  0.88551  1.0000
  H   H371      1.0  0.47497  0.16338  0.06690  1.0000
  C   C236      1.0  0.64944  0.00738  0.97084  1.0000
  N   N24       1.0  0.60160  0.98920  0.97038  1.0000
  C   C237      1.0  0.45778  0.90883  0.02370  1.0000
  H   H372      1.0  0.39249  0.10890  0.84879  1.0000
  C   C238      1.0  0.41666  0.03956  0.85481  1.0000
  H   H373      1.0  0.44446  0.00607  0.99679  1.0000
  C   C239      1.0  0.44769  0.97868  0.00468  1.0000
  H   H374      1.0  0.64709  0.28342  0.94717  1.0000
  Fe  Fe46      1.0  0.46293  0.86516  0.91368  1.0000
  H   H375      1.0  0.66670  0.26301  0.82365  1.0000
  H   H376      1.0  0.61440  0.02444  0.86129  1.0000
  H   H377      1.0  0.48116  0.21302  0.05809  1.0000
  Fe  Fe47      1.0  0.52178  0.11268  0.96909  1.0000
  H   H378      1.0  0.66200  0.03785  0.97583  1.0000
  H   H379      1.0  0.46723  0.99478  0.89593  1.0000
  N   N25       1.0  0.61325  0.26812  0.86993  1.0000
  H   H380      1.0  0.42863  0.07298  0.92151  1.0000
  S   S97       1.0  0.66929  0.83608  0.90242  1.0000
  H   H381      1.0  0.53159  0.29075  0.04538  1.0000
  H   H382      1.0  0.55022  0.93397  0.96467  1.0000
  C   C240      1.0  0.68150  0.16640  0.93055  1.0000
  S   S98       1.0  0.65025  0.09268  0.04340  1.0000
  H   H383      1.0  0.55076  0.25774  0.92108  1.0000
  S   S99       1.0  0.57595  0.14837  0.01147  1.0000
  H   H384      1.0  0.61281  0.21788  0.84820  1.0000
  C   C241      1.0  0.58638  0.94902  0.96345  1.0000
  H   H385      1.0  0.38720  0.12229  0.04546  1.0000
  S   S100      1.0  0.40189  0.81438  0.99624  1.0000
  H   H386      1.0  0.60595  0.04876  0.91579  1.0000
  C   C242      1.0  0.56859  0.24023  0.91804  1.0000
  S   S101      1.0  0.44372  0.83774  0.83594  1.0000
  H   H387      1.0  0.65527  0.98632  0.01488  1.0000
  C   C243      1.0  0.59517  0.01826  0.91174  1.0000
  H   H388      1.0  0.64811  0.15408  0.92253  1.0000
  S   S102      1.0  0.45945  0.27873  0.90818  1.0000
  C   C244      1.0  0.46586  0.93769  0.95702  1.0000
  H   H389      1.0  0.60449  0.95319  0.91380  1.0000
  S   S103      1.0  0.53507  0.05904  0.99885  1.0000
  H   H390      1.0  0.59135  0.92653  0.00625  1.0000
  C   C245      1.0  0.64135  0.29883  0.89670  1.0000
  H   H391      1.0  0.53952  0.97067  0.03558  1.0000
  C   C246      1.0  0.63458  0.24337  0.86359  1.0000
  C   C247      1.0  0.44250  0.07131  0.87620  1.0000
  C   C248      1.0  0.57538  0.98209  0.03581  1.0000
  H   H392      1.0  0.46312  0.88254  0.03107  1.0000
  H   H393      1.0  0.64193  0.22893  0.91290  1.0000
  Fe  Fe48      1.0  0.40654  0.29070  0.94668  1.0000
  H   H394      1.0  0.55943  0.00541  0.90961  1.0000
  H   H395      1.0  0.37860  0.01070  0.02125  1.0000
  H   H396      1.0  0.45732  0.19000  0.99916  1.0000
  Fe  Fe49      1.0  0.58461  0.09201  0.04992  1.0000
  C   C249      1.0  0.45892  0.18325  0.05395  1.0000
  S   S104      1.0  0.40584  0.16902  0.90480  1.0000
  H   H397      1.0  0.38297  0.01633  0.88396  1.0000
  C   C250      1.0  0.48589  0.10184  0.83759  1.0000
  Fe  Fe50      1.0  0.40306  0.22720  0.89143  1.0000
  S   S105      1.0  0.46738  0.08493  0.06336  1.0000
  Fe  Fe51      1.0  0.35946  0.27930  0.83265  1.0000
  H   H398      1.0  0.38659  0.18963  0.02390  1.0000
  H   H399      1.0  0.58742  0.01136  0.04456  1.0000
  Fe  Fe52      1.0  0.48184  0.80481  0.87615  1.0000
  C   C251      1.0  0.36063  0.09953  0.87964  1.0000
  C   C252      1.0  0.35701  0.12480  0.91088  1.0000
  C   C253      1.0  0.50175  0.48553  0.29979  1.0000
  C   C254      1.0  0.55532  0.46817  0.26014  1.0000
  H   H400      1.0  0.44292  0.41918  0.27876  1.0000
  H   H401      1.0  0.42739  0.56609  0.27884  1.0000
  H   H402      1.0  0.56909  0.77554  0.22995  1.0000
  H   H403      1.0  0.51029  0.51058  0.24803  1.0000
  H   H404      1.0  0.57768  0.34754  0.15685  1.0000
  S   S106      1.0  0.41505  0.48001  0.20066  1.0000
  H   H405      1.0  0.44039  0.68684  0.25448  1.0000
  C   C255      1.0  0.48789  0.78965  0.14795  1.0000
  H   H406      1.0  0.37806  0.52522  0.27284  1.0000
  S   S107      1.0  0.43766  0.75474  0.13767  1.0000
  H   H407      1.0  0.48302  0.40703  0.24806  1.0000
  H   H408      1.0  0.60320  0.40036  0.22794  1.0000
  H   H409      1.0  0.60233  0.45299  0.13767  1.0000
  H   H410      1.0  0.44595  0.63184  0.13241  1.0000
  H   H411      1.0  0.56167  0.44290  0.25750  1.0000
  S   S108      1.0  0.53790  0.53682  0.08775  1.0000
  H   H412      1.0  0.62983  0.78771  0.29140  1.0000
  N   N26       1.0  0.38843  0.58721  0.21712  1.0000
  N   N27       1.0  0.52722  0.32571  0.10280  1.0000
  H   H413      1.0  0.48545  0.45577  0.20139  1.0000
  H   H414      1.0  0.51179  0.74506  0.27791  1.0000
  C   C256      1.0  0.60502  0.45822  0.08384  1.0000
  H   H415      1.0  0.54441  0.72004  0.27490  1.0000
  H   H416      1.0  0.57853  0.48380  0.28848  1.0000
  C   C257      1.0  0.63417  0.36394  0.27339  1.0000
  H   H417      1.0  0.44973  0.63948  0.21087  1.0000
  H   H418      1.0  0.35744  0.76911  0.15538  1.0000
  S   S109      1.0  0.66604  0.43129  0.09589  1.0000
  H   H419      1.0  0.66193  0.58938  0.09141  1.0000
  H   H420      1.0  0.38128  0.59126  0.31546  1.0000
  S   S110      1.0  0.50926  0.34772  0.28443  1.0000
  H   H421      1.0  0.36725  0.33086  0.14469  1.0000
  C   C258      1.0  0.47864  0.43243  0.25402  1.0000
  H   H422      1.0  0.56444  0.49160  0.20664  1.0000
  C   C259      1.0  0.54568  0.74850  0.27803  1.0000
  H   H423      1.0  0.66749  0.38861  0.24443  1.0000
  C   C260      1.0  0.59772  0.37070  0.26422  1.0000
  C   C261      1.0  0.40566  0.55778  0.24335  1.0000
  H   H424      1.0  0.42583  0.55764  0.20060  1.0000
  C   C262      1.0  0.42487  0.67769  0.30752  1.0000
  H   H425      1.0  0.41472  0.65325  0.16045  1.0000
  C   C263      1.0  0.36423  0.50157  0.11880  1.0000
  C   C264      1.0  0.42626  0.62981  0.17843  1.0000
  Fe  Fe53      1.0  0.46772  0.52553  0.10302  1.0000
  N   N28       1.0  0.50828  0.45137  0.29459  1.0000
  C   C265      1.0  0.57302  0.33831  0.11230  1.0000
  H   H426      1.0  0.48232  0.35095  0.09091  1.0000
  H   H427      1.0  0.38797  0.37146  0.21884  1.0000
  H   H428      1.0  0.67650  0.72154  0.07901  1.0000
  C   C266      1.0  0.51751  0.36021  0.09385  1.0000
  H   H429      1.0  0.37853  0.57672  0.12457  1.0000
  H   H430      1.0  0.58134  0.31283  0.12171  1.0000
  H   H431      1.0  0.39287  0.71525  0.28017  1.0000
  H   H432      1.0  0.65655  0.54285  0.08380  1.0000
  H   H433      1.0  0.39121  0.40654  0.09609  1.0000
  H   H434      1.0  0.45692  0.79598  0.23154  1.0000
  C   C267      1.0  0.36210  0.58622  0.27600  1.0000
  H   H435      1.0  0.52280  0.37014  0.13765  1.0000
  C   C268      1.0  0.36466  0.47738  0.18416  1.0000
  C   C269      1.0  0.55443  0.33922  0.30120  1.0000
  C   C270      1.0  0.67960  0.57674  0.06802  1.0000
  C   C271      1.0  0.35941  0.57481  0.17104  1.0000
  H   H436      1.0  0.39496  0.52394  0.08009  1.0000
  H   H437      1.0  0.55619  0.47857  0.07393  1.0000
  C   C272      1.0  0.38648  0.65654  0.44404  1.0000
  H   H438      1.0  0.37540  0.33910  0.38637  1.0000
  H   H439      1.0  0.61474  0.68840  0.43842  1.0000
  S   S111      1.0  0.59320  0.54218  0.38915  1.0000
  H   H440      1.0  0.52306  0.50021  0.33096  1.0000
  S   S112      1.0  0.47578  0.58715  0.53586  1.0000
  H   H441      1.0  0.53815  0.71930  0.45042  1.0000
  H   H442      1.0  0.52660  0.68796  0.40108  1.0000
  C   C273      1.0  0.58609  0.49239  0.43426  1.0000
  C   C274      1.0  0.60972  0.79352  0.50792  1.0000
  H   H443      1.0  0.65870  0.63604  0.42872  1.0000
  C   C275      1.0  0.37890  0.68362  0.38996  1.0000
  S   S113      1.0  0.53765  0.54184  0.55525  1.0000
  C   C276      1.0  0.62761  0.32592  0.32101  1.0000
  C   C277      1.0  0.60442  0.43848  0.43791  1.0000
  H   H444      1.0  0.36887  0.79323  0.32204  1.0000
  H   H445      1.0  0.53162  0.47411  0.51625  1.0000
  C   C278      1.0  0.39782  0.69376  0.32191  1.0000
  H   H446      1.0  0.64045  0.79553  0.48705  1.0000
  C   C279      1.0  0.57016  0.41018  0.49755  1.0000
  S   S114      1.0  0.47370  0.53110  0.44661  1.0000
  N   N29       1.0  0.55962  0.75406  0.34027  1.0000
  H   H447      1.0  0.51898  0.43282  0.39636  1.0000
  C   C280      1.0  0.61263  0.47959  0.40664  1.0000
  S   S115      1.0  0.43698  0.76498  0.48651  1.0000
  C   C281      1.0  0.52824  0.71688  0.40245  1.0000
  Fe  Fe54      1.0  0.36528  0.72277  0.49637  1.0000
  Fe  Fe55      1.0  0.46605  0.52314  0.55748  1.0000
  S   S116      1.0  0.67388  0.32029  0.34066  1.0000
  H   H448      1.0  0.49383  0.71265  0.40728  1.0000
  C   C282      1.0  0.64348  0.69916  0.45909  1.0000
  C   C283      1.0  0.49759  0.41933  0.36441  1.0000
  H   H449      1.0  0.46229  0.40516  0.39187  1.0000
  S   S117      1.0  0.56230  0.62127  0.41294  1.0000
  H   H450      1.0  0.38825  0.52099  0.55931  1.0000
  C   C284      1.0  0.52913  0.78805  0.55745  1.0000
  Fe  Fe56      1.0  0.54660  0.55516  0.44303  1.0000
  C   C285      1.0  0.63905  0.68253  0.53022  1.0000
  S   S118      1.0  0.46806  0.63264  0.34013  1.0000
  H   H451      1.0  0.39843  0.41093  0.37855  1.0000
  C   C286      1.0  0.60516  0.75950  0.33717  1.0000
  Fe  Fe57      1.0  0.67841  0.33531  0.43350  1.0000
  H   H452      1.0  0.41859  0.61871  0.47138  1.0000
  H   H453      1.0  0.52550  0.78824  0.34537  1.0000
  Fe  Fe58      1.0  0.41322  0.79534  0.54027  1.0000
  C   C287      1.0  0.68195  0.62730  0.45534  1.0000
  S   S119      1.0  0.55803  0.35801  0.53407  1.0000
  H   H454      1.0  0.40978  0.41612  0.48904  1.0000
  H   H455      1.0  0.50338  0.39367  0.36248  1.0000
  H   H456      1.0  0.43211  0.43771  0.54902  1.0000
  C   C288      1.0  0.57148  0.75432  0.54239  1.0000
  Fe  Fe59      1.0  0.62063  0.35417  0.51511  1.0000
  Fe  Fe60      1.0  0.54798  0.60624  0.52629  1.0000
  H   H457      1.0  0.37030  0.33701  0.52857  1.0000
  H   H458      1.0  0.37150  0.64804  0.49684  1.0000
  C   C289      1.0  0.36378  0.38740  0.39632  1.0000
  H   H459      1.0  0.57304  0.72627  0.54839  1.0000
  H   H460      1.0  0.62364  0.42840  0.41439  1.0000
  S   S120      1.0  0.67995  0.39487  0.42447  1.0000
  C   C290      1.0  0.42406  0.41074  0.53476  1.0000
  H   H461      1.0  0.63883  0.50115  0.35996  1.0000
  C   C291      1.0  0.55220  0.46439  0.49460  1.0000
  C   C292      1.0  0.54431  0.42326  0.52624  1.0000
  Fe  Fe61      1.0  0.48871  0.59679  0.42474  1.0000
  H   H462      1.0  0.66333  0.59296  0.48627  1.0000
  C   C293      1.0  0.41316  0.63987  0.42966  1.0000
  H   H463      1.0  0.61653  0.76305  0.38395  1.0000
  C   C294      1.0  0.43286  0.65095  0.36119  1.0000
  H   H464      1.0  0.45597  0.41155  0.51911  1.0000
  H   H465      1.0  0.56944  0.79619  0.39004  1.0000
  C   C295      1.0  0.55940  0.79133  0.34334  1.0000
  H   H466      1.0  0.46644  0.47435  0.32412  1.0000
  H   H467      1.0  0.41682  0.33535  0.56169  1.0000
  C   C296      1.0  0.67594  0.69830  0.55745  1.0000
  H   H468      1.0  0.66213  0.48845  0.53911  1.0000
  C   C297      1.0  0.68486  0.73098  0.41488  1.0000
  H   H469      1.0  0.68739  0.62886  0.32690  1.0000
  C   C298      1.0  0.53098  0.75166  0.56653  1.0000
  H   H470      1.0  0.60663  0.73226  0.33328  1.0000
  H   H471      1.0  0.68820  0.74429  0.35982  1.0000
  H   H472      1.0  0.52479  0.51304  0.78081  1.0000
  H   H473      1.0  0.41724  0.53550  0.67483  1.0000
  H   H474      1.0  0.60938  0.40041  0.64178  1.0000
  N   N30       1.0  0.60072  0.70102  0.72737  1.0000
  H   H475      1.0  0.44379  0.36805  0.64448  1.0000
  H   H476      1.0  0.64163  0.31249  0.76418  1.0000
  S   S121      1.0  0.52356  0.36886  0.72403  1.0000
  H   H477      1.0  0.63220  0.72406  0.80038  1.0000
  H   H478      1.0  0.50165  0.48768  0.72455  1.0000
  C   C299      1.0  0.47068  0.68972  0.79372  1.0000
  H   H479      1.0  0.40960  0.51500  0.76579  1.0000
  C   C300      1.0  0.39841  0.53137  0.72353  1.0000
  H   H480      1.0  0.66908  0.74781  0.67631  1.0000
  H   H481      1.0  0.54961  0.53927  0.68994  1.0000
  H   H482      1.0  0.59364  0.46633  0.68886  1.0000
  C   C301      1.0  0.57202  0.48117  0.68236  1.0000
  H   H483      1.0  0.46451  0.58189  0.76392  1.0000
  H   H484      1.0  0.41668  0.39298  0.67077  1.0000
  H   H485      1.0  0.68294  0.41761  0.66851  1.0000
  C   C302      1.0  0.65919  0.40150  0.77585  1.0000
  C   C303      1.0  0.41116  0.36729  0.65422  1.0000
  C   C304      1.0  0.55660  0.68679  0.71095  1.0000
  H   H486      1.0  0.53010  0.65957  0.75579  1.0000
  H   H487      1.0  0.60156  0.52773  0.79489  1.0000
  H   H488      1.0  0.62833  0.76402  0.65276  1.0000
  H   H489      1.0  0.38821  0.33773  0.69878  1.0000
  H   H490      1.0  0.45458  0.67569  0.75968  1.0000
  S   S122      1.0  0.48184  0.70350  0.60425  1.0000
  C   C305      1.0  0.53353  0.50827  0.73400  1.0000
  H   H491      1.0  0.47590  0.60363  0.67098  1.0000
  H   H492      1.0  0.64399  0.67565  0.76018  1.0000
  Fe  Fe62      1.0  0.46116  0.32004  0.80451  1.0000
  N   N31       1.0  0.40643  0.57182  0.72336  1.0000
  H   H493      1.0  0.54052  0.45967  0.67351  1.0000
  H   H494      1.0  0.51838  0.40158  0.57304  1.0000
  S   S123      1.0  0.41518  0.46665  0.64852  1.0000
  H   H495      1.0  0.48616  0.75163  0.72577  1.0000
  N   N32       1.0  0.56352  0.48996  0.74303  1.0000
  S   S124      1.0  0.40727  0.75262  0.64650  1.0000
  H   H496      1.0  0.58986  0.51024  0.63461  1.0000
  H   H497      1.0  0.62973  0.50666  0.75827  1.0000
  H   H498      1.0  0.58544  0.63828  0.78871  1.0000
  C   C306      1.0  0.39367  0.59347  0.66367  1.0000
  C   C307      1.0  0.45421  0.59748  0.71902  1.0000
  H   H499      1.0  0.55604  0.67708  0.66702  1.0000
  C   C308      1.0  0.61156  0.66675  0.74537  1.0000
  Fe  Fe63      1.0  0.42690  0.71977  0.59244  1.0000
  H   H500      1.0  0.46124  0.62811  0.71916  1.0000
  S   S125      1.0  0.66221  0.35867  0.59198  1.0000
  H   H501      1.0  0.67322  0.68537  0.61221  1.0000
  C   C309      1.0  0.65418  0.40579  0.70923  1.0000
  H   H502      1.0  0.36232  0.51014  0.73044  1.0000
  H   H503      1.0  0.41439  0.60053  0.61403  1.0000
  C   C310      1.0  0.60643  0.51967  0.75051  1.0000
  H   H504      1.0  0.59023  0.73816  0.77503  1.0000
  C   C311      1.0  0.59941  0.71303  0.78643  1.0000
  C   C312      1.0  0.63499  0.73731  0.66679  1.0000
  H   H505      1.0  0.63546  0.72963  0.62072  1.0000
  C   C313      1.0  0.61246  0.39582  0.69423  1.0000
  H   H506      1.0  0.54721  0.71181  0.69676  1.0000
  H   H507      1.0  0.62371  0.54932  0.70349  1.0000
  H   H508      1.0  0.61362  0.65752  0.70159  1.0000
  H   H509      1.0  0.51122  0.42673  0.79943  1.0000
  C   C314      1.0  0.57486  0.37988  0.74641  1.0000
  C   C315      1.0  0.48860  0.73265  0.77442  1.0000
  C   C316      1.0  0.54223  0.45064  0.80547  1.0000
  C   C317      1.0  0.37922  0.56480  0.78760  1.0000
  H   H510      1.0  0.39848  0.62370  0.66327  1.0000
  S   S126      1.0  0.52662  0.80322  0.79825  1.0000
  H   H511      1.0  0.38528  0.59478  0.78993  1.0000
  C   C318      1.0  0.36307  0.46434  0.65035  1.0000
  N   N33       1.0  0.39243  0.37099  0.59272  1.0000
  C   C319      1.0  0.35955  0.49605  0.60018  1.0000
  S   S127      1.0  0.35625  0.67526  0.59915  1.0000
  H   H512      1.0  0.36143  0.30530  0.61733  1.0000
  C   C320      1.0  0.38502  0.33562  0.57407  1.0000
  H   H513      1.0  0.35802  0.57420  0.66472  1.0000
  S   S128      1.0  0.58744  0.64211  0.58476  1.0000
  H   H514      1.0  0.56515  0.43753  0.81626  1.0000
  H   H515      1.0  0.49840  0.78639  0.57703  1.0000
  H   H516      1.0  0.59107  0.30776  0.80394  1.0000
  C   C321      1.0  0.57925  0.37451  0.81406  1.0000
  S   S129      1.0  0.68866  0.53622  0.62205  1.0000
  S   S130      1.0  0.41188  0.33557  0.84329  1.0000
  C   C322      1.0  0.49465  0.68363  0.90033  1.0000
  C   C323      1.0  0.43365  0.43041  0.95201  1.0000
  S   S131      1.0  0.42232  0.74807  0.95593  1.0000
  S   S132      1.0  0.67798  0.36561  0.99305  1.0000
  C   C324      1.0  0.57940  0.47339  0.04752  1.0000
  H   H517      1.0  0.52810  0.78969  0.06597  1.0000
  C   C325      1.0  0.47413  0.66533  0.85632  1.0000
  C   C326      1.0  0.63655  0.45576  0.98119  1.0000
  S   S133      1.0  0.55602  0.60353  0.93205  1.0000
  H   H518      1.0  0.37857  0.64214  0.85115  1.0000
  H   H519      1.0  0.57389  0.68624  0.83288  1.0000
  H   H520      1.0  0.58749  0.68754  0.94962  1.0000
  C   C327      1.0  0.43859  0.39525  0.98346  1.0000
  C   C328      1.0  0.61175  0.71116  0.96370  1.0000
  C   C329      1.0  0.63102  0.69983  0.01779  1.0000
  C   C330      1.0  0.67287  0.77220  0.00239  1.0000
  H   H521      1.0  0.67462  0.32145  0.86027  1.0000
  H   H522      1.0  0.60837  0.76184  0.88696  1.0000
  H   H523      1.0  0.46097  0.46112  0.94091  1.0000
  H   H524      1.0  0.53293  0.45547  0.85178  1.0000
  H   H525      1.0  0.36881  0.63354  0.94038  1.0000
  H   H526      1.0  0.55028  0.36270  0.85440  1.0000
  H   H527      1.0  0.49727  0.66497  0.94880  1.0000
  C   C331      1.0  0.63398  0.44989  0.05043  1.0000
  Fe  Fe64      1.0  0.44273  0.78262  0.02483  1.0000
  C   C332      1.0  0.65439  0.59438  0.96411  1.0000
  H   H528      1.0  0.47003  0.39917  0.99544  1.0000
  H   H529      1.0  0.63758  0.60901  0.98295  1.0000
  C   C333      1.0  0.51100  0.72630  0.88229  1.0000
  Fe  Fe65      1.0  0.53136  0.53511  0.98404  1.0000
  H   H530      1.0  0.66349  0.60925  0.90688  1.0000
  H   H531      1.0  0.52575  0.74038  0.91720  1.0000
  Fe  Fe66      1.0  0.55757  0.60419  0.03700  1.0000
  S   S134      1.0  0.48756  0.59331  0.06024  1.0000
  H   H532      1.0  0.54694  0.34394  0.99353  1.0000
  H   H533      1.0  0.65815  0.44854  0.95544  1.0000
  S   S135      1.0  0.38603  0.46983  0.90535  1.0000
  C   C334      1.0  0.62175  0.38634  0.82848  1.0000
  C   C335      1.0  0.36344  0.35108  0.97895  1.0000
  Fe  Fe67      1.0  0.38627  0.78417  0.92159  1.0000
  C   C336      1.0  0.62368  0.75315  0.92817  1.0000
  S   S136      1.0  0.55672  0.50586  0.92956  1.0000
  C   C337      1.0  0.65408  0.78364  0.94772  1.0000
  S   S137      1.0  0.45959  0.51836  0.00341  1.0000
  C   C338      1.0  0.61171  0.47193  0.94445  1.0000
  H   H534      1.0  0.62557  0.31699  0.90466  1.0000
  H   H535      1.0  0.48929  0.30603  0.03260  1.0000
  C   C339      1.0  0.40333  0.35554  0.99742  1.0000
  C   C340      1.0  0.35806  0.38624  0.94935  1.0000
  H   H536      1.0  0.53946  0.38807  0.04586  1.0000
  Fe  Fe68      1.0  0.48427  0.58695  0.95878  1.0000
  H   H537      1.0  0.61502  0.47781  0.89031  1.0000
  C   C341      1.0  0.58383  0.48155  0.97733  1.0000
  S   S138      1.0  0.45326  0.61215  0.87853  1.0000
  C   C342      1.0  0.66176  0.73036  0.03689  1.0000
  H   H538      1.0  0.62558  0.38364  0.87992  1.0000
  C   C343      1.0  0.39314  0.42592  0.93642  1.0000
  H   H539      1.0  0.62956  0.56113  0.97912  1.0000
  S   S139      1.0  0.41019  0.31168  0.03281  1.0000
  S   S140      1.0  0.61727  0.64771  0.06150  1.0000
  C   C344      1.0  0.52360  0.31607  0.04083  1.0000
  H   H540      1.0  0.38762  0.54800  0.83379  1.0000
  H   H541      1.0  0.59818  0.36557  0.06611  1.0000
  C   C345      1.0  0.50825  0.75072  0.81913  1.0000
  C   C346      1.0  0.79706  0.83107  0.13580  1.0000
  H   H542      1.0  0.83587  0.88206  0.29680  1.0000
  H   H543      1.0  0.89228  0.10501  0.12893  1.0000
  S   S141      1.0  0.72792  0.29291  0.07446  1.0000
  H   H544      1.0  0.85298  0.26314  0.14773  1.0000
  C   C347      1.0  0.92563  0.88701  0.20943  1.0000
  S   S142      1.0  0.80932  0.88307  0.10823  1.0000
  H   H545      1.0  0.88007  0.15814  0.15010  1.0000
  H   H546      1.0  0.93959  0.99308  0.09538  1.0000
  H   H547      1.0  0.90084  0.09472  0.30649  1.0000
  H   H548      1.0  0.83580  0.85253  0.24792  1.0000
  H   H549      1.0  0.86249  0.15154  0.23705  1.0000
  H   H550      1.0  0.83825  0.96107  0.11835  1.0000
  S   S143      1.0  0.87161  0.98421  0.29424  1.0000
  N   N34       1.0  0.89929  0.88646  0.26786  1.0000
  H   H551      1.0  0.87732  0.00032  0.14289  1.0000
  C   C348      1.0  0.76586  0.17736  0.14366  1.0000
  C   C349      1.0  0.86208  0.99502  0.09968  1.0000
  S   S144      1.0  0.99805  0.15972  0.22849  1.0000
  C   C350      1.0  0.98722  0.06684  0.31344  1.0000
  H   H552      1.0  0.96431  0.04417  0.23550  1.0000
  C   C351      1.0  0.92457  0.92565  0.27743  1.0000
  H   H553      1.0  0.93065  0.95335  0.23132  1.0000
  H   H554      1.0  0.72937  0.21787  0.17901  1.0000
  C   C352      1.0  0.81695  0.07870  0.22308  1.0000
  H   H555      1.0  0.86625  0.84714  0.11997  1.0000
  H   H556      1.0  0.86735  0.21769  0.30084  1.0000
  S   S145      1.0  0.95312  0.23391  0.23298  1.0000
  H   H557      1.0  0.76059  0.20788  0.24050  1.0000
  H   H558      1.0  0.77939  0.26026  0.17943  1.0000
  H   H559      1.0  0.75885  0.15513  0.19766  1.0000
  C   C353      1.0  0.88145  0.14403  0.20440  1.0000
  H   H560      1.0  0.81441  0.09109  0.16880  1.0000
  C   C354      1.0  0.83414  0.23048  0.15185  1.0000
  H   H561      1.0  0.85497  0.22658  0.11531  1.0000
  H   H562      1.0  0.80263  0.04433  0.24072  1.0000
  Fe  Fe69      1.0  0.01096  0.22152  0.22602  1.0000
  H   H563      1.0  0.91695  0.16006  0.20622  1.0000
  C   C355      1.0  0.83222  0.82218  0.13529  1.0000
  H   H564      1.0  0.90818  0.85721  0.20259  1.0000
  H   H565      1.0  0.86097  0.90838  0.20603  1.0000
  H   H566      1.0  0.93168  0.91294  0.16031  1.0000
  H   H567      1.0  0.95886  0.89132  0.21791  1.0000
  C   C356      1.0  0.95548  0.04138  0.28759  1.0000
  C   C357      1.0  0.76383  0.22707  0.18606  1.0000
  N   N35       1.0  0.86380  0.09859  0.22825  1.0000
  C   C358      1.0  0.85622  0.88231  0.25375  1.0000
  H   H568      1.0  0.87709  0.05641  0.19851  1.0000
  N   N36       1.0  0.78997  0.22107  0.13674  1.0000
  H   H569      1.0  0.84217  0.01152  0.08902  1.0000
  H   H570      1.0  0.83075  0.20949  0.20503  1.0000
  H   H571      1.0  0.95768  0.93019  0.28659  1.0000
  H   H572      1.0  0.92594  0.10283  0.18990  1.0000
  H   H573      1.0  0.73302  0.16975  0.13013  1.0000
  C   C359      1.0  0.89091  0.09034  0.18449  1.0000
  H   H574      1.0  0.78532  0.17133  0.10884  1.0000
  C   C360      1.0  0.91598  0.19669  0.31311  1.0000
  H   H575      1.0  0.90065  0.95302  0.07147  1.0000
  C   C361      1.0  0.86580  0.08136  0.30089  1.0000
  H   H576      1.0  0.02056  0.08914  0.28146  1.0000
  H   H577      1.0  0.79559  0.08435  0.25548  1.0000
  H   H578      1.0  0.72561  0.80524  0.15746  1.0000
  H   H579      1.0  0.98843  0.30250  0.08776  1.0000
  C   C362      1.0  0.97549  0.06473  0.37946  1.0000
  H   H580      1.0  0.92324  0.03447  0.47204  1.0000
  S   S146      1.0  0.75973  0.88661  0.35584  1.0000
  H   H581      1.0  0.84693  0.08822  0.33508  1.0000
  H   H582      1.0  0.96622  0.98200  0.44960  1.0000
  C   C363      1.0  0.92628  0.16744  0.35611  1.0000
  C   C364      1.0  0.96486  0.82012  0.42339  1.0000
  Fe  Fe70      1.0  0.77222  0.83775  0.42713  1.0000
  S   S147      1.0  0.83228  0.88146  0.45019  1.0000
  H   H583      1.0  0.90970  0.82488  0.55649  1.0000
  S   S148      1.0  0.71258  0.05571  0.46409  1.0000
  S   S149      1.0  0.82212  0.09929  0.52227  1.0000
  C   C365      1.0  0.97231  0.95951  0.49017  1.0000
  H   H584      1.0  0.86785  0.98733  0.42820  1.0000
  C   C366      1.0  0.90122  0.00920  0.39631  1.0000
  H   H585      1.0  0.95663  0.16747  0.34062  1.0000
  S   S150      1.0  0.01283  0.10236  0.40472  1.0000
  H   H586      1.0  0.81477  0.16359  0.41317  1.0000
  Fe  Fe71      1.0  0.81743  0.93005  0.38302  1.0000
  C   C367      1.0  0.89737  0.13778  0.42015  1.0000
  S   S151      1.0  0.77480  0.92710  0.47115  1.0000
  H   H587      1.0  0.85146  0.04692  0.32118  1.0000
  C   C368      1.0  0.99141  0.00095  0.55816  1.0000
  Fe  Fe72      1.0  0.75194  0.08706  0.52753  1.0000
  H   H588      1.0  0.98251  0.94301  0.46476  1.0000
  H   H589      1.0  0.99757  0.83524  0.38966  1.0000
  C   C369      1.0  0.84584  0.16458  0.39731  1.0000
  S   S152      1.0  0.72478  0.82519  0.51964  1.0000
  C   C370      1.0  0.93264  0.03560  0.42142  1.0000
  S   S153      1.0  0.00043  0.87830  0.47876  1.0000
  H   H590      1.0  0.90631  0.92581  0.32237  1.0000
  C   C371      1.0  0.95760  0.83430  0.47326  1.0000
  C   C372      1.0  0.91235  0.01300  0.32873  1.0000
  C   C373      1.0  0.87551  0.19510  0.33361  1.0000
  S   S154      1.0  0.72920  0.13466  0.50728  1.0000
  N   N37       1.0  0.00700  0.98081  0.52259  1.0000
  H   H591      1.0  0.98541  0.02498  0.52118  1.0000
  C   C374      1.0  0.85721  0.13635  0.44107  1.0000
  C   C375      1.0  0.91547  0.81389  0.51807  1.0000
  Fe  Fe73      1.0  0.71814  0.87855  0.44992  1.0000
  H   H592      1.0  0.90615  0.11571  0.45297  1.0000
  H   H593      1.0  0.86985  0.84813  0.37627  1.0000
  Fe  Fe74      1.0  0.78399  0.87389  0.53646  1.0000
  H   H594      1.0  0.92255  0.85376  0.34435  1.0000
  H   H595      1.0  0.94002  0.93593  0.52868  1.0000
  H   H596      1.0  0.98752  0.25036  0.56091  1.0000
  C   C376      1.0  0.89083  0.85070  0.33115  1.0000
  H   H597      1.0  0.87262  0.82044  0.32565  1.0000
  H   H598      1.0  0.92723  0.10261  0.74065  1.0000
  C   C377      1.0  0.99387  0.23109  0.60460  1.0000
  H   H599      1.0  0.72585  0.16642  0.74942  1.0000
  C   C378      1.0  0.85516  0.06624  0.69551  1.0000
  H   H600      1.0  0.01677  0.01706  0.58349  1.0000
  H   H601      1.0  0.95504  0.17729  0.77861  1.0000
  S   S155      1.0  0.78626  0.86008  0.64731  1.0000
  H   H602      1.0  0.70538  0.85052  0.75210  1.0000
  H   H603      1.0  0.73893  0.10957  0.68704  1.0000
  H   H604      1.0  0.82677  0.21726  0.71988  1.0000
  H   H605      1.0  0.71279  0.89585  0.60107  1.0000
  C   C379      1.0  0.97569  0.19002  0.72734  1.0000
  H   H606      1.0  0.96731  0.10643  0.67666  1.0000
  H   H607      1.0  0.83418  0.14476  0.70663  1.0000
  H   H608      1.0  0.92365  0.05604  0.73657  1.0000
  H   H609      1.0  0.72610  0.91910  0.66263  1.0000
  Fe  Fe75      1.0  0.01247  0.03119  0.81094  1.0000
  C   C380      1.0  0.91453  0.13302  0.61426  1.0000
  C   C381      1.0  0.01576  0.94992  0.57316  1.0000
  H   H610      1.0  0.01546  0.16020  0.76010  1.0000
  C   C382      1.0  0.96746  0.21492  0.67088  1.0000
  C   C383      1.0  0.93140  0.08849  0.70465  1.0000
  H   H611      1.0  0.99506  0.95229  0.80839  1.0000
  H   H612      1.0  0.95030  0.15177  0.58564  1.0000
  H   H613      1.0  0.83216  0.06613  0.66058  1.0000
  C   C384      1.0  0.80614  0.13789  0.74645  1.0000
  H   H614      1.0  0.72005  0.11596  0.79501  1.0000
  C   C385      1.0  0.90812  0.06964  0.61007  1.0000
  N   N38       1.0  0.78098  0.15907  0.71588  1.0000
  Fe  Fe76      1.0  0.91755  0.23988  0.77101  1.0000
  H   H615      1.0  0.84475  0.03317  0.72823  1.0000
  H   H616      1.0  0.98479  0.92442  0.61292  1.0000
  S   S156      1.0  0.69930  0.04244  0.62493  1.0000
  S   S157      1.0  0.92178  0.22288  0.68122  1.0000
  H   H617      1.0  0.89452  0.13516  0.57527  1.0000
  C   C386      1.0  0.76189  0.14387  0.66367  1.0000
  H   H618      1.0  0.90016  0.03691  0.63993  1.0000
  H   H619      1.0  0.84957  0.08038  0.73053  1.0000
  H   H620      1.0  0.83893  0.21276  0.64050  1.0000
  C   C387      1.0  0.69860  0.90304  0.64032  1.0000
  C   C388      1.0  0.74463  0.14989  0.77056  1.0000
  H   H621      1.0  0.78427  0.10341  0.77168  1.0000
  H   H622      1.0  0.69070  0.82644  0.69163  1.0000
  C   C389      1.0  0.00953  0.18011  0.71685  1.0000
  H   H623      1.0  0.95987  0.97783  0.59850  1.0000
  N   N39       1.0  0.90229  0.08931  0.65612  1.0000
  H   H624      1.0  0.90878  0.14831  0.64694  1.0000
  H   H625      1.0  0.78841  0.15042  0.62148  1.0000
  C   C390      1.0  0.81123  0.20461  0.68239  1.0000
  H   H626      1.0  0.79309  0.22141  0.65920  1.0000
  H   H627      1.0  0.74230  0.15885  0.63977  1.0000
  H   H628      1.0  0.79686  0.80546  0.59253  1.0000
  C   C391      1.0  0.76872  0.80661  0.68514  1.0000
  H   H629      1.0  0.82096  0.14827  0.78634  1.0000
  H   H630      1.0  0.75781  0.15990  0.81191  1.0000
  H   H631      1.0  0.79500  0.84795  0.81320  1.0000
  S   S158      1.0  0.92427  0.30211  0.75435  1.0000
  H   H632      1.0  0.88566  0.06888  0.57407  1.0000
  H   H633      1.0  0.94305  0.08709  0.57799  1.0000
  H   H634      1.0  0.81768  0.24735  0.02724  1.0000
  S   S159      1.0  0.90129  0.27076  0.92381  1.0000
  H   H635      1.0  0.85330  0.96681  0.99701  1.0000
  H   H636      1.0  0.74366  0.13776  0.03320  1.0000
  H   H637      1.0  0.90372  0.15166  0.89806  1.0000
  S   S160      1.0  0.94646  0.97757  0.88114  1.0000
  H   H638      1.0  0.70740  0.22487  0.84238  1.0000
  Fe  Fe77      1.0  0.96191  0.30012  0.83727  1.0000
  C   C392      1.0  0.81265  0.06199  0.91603  1.0000
  H   H639      1.0  0.82711  0.85598  0.97391  1.0000
  C   C393      1.0  0.98599  0.89409  0.88133  1.0000
  C   C394      1.0  0.84703  0.11456  0.98559  1.0000
  C   C395      1.0  0.92248  0.98727  0.05401  1.0000
  C   C396      1.0  0.80737  0.82343  0.97784  1.0000
  Fe  Fe78      1.0  0.75078  0.96314  0.95059  1.0000
  C   C397      1.0  0.94959  0.93126  0.90431  1.0000
  S   S161      1.0  0.80074  0.27168  0.83787  1.0000
  S   S162      1.0  0.76830  0.91497  0.94627  1.0000
  C   C398      1.0  0.85435  0.09781  0.88644  1.0000
  H   H640      1.0  0.80196  0.20897  0.95590  1.0000
  H   H641      1.0  0.89980  0.01294  0.93363  1.0000
  C   C399      1.0  0.87474  0.00089  0.98218  1.0000
  C   C400      1.0  0.97827  0.92814  0.85964  1.0000
  C   C401      1.0  0.75833  0.22215  0.89491  1.0000
  H   H642      1.0  0.85324  0.01554  0.97025  1.0000
  H   H643      1.0  0.02155  0.05127  0.01224  1.0000
  C   C402      1.0  0.87155  0.12392  0.92136  1.0000
  H   H644      1.0  0.94853  0.99732  0.00794  1.0000
  C   C403      1.0  0.92539  0.89818  0.96869  1.0000
  Fe  Fe79      1.0  0.89569  0.21047  0.92804  1.0000
  C   C404      1.0  0.93198  0.86320  0.98965  1.0000
  H   H645      1.0  0.02109  0.28209  0.91637  1.0000
  H   H646      1.0  0.87822  0.86977  0.86841  1.0000
  C   C405      1.0  0.69178  0.14188  0.98454  1.0000
  C   C406      1.0  0.76851  0.19729  0.94839  1.0000
  H   H647      1.0  0.75531  0.02528  0.00264  1.0000
  C   C407      1.0  0.92664  0.05485  0.01391  1.0000
  S   S163      1.0  0.86624  0.15116  0.02255  1.0000
  S   S164      1.0  0.79245  0.02886  0.87290  1.0000
  S   S165      1.0  0.85408  0.20558  0.85103  1.0000
  H   H648      1.0  0.87342  0.10545  0.83658  1.0000
  C   C408      1.0  0.96342  0.86185  0.94666  1.0000
  S   S166      1.0  0.97851  0.82267  0.97525  1.0000
  H   H649      1.0  0.85938  0.83532  0.82440  1.0000
  H   H650      1.0  0.90824  0.07262  0.99956  1.0000
  C   C409      1.0  0.79291  0.84795  0.86589  1.0000
  C   C410      1.0  0.80560  0.07833  0.01590  1.0000
  H   H651      1.0  0.81261  0.88091  0.85991  1.0000
  C   C411      1.0  0.85645  0.83679  0.87597  1.0000
  N   N40       1.0  0.89649  0.00951  0.03747  1.0000
  Fe  Fe80      1.0  0.86347  0.26760  0.84128  1.0000
  H   H652      1.0  0.76363  0.24165  0.05079  1.0000
  H   H653      1.0  0.90273  0.90028  0.00306  1.0000
  S   S167      1.0  0.95929  0.23983  0.84794  1.0000
  N   N41       1.0  0.80960  0.82151  0.90927  1.0000
  S   S168      1.0  0.74478  0.94449  0.06435  1.0000
  C   C412      1.0  0.71490  0.20650  0.88547  1.0000
  C   C413      1.0  0.73548  0.15702  0.99247  1.0000
  H   H654      1.0  0.95366  0.06677  0.96788  1.0000
  C   C414      1.0  0.78827  0.05215  0.98080  1.0000
  H   H655      1.0  0.75738  0.83693  0.88890  1.0000
  H   H656      1.0  0.00991  0.89295  0.84755  1.0000
  H   H657      1.0  0.87042  0.81799  0.90783  1.0000
  Fe  Fe81      1.0  0.69485  0.87357  0.96596  1.0000
  H   H658      1.0  0.81160  0.28244  0.05933  1.0000
  H   H659      1.0  0.77243  0.81110  0.00545  1.0000
  H   H660      1.0  0.94294  0.06250  0.05497  1.0000
  Fe  Fe82      1.0  0.75664  0.89307  0.06102  1.0000
  H   H661      1.0  0.91449  0.83827  0.04018  1.0000
  H   H662      1.0  0.01635  0.90122  0.03713  1.0000
  H   H663      1.0  0.78595  0.07159  0.06460  1.0000
  C   C415      1.0  0.79608  0.24932  0.06549  1.0000
  H   H664      1.0  0.82067  0.80456  0.01123  1.0000
  C   C416      1.0  0.76726  0.41742  0.24852  1.0000
  H   H665      1.0  0.83044  0.44928  0.13085  1.0000
  H   H666      1.0  0.75333  0.48190  0.18831  1.0000
  H   H667      1.0  0.71000  0.73254  0.18706  1.0000
  H   H668      1.0  0.01727  0.62400  0.24286  1.0000
  S   S169      1.0  0.76882  0.69835  0.18474  1.0000
  H   H669      1.0  0.78042  0.39969  0.28495  1.0000
  H   H670      1.0  0.84250  0.51537  0.22871  1.0000
  S   S170      1.0  0.91853  0.63707  0.23817  1.0000
  H   H671      1.0  0.95311  0.57139  0.09845  1.0000
  H   H672      1.0  0.01315  0.66999  0.23243  1.0000
  H   H673      1.0  0.78898  0.48027  0.28896  1.0000
  C   C417      1.0  0.92150  0.56443  0.28276  1.0000
  C   C418      1.0  0.93436  0.59906  0.15913  1.0000
  H   H674      1.0  0.86756  0.49553  0.14134  1.0000
  H   H675      1.0  0.98987  0.36440  0.09931  1.0000
  H   H676      1.0  0.01902  0.68317  0.10950  1.0000
  H   H677      1.0  0.77152  0.46906  0.12273  1.0000
  C   C419      1.0  0.94371  0.56916  0.14991  1.0000
  C   C420      1.0  0.84011  0.46297  0.16968  1.0000
  Fe  Fe83      1.0  0.82975  0.70129  0.13382  1.0000
  Fe  Fe84      1.0  0.00942  0.53123  0.10340  1.0000
  C   C421      1.0  0.82349  0.78122  0.15154  1.0000
  H   H678      1.0  0.80789  0.51664  0.13038  1.0000
  C   C422      1.0  0.78285  0.48325  0.16054  1.0000
  H   H679      1.0  0.85460  0.44585  0.20432  1.0000
  S   S171      1.0  0.95313  0.49937  0.19672  1.0000
  C   C423      1.0  0.75295  0.79872  0.15528  1.0000
  C   C424      1.0  0.77947  0.74894  0.16962  1.0000
  C   C425      1.0  0.92913  0.53374  0.27371  1.0000
  S   S172      1.0  0.82938  0.64284  0.13933  1.0000
  C   C426      1.0  0.94106  0.53652  0.20731  1.0000
  C   C427      1.0  0.74412  0.75754  0.17273  1.0000
  H   H680      1.0  0.93669  0.62437  0.11473  1.0000
  Fe  Fe85      1.0  0.89908  0.67317  0.15234  1.0000
  N   N42       1.0  0.80184  0.46137  0.20889  1.0000
  S   S173      1.0  0.89740  0.72952  0.15516  1.0000
  C   C428      1.0  0.81715  0.48186  0.25702  1.0000
  H   H681      1.0  0.83288  0.46690  0.29293  1.0000
  C   C429      1.0  0.92434  0.59723  0.22556  1.0000
  H   H682      1.0  0.85086  0.77474  0.14941  1.0000
  H   H683      1.0  0.75420  0.40101  0.21404  1.0000
  H   H684      1.0  0.73817  0.41497  0.27964  1.0000
  H   H685      1.0  0.70875  0.58007  0.09090  1.0000
  H   H686      1.0  0.73420  0.59176  0.47232  1.0000
  H   H687      1.0  0.93957  0.58437  0.43496  1.0000
  C   C430      1.0  0.69345  0.49097  0.55005  1.0000
  H   H688      1.0  0.93512  0.77466  0.37940  1.0000
  C   C431      1.0  0.74683  0.68535  0.36691  1.0000
  H   H689      1.0  0.84744  0.76464  0.54591  1.0000
  H   H690      1.0  0.96368  0.63564  0.43539  1.0000
  H   H691      1.0  0.91380  0.56272  0.33419  1.0000
  H   H692      1.0  0.91706  0.66927  0.43421  1.0000
  H   H693      1.0  0.78254  0.63529  0.40657  1.0000
  H   H694      1.0  0.82366  0.56749  0.45147  1.0000
  H   H695      1.0  0.76186  0.64093  0.48004  1.0000
  C   C432      1.0  0.95733  0.70360  0.52221  1.0000
  H   H696      1.0  0.86247  0.58489  0.37298  1.0000
  C   C433      1.0  0.93712  0.61346  0.41912  1.0000
  H   H697      1.0  0.75796  0.70174  0.40207  1.0000
  C   C434      1.0  0.92958  0.78589  0.41760  1.0000
  N   N43       1.0  0.89240  0.60516  0.44937  1.0000
  S   S174      1.0  0.77838  0.45113  0.50684  1.0000
  H   H698      1.0  0.85783  0.54369  0.44916  1.0000
  S   S175      1.0  0.84379  0.72189  0.45764  1.0000
  H   H699      1.0  0.89411  0.65642  0.36639  1.0000
  H   H700      1.0  0.95404  0.72603  0.47951  1.0000
  Fe  Fe86      1.0  0.72150  0.39497  0.50207  1.0000
  H   H701      1.0  0.90865  0.61255  0.54210  1.0000
  C   C435      1.0  0.88474  0.58894  0.52530  1.0000
  C   C436      1.0  0.88737  0.76567  0.46226  1.0000
  H   H702      1.0  0.85776  0.63996  0.44765  1.0000
  C   C437      1.0  0.85767  0.57394  0.42992  1.0000
  C   C438      1.0  0.70915  0.61917  0.35655  1.0000
  C   C439      1.0  0.99194  0.69475  0.51345  1.0000
  H   H703      1.0  0.94519  0.62768  0.36186  1.0000
  H   H704      1.0  0.69020  0.58458  0.38398  1.0000
  N   N44       1.0  0.72236  0.63953  0.40533  1.0000
  C   C440      1.0  0.88030  0.77971  0.51232  1.0000
  S   S176      1.0  0.77090  0.79065  0.38920  1.0000
  C   C441      1.0  0.89013  0.64433  0.42337  1.0000
  C   C442      1.0  0.75390  0.47535  0.53800  1.0000
  H   H705      1.0  0.74548  0.74361  0.53456  1.0000
  C   C443      1.0  0.71354  0.47243  0.52379  1.0000
  C   C444      1.0  0.75155  0.62618  0.44270  1.0000
  H   H706      1.0  0.77731  0.69558  0.32831  1.0000
  H   H707      1.0  0.73878  0.62746  0.31825  1.0000
  C   C445      1.0  0.71705  0.73086  0.51351  1.0000
  C   C446      1.0  0.72150  0.74684  0.44235  1.0000
  S   S177      1.0  0.72542  0.33862  0.50363  1.0000
  H   H708      1.0  0.88848  0.56061  0.54604  1.0000
  H   H709      1.0  0.72585  0.69674  0.33828  1.0000
  H   H710      1.0  0.69757  0.45579  0.49270  1.0000
  H   H711      1.0  0.85055  0.58016  0.55034  1.0000
  H   H712      1.0  0.69059  0.64279  0.49208  1.0000
  H   H713      1.0  0.92724  0.50858  0.31807  1.0000
  Fe  Fe87      1.0  0.80724  0.67872  0.56711  1.0000
  Fe  Fe88      1.0  0.73833  0.58724  0.64783  1.0000
  S   S178      1.0  0.71248  0.41313  0.79089  1.0000
  S   S179      1.0  0.88589  0.62067  0.71597  1.0000
  C   C447      1.0  0.98076  0.55025  0.73056  1.0000
  H   H714      1.0  0.84115  0.35999  0.69942  1.0000
  S   S180      1.0  0.72182  0.66737  0.78155  1.0000
  C   C448      1.0  0.99013  0.69661  0.75661  1.0000
  S   S181      1.0  0.75341  0.58792  0.74939  1.0000
  H   H715      1.0  0.84461  0.42562  0.69942  1.0000
  C   C449      1.0  0.92542  0.68186  0.58517  1.0000
  H   H716      1.0  0.76845  0.52995  0.63929  1.0000
  C   C450      1.0  0.77399  0.49662  0.57889  1.0000
  H   H717      1.0  0.75220  0.31808  0.80537  1.0000
  C   C451      1.0  0.92850  0.65170  0.63996  1.0000
  H   H718      1.0  0.96718  0.62170  0.67464  1.0000
  H   H719      1.0  0.90107  0.66904  0.79703  1.0000
  H   H720      1.0  0.75092  0.37373  0.62653  1.0000
  Fe  Fe89      1.0  0.75411  0.64950  0.71227  1.0000
  Fe  Fe90      1.0  0.82567  0.62604  0.69109  1.0000
  H   H721      1.0  0.94620  0.54038  0.72351  1.0000
  N   N45       1.0  0.98290  0.54822  0.80114  1.0000
  H   H722      1.0  0.99227  0.52990  0.71884  1.0000
  H   H723      1.0  0.75700  0.36583  0.80600  1.0000
  S   S182      1.0  0.82737  0.68741  0.66195  1.0000
  H   H724      1.0  0.89806  0.68805  0.59023  1.0000
  C   C452      1.0  0.81296  0.41664  0.68212  1.0000
  S   S183      1.0  0.80997  0.61984  0.59343  1.0000
  H   H725      1.0  0.81894  0.36689  0.62390  1.0000
  C   C453      1.0  0.73958  0.72081  0.74417  1.0000
  C   C454      1.0  0.77424  0.35248  0.78419  1.0000
  C   C455      1.0  0.74363  0.36066  0.68387  1.0000
  H   H726      1.0  0.72156  0.32640  0.70267  1.0000
  H   H727      1.0  0.80446  0.49793  0.59163  1.0000
  H   H728      1.0  0.96854  0.66520  0.75716  1.0000
  H   H729      1.0  0.82155  0.43142  0.62466  1.0000
  C   C456      1.0  0.96475  0.64478  0.63244  1.0000
  H   H730      1.0  0.79489  0.43052  0.70094  1.0000
  H   H731      1.0  0.93027  0.72252  0.73710  1.0000
  H   H732      1.0  0.02189  0.69797  0.76824  1.0000
  N   N46       1.0  0.78521  0.37084  0.70793  1.0000
  C   C457      1.0  0.80985  0.35352  0.68136  1.0000
  S   S184      1.0  0.73407  0.64600  0.61479  1.0000
  H   H733      1.0  0.72456  0.37398  0.70163  1.0000
  C   C458      1.0  0.77804  0.78733  0.64576  1.0000
  C   C459      1.0  0.76373  0.74453  0.67539  1.0000
  C   C460      1.0  0.74391  0.78275  0.75377  1.0000
  H   H734      1.0  0.98648  0.60733  0.78243  1.0000
  H   H735      1.0  0.00323  0.58237  0.69114  1.0000
  C   C461      1.0  0.72910  0.73978  0.78315  1.0000
  C   C462      1.0  0.92494  0.70125  0.79105  1.0000
  C   C463      1.0  0.75377  0.51499  0.60548  1.0000
  H   H736      1.0  0.77131  0.72989  0.64479  1.0000
  C   C464      1.0  0.99647  0.66618  0.56918  1.0000
  C   C465      1.0  0.71357  0.51230  0.59088  1.0000
  H   H737      1.0  0.78944  0.31899  0.69968  1.0000
  H   H738      1.0  0.73552  0.79720  0.78394  1.0000
  H   H739      1.0  0.99794  0.71972  0.70316  1.0000
  H   H740      1.0  0.80483  0.35830  0.80410  1.0000
  H   H741      1.0  0.00385  0.77108  0.75323  1.0000
  C   C466      1.0  0.96536  0.57382  0.81663  1.0000
  H   H742      1.0  0.93049  0.56378  0.81055  1.0000
  C   C467      1.0  0.99640  0.74645  0.80495  1.0000
  N   N47       1.0  0.96735  0.70438  0.80734  1.0000
  C   C468      1.0  0.71656  0.58103  0.96267  1.0000
  S   S185      1.0  0.83722  0.65021  0.94900  1.0000
  H   H743      1.0  0.75478  0.64815  0.99497  1.0000
  S   S186      1.0  0.99987  0.54890  0.99608  1.0000
  S   S187      1.0  0.74898  0.46620  0.92554  1.0000
  H   H744      1.0  0.92010  0.49149  0.84940  1.0000
  C   C469      1.0  0.95584  0.50446  0.85131  1.0000
  Fe  Fe91      1.0  0.86111  0.67723  0.02624  1.0000
  H   H745      1.0  0.70843  0.65819  0.99395  1.0000
  C   C470      1.0  0.87656  0.56253  0.00044  1.0000
  Fe  Fe92      1.0  0.80114  0.45040  0.96215  1.0000
  H   H746      1.0  0.96834  0.48423  0.84172  1.0000
  H   H747      1.0  0.99858  0.38830  0.00703  1.0000
  H   H748      1.0  0.93748  0.64074  0.87990  1.0000
  H   H749      1.0  0.74586  0.58283  0.98409  1.0000
  H   H750      1.0  0.98033  0.75285  0.84369  1.0000
  H   H751      1.0  0.93916  0.67678  0.91654  1.0000
  S   S188      1.0  0.93122  0.70329  0.03902  1.0000
  N   N48       1.0  0.69392  0.59894  0.99206  1.0000
  C   C471      1.0  0.84017  0.55769  0.90702  1.0000
  S   S189      1.0  0.86818  0.50050  0.95860  1.0000
  H   H752      1.0  0.69366  0.54765  0.97376  1.0000
  C   C472      1.0  0.01577  0.38403  0.04971  1.0000
  H   H753      1.0  0.98909  0.67521  0.89230  1.0000
  H   H754      1.0  0.69616  0.79558  0.01785  1.0000
  S   S190      1.0  0.85579  0.73357  0.01911  1.0000
  H   H755      1.0  0.73712  0.66122  0.91663  1.0000
  C   C473      1.0  0.95788  0.67292  0.87713  1.0000
  H   H756      1.0  0.72908  0.59811  0.90553  1.0000
  H   H757      1.0  0.87890  0.60890  0.03691  1.0000
  H   H758      1.0  0.95693  0.50171  0.90516  1.0000
  C   C474      1.0  0.86174  0.54342  0.95455  1.0000
  C   C475      1.0  0.83229  0.59012  0.90641  1.0000
  C   C476      1.0  0.72491  0.64364  0.97360  1.0000
  H   H759      1.0  0.96445  0.57102  0.87082  1.0000
  H   H760      1.0  0.99882  0.32653  0.99500  1.0000
  C   C477      1.0  0.84584  0.60841  0.95349  1.0000
  Fe  Fe93      1.0  0.92363  0.75756  0.04032  1.0000
  H   H761      1.0  0.89426  0.55229  0.03600  1.0000
  H   H762      1.0  0.83033  0.54437  0.86942  1.0000
  C   C478      1.0  0.78178  0.77788  0.91750  1.0000
  Fe  Fe94      1.0  0.72697  0.41279  0.89274  1.0000
  S   S191      1.0  0.78333  0.40090  0.92036  1.0000
  H   H763      1.0  0.90790  0.70897  0.82617  1.0000
  Fe  Fe95      1.0  0.73530  0.35652  0.02318  1.0000
  Fe  Fe96      1.0  0.70494  0.41791  0.02883  1.0000
  H   H764      1.0  0.81610  0.60131  0.86865  1.0000
  C   C479      1.0  0.86785  0.59451  0.00091  1.0000
  H   H765      1.0  0.78476  0.77480  0.86732  1.0000
  H   H766      1.0  0.79176  0.75667  0.95324  1.0000
  C   C480      1.0  0.01505  0.32384  0.03912  1.0000
  H   H767      1.0  0.70982  0.72130  0.83616  1.0000
  H   H768      1.0  0.74583  0.76606  0.93905  1.0000
  S   S192      1.0  0.75786  0.40464  0.06759  1.0000
