data_image0
_chemical_formula_structural       HSFeCSH2SHCFeS2FeS2FeS2FeSFeS4C6H5C2SCHFeCH7C7H6C2H2C3HNC4H13C2H3CH2SH6FeN2HCNC2HCHCH6CH2C3H3FeHCHSFeC2S2CHCH2SCHFeCH2SHCH2CHCHNCH5NH3CH5C2SCH2CFeHSHC3SFeS2FeS2FeSFeS3FeS2CH3SH3CH2CHC6H4CHCHSCNH5C6H5SCH5SNHNC2HC4HSFeH7CH2C4HCH3CHSCHCH7CH2FeCH2FeC2HC2H3NCHCHCH2CH2SCHSCSH2FeSHSCHCHNCHC2H2CHC2HCH7FeS2HCHFeSHSH2CHSFeCH2CHNC2H2CHSH2NH3SH3SCFeHFeCSHCH2SC8H4FeHCSH3C2H6SHCNCHSH6SHCHSCHNH2CH5C3HSCHCSH2SHFeS2CH2CNH2C2HFeSH3CNC2NH4SCH2SFeC6H8CHC2HCH2CHCFeCH5CHCHS3CH5CHCSFeS2FeS2FeSFeS4H4FeS2FeS2FeSFeS3C6H4C6H4C2HC6H6CH8C3H4SCH2CHCHFeHSHNH2C2H2CFeHSHCH3C3HCH3CNCH2CHNH2CH3C2NC4H5C2H2CH2CHCH3CH2NH5C2HCHSFe2SFeS2FeS2FeSFeS3CFeHNSHFeS2FeS2FeSFeS3C3HCHC6H3C3H2C6H5CH4NCH3C6H4CHCHCSH2CH4CSNC4H12CNH5CH2SC3H13C2H4CH2CH4C2FeSHFeS2FeS2FeSFeS3FeSC6H5CHC6H4CSH4C2H7CHSH4CHSN2H3NSH3CH2NC4H7CH5C2HC3H4SC2HFeCHCH3C2H2CH7FeCSH2SFeS2FeS2FeSFeS3HS2H2C2H2C6H5CH3C6H5CH5CHC2NHCH4C2HNH3CHCNHC2HCH3CH2C4HNH8C3NHCH3FeH7CFeS2FeS2FeSFeS3FeSNC2HFeS2FeHS4HC2H3CH2C6H4C6H4CH3FeHC3H2CHC2H6CHC2HCHCH3CHCNHCHCHFeH2N2C4H11SCHNCH5CH3CSC3H4FeHCFeH2C2H4C3HCFeS2FeS2FeSFeS3CFeHSCHSHFeS2CH3CH5C6H4CH4C6H4C2HCSH2CNC3H9CHCH3C2NHSHCHNH3CH2CFeCHCH6NHSH2C4H4CH3SFeH2CFeHCHCH3SCHSHNC3FeS2FeS2FeSFeS3HFeS2FeS2FeSFeS3HCFeSC6H6C2HC2H3C5HCHC6H4C3H3C3SNC4H12CH3FeHCHC3H3SH3CHNHC2SC2HC2FeNHSCHCH4NH2C2HC2H3C2HSH3CH19NHFeCH2CFeS2FeS2FeSFeS3FeS2FeS2FeS2FeSFeS3H2SHCH3CHC6H6C2HC5H2C6H4C5H2NH4CH3NCFeHSHCH7CFeSC3HCH4NH4C3HCH4CH2NC2H2C2HCH3CH3CHCNH2SH6CH2CH2CSHFeH2SFeHC2FeSHSCS2FeS2HC6H7NC2HCHFe2C4SH5CHC2SH5C2H3SH6NSHFeSHSHFeSCSCS2C6H4C2H2CHC2HCH2CNC5HFeCH8CHCSH5S2CNH4CHCH4CH2SFeHCSHFeH4FeHCFeS2C2H6FeH2C4HCSH3C2NH3CHCH3SH2C3SFeS2CSH2C4H2FeH11C2HCH2CFeS3FeSFeS2FeS2FeSFeS3CH5SHC6H4CFeCSH5C6H4C5H4SH2C3H4CHSH6CH2C2HFeH4CH3NCHCH2CFeC2HS2FeH5NC4H3C4HCH2CH2CNH3FeS2HSH3FeS2FeS2FeS2FeSFeS3H2CNFe2CSHSH3CH3C6H4CHCH2C6H5CH3CH2CHC4SCH4CSH2NC4H14NHCSHFeH5NCHCHCHNH3CHFeCH2NSH2CH8CHC2NCH5C2HC5H5C2HC2H2NC2
_chemical_formula_sum              "H1152 S288 Fe144 C720 N72"
_cell_length_a       77.1371
_cell_length_b       76.5494
_cell_length_c       39.7466
_cell_angle_alpha    91.0508
_cell_angle_beta     91.5653
_cell_angle_gamma    117.315

_space_group_name_H-M_alt    "P 1"
_space_group_IT_number       1

loop_
  _space_group_symop_operation_xyz
  'x, y, z'

loop_
  _atom_site_type_symbol
  _atom_site_label
  _atom_site_symmetry_multiplicity
  _atom_site_fract_x
  _atom_site_fract_y
  _atom_site_fract_z
  _atom_site_occupancy
  H   H1        1.0  0.08362  0.66047  0.49068  1.0000
  S   S1        1.0  0.02145  0.55094  0.31223  1.0000
  Fe  Fe1       1.0  0.01923  0.44325  0.31453  1.0000
  C   C1        1.0  0.00775  0.41396  0.49741  1.0000
  S   S2        1.0  0.04478  0.46352  0.28282  1.0000
  H   H2        1.0  0.01670  0.42365  0.15134  1.0000
  H   H3        1.0  0.01157  0.49905  0.49115  1.0000
  S   S3        1.0  0.01378  0.45162  0.36629  1.0000
  H   H4        1.0  0.16381  0.46168  0.26486  1.0000
  C   C2        1.0  0.10188  0.63323  0.29837  1.0000
  Fe  Fe2       1.0  0.03264  0.61718  0.34330  1.0000
  S   S4        1.0  0.05675  0.64470  0.32159  1.0000
  S   S5        1.0  0.03848  0.59547  0.37182  1.0000
  Fe  Fe3       1.0  0.16059  0.49497  0.12375  1.0000
  S   S6        1.0  0.18337  0.52629  0.13281  1.0000
  S   S7        1.0  0.15720  0.47916  0.07354  1.0000
  Fe  Fe4       1.0  0.14597  0.49083  0.19579  1.0000
  S   S8        1.0  0.16810  0.52189  0.21042  1.0000
  S   S9        1.0  0.12569  0.46938  0.23358  1.0000
  Fe  Fe5       1.0  0.15995  0.52966  0.16020  1.0000
  S   S10       1.0  0.15069  0.55323  0.15052  1.0000
  Fe  Fe6       1.0  0.18982  0.51574  0.18177  1.0000
  S   S11       1.0  0.22125  0.52755  0.20275  1.0000
  S   S12       1.0  0.13647  0.49894  0.14726  1.0000
  S   S13       1.0  0.16840  0.48403  0.17107  1.0000
  S   S14       1.0  0.20381  0.64399  0.18278  1.0000
  C   C3        1.0  0.16684  0.57838  0.15672  1.0000
  C   C4        1.0  0.16034  0.59196  0.14714  1.0000
  C   C5        1.0  0.17199  0.61211  0.15395  1.0000
  C   C6        1.0  0.19016  0.61890  0.17076  1.0000
  C   C7        1.0  0.19703  0.60540  0.17935  1.0000
  C   C8        1.0  0.18538  0.58512  0.17233  1.0000
  H   H5        1.0  0.14606  0.58680  0.13484  1.0000
  H   H6        1.0  0.16683  0.62236  0.14622  1.0000
  H   H7        1.0  0.21117  0.61057  0.19215  1.0000
  H   H8        1.0  0.19052  0.57469  0.17966  1.0000
  H   H9        1.0  0.03699  0.42572  0.17751  1.0000
  C   C9        1.0  0.23216  0.50010  0.17699  1.0000
  C   C10       1.0  0.23810  0.51844  0.19323  1.0000
  S   S15       1.0  0.02165  0.58911  0.46122  1.0000
  C   C11       1.0  0.11277  0.64833  0.27650  1.0000
  H   H10       1.0  0.21706  0.49140  0.16861  1.0000
  Fe  Fe7       1.0  0.01478  0.59321  0.40624  1.0000
  C   C12       1.0  0.07824  0.64574  0.30450  1.0000
  H   H11       1.0  0.06849  0.62417  0.47783  1.0000
  H   H12       1.0  0.19405  0.51246  0.30215  1.0000
  H   H13       1.0  0.00820  0.48156  0.40218  1.0000
  H   H14       1.0  0.02078  0.57844  0.20232  1.0000
  H   H15       1.0  0.14236  0.64905  0.01990  1.0000
  H   H16       1.0  0.02087  0.41222  0.49628  1.0000
  H   H17       1.0  0.15987  0.53702  0.01856  1.0000
  C   C13       1.0  0.10626  0.66213  0.26864  1.0000
  C   C14       1.0  0.06709  0.46453  0.26944  1.0000
  C   C15       1.0  0.07839  0.47925  0.24726  1.0000
  C   C16       1.0  0.09618  0.48080  0.23578  1.0000
  C   C17       1.0  0.10299  0.46766  0.24648  1.0000
  C   C18       1.0  0.09162  0.45282  0.26846  1.0000
  C   C19       1.0  0.07374  0.45120  0.27980  1.0000
  H   H18       1.0  0.07343  0.48967  0.23909  1.0000
  H   H19       1.0  0.10473  0.49229  0.21893  1.0000
  H   H20       1.0  0.09672  0.44257  0.27693  1.0000
  H   H21       1.0  0.06527  0.43982  0.29689  1.0000
  H   H22       1.0  0.02937  0.57992  0.26207  1.0000
  H   H23       1.0  0.05114  0.59989  0.28012  1.0000
  C   C20       1.0  0.15867  0.51164  0.04294  1.0000
  C   C21       1.0  0.15777  0.49310  0.03855  1.0000
  H   H24       1.0  0.08460  0.62963  0.44315  1.0000
  H   H25       1.0  0.15886  0.51747  0.06803  1.0000
  C   C22       1.0  0.01899  0.41944  0.23601  1.0000
  C   C23       1.0  0.02075  0.41919  0.17560  1.0000
  C   C24       1.0  0.04485  0.59019  0.25717  1.0000
  H   H26       1.0  0.05257  0.58105  0.25453  1.0000
  N   N1        1.0  0.14958  0.60375  0.25380  1.0000
  C   C25       1.0  0.13553  0.60171  0.22609  1.0000
  C   C26       1.0  0.16682  0.62329  0.25302  1.0000
  C   C27       1.0  0.15580  0.58824  0.24963  1.0000
  C   C28       1.0  0.14018  0.60181  0.28637  1.0000
  H   H27       1.0  0.13054  0.61320  0.22838  1.0000
  H   H28       1.0  0.12239  0.58709  0.22581  1.0000
  H   H29       1.0  0.14219  0.60322  0.20116  1.0000
  H   H30       1.0  0.16278  0.63540  0.25649  1.0000
  H   H31       1.0  0.17796  0.62525  0.27307  1.0000
  H   H32       1.0  0.17400  0.62545  0.22856  1.0000
  H   H33       1.0  0.16643  0.58927  0.27004  1.0000
  H   H34       1.0  0.16303  0.58947  0.22532  1.0000
  H   H35       1.0  0.14317  0.57325  0.24965  1.0000
  H   H36       1.0  0.15039  0.60334  0.30786  1.0000
  H   H37       1.0  0.12706  0.58726  0.28788  1.0000
  H   H38       1.0  0.13539  0.61340  0.29009  1.0000
  H   H39       1.0  0.18966  0.48187  0.32834  1.0000
  C   C29       1.0  0.08917  0.66093  0.28283  1.0000
  C   C30       1.0  0.08467  0.63185  0.31214  1.0000
  H   H40       1.0  0.21704  0.48907  0.24955  1.0000
  H   H41       1.0  0.21614  0.51578  0.28250  1.0000
  H   H42       1.0  0.20328  0.65766  0.07071  1.0000
  C   C31       1.0  0.03651  0.58803  0.19781  1.0000
  H   H43       1.0  0.10681  0.62252  0.30479  1.0000
  H   H44       1.0  0.02634  0.51609  0.30554  1.0000
  S   S16       1.0  0.15439  0.64618  0.17814  1.0000
  H   H45       1.0  0.04330  0.57820  0.19293  1.0000
  H   H46       1.0  0.01612  0.45276  0.22682  1.0000
  H   H47       1.0  0.06780  0.66312  0.40237  1.0000
  H   H48       1.0  0.07495  0.60517  0.21624  1.0000
  H   H49       1.0  0.18008  0.65787  0.07023  1.0000
  H   H50       1.0  0.19765  0.48796  0.22261  1.0000
  Fe  Fe8       1.0  0.01436  0.57274  0.33919  1.0000
  N   N2        1.0  0.04633  0.60168  0.22691  1.0000
  N   N3        1.0  0.19188  0.48681  0.27524  1.0000
  H   H51       1.0  0.02170  0.50158  0.43179  1.0000
  C   C32       1.0  0.15793  0.61908  0.05897  1.0000
  N   N4        1.0  0.17894  0.63061  0.05266  1.0000
  C   C33       1.0  0.06711  0.61411  0.21999  1.0000
  C   C34       1.0  0.19990  0.50838  0.27972  1.0000
  H   H52       1.0  0.02100  0.60544  0.23749  1.0000
  C   C35       1.0  0.07017  0.62796  0.45078  1.0000
  H   H53       1.0  0.03731  0.59616  0.17449  1.0000
  C   C36       1.0  0.03679  0.61433  0.23271  1.0000
  H   H54       1.0  0.07478  0.62477  0.24123  1.0000
  H   H55       1.0  0.03672  0.63021  0.44345  1.0000
  H   H56       1.0  0.24087  0.47839  0.16029  1.0000
  H   H57       1.0  0.04357  0.62453  0.25501  1.0000
  H   H58       1.0  0.06881  0.62286  0.19713  1.0000
  H   H59       1.0  0.04777  0.64051  0.48392  1.0000
  C   C37       1.0  0.24573  0.49278  0.17221  1.0000
  H   H60       1.0  0.16676  0.48389  0.24618  1.0000
  H   H61       1.0  0.19044  0.46249  0.30329  1.0000
  C   C38       1.0  0.18898  0.61857  0.05995  1.0000
  C   C39       1.0  0.18746  0.64854  0.07481  1.0000
  C   C40       1.0  0.19628  0.47874  0.30594  1.0000
  H   H62       1.0  0.03797  0.62354  0.21072  1.0000
  H   H63       1.0  0.00754  0.61645  0.48761  1.0000
  H   H64       1.0  0.07652  0.62018  0.32896  1.0000
  Fe  Fe9       1.0  0.15444  0.66699  0.21860  1.0000
  H   H65       1.0  0.14991  0.62776  0.05409  1.0000
  C   C41       1.0  0.17050  0.47792  0.26900  1.0000
  H   H66       1.0  0.15097  0.60546  0.04264  1.0000
  S   S17       1.0  0.00680  0.41106  0.32574  1.0000
  Fe  Fe10      1.0  0.18686  0.66152  0.18378  1.0000
  C   C42       1.0  0.01287  0.51234  0.31811  1.0000
  C   C43       1.0  0.14985  0.66482  0.02420  1.0000
  S   S18       1.0  0.14273  0.65715  0.09075  1.0000
  S   S19       1.0  0.13432  0.64911  0.26011  1.0000
  C   C44       1.0  0.04900  0.64316  0.45642  1.0000
  H   H67       1.0  0.19524  0.46609  0.24203  1.0000
  C   C45       1.0  0.02155  0.44737  0.20527  1.0000
  H   H68       1.0  0.02715  0.47889  0.46889  1.0000
  H   H69       1.0  0.04666  0.65621  0.45164  1.0000
  S   S20       1.0  0.00990  0.59455  0.30827  1.0000
  C   C46       1.0  0.01917  0.59690  0.50252  1.0000
  H   H70       1.0  0.16310  0.48100  0.29029  1.0000
  Fe  Fe11      1.0  0.15802  0.66916  0.14128  1.0000
  C   C47       1.0  0.15918  0.52267  0.01487  1.0000
  H   H71       1.0  0.03516  0.42580  0.23937  1.0000
  H   H72       1.0  0.18596  0.64486  0.10191  1.0000
  S   S21       1.0  0.01054  0.61694  0.37978  1.0000
  H   H73       1.0  0.18747  0.61410  0.08669  1.0000
  C   C48       1.0  0.00690  0.52678  0.32442  1.0000
  H   H74       1.0  0.21232  0.48524  0.31130  1.0000
  H   H75       1.0  0.19609  0.51479  0.25753  1.0000
  C   C49       1.0  0.01211  0.46728  0.46205  1.0000
  H   H76       1.0  0.03778  0.45461  0.20847  1.0000
  C   C50       1.0  0.20084  0.48222  0.24619  1.0000
  H   H77       1.0  0.05878  0.61500  0.43635  1.0000
  N   N5        1.0  0.06806  0.64590  0.44459  1.0000
  C   C51       1.0  0.08393  0.66287  0.46309  1.0000
  H   H78       1.0  0.20488  0.62680  0.05551  1.0000
  H   H79       1.0  0.01768  0.45271  0.18182  1.0000
  H   H80       1.0  0.15556  0.61463  0.08562  1.0000
  H   H81       1.0  0.09852  0.66546  0.45456  1.0000
  H   H82       1.0  0.01318  0.45819  0.44077  1.0000
  N   N6        1.0  0.01324  0.42569  0.20449  1.0000
  H   H83       1.0  0.08304  0.65122  0.39789  1.0000
  H   H84       1.0  0.00636  0.48205  0.32382  1.0000
  H   H85       1.0  0.01389  0.42449  0.25820  1.0000
  C   C52       1.0  0.00695  0.48938  0.42510  1.0000
  H   H86       1.0  0.05704  0.63725  0.39357  1.0000
  H   H87       1.0  0.01260  0.40314  0.23689  1.0000
  H   H88       1.0  0.01481  0.40290  0.17445  1.0000
  H   H89       1.0  0.00680  0.45749  0.48383  1.0000
  H   H90       1.0  0.18287  0.60486  0.04379  1.0000
  C   C53       1.0  0.06909  0.64957  0.40812  1.0000
  C   C54       1.0  0.00157  0.49308  0.32848  1.0000
  S   S22       1.0  0.00693  0.41122  0.42795  1.0000
  C   C55       1.0  0.18135  0.63624  0.01700  1.0000
  H   H91       1.0  0.17406  0.64547  0.01070  1.0000
  H   H92       1.0  0.19702  0.64488  0.01118  1.0000
  C   C56       1.0  0.15728  0.48558  0.00586  1.0000
  Fe  Fe12      1.0  0.01404  0.42946  0.68415  1.0000
  H   H93       1.0  0.06778  0.47543  0.93684  1.0000
  S   S23       1.0  0.04674  0.43980  0.69293  1.0000
  H   H94       1.0  0.13832  0.59544  0.85407  1.0000
  C   C57       1.0  0.23275  0.52531  0.83295  1.0000
  C   C58       1.0  0.07847  0.47042  0.92849  1.0000
  C   C59       1.0  0.22248  0.54454  0.92648  1.0000
  S   S24       1.0  0.17868  0.63381  0.91166  1.0000
  Fe  Fe13      1.0  0.13249  0.49748  0.83266  1.0000
  S   S25       1.0  0.15720  0.51092  0.79695  1.0000
  S   S26       1.0  0.09937  0.47833  0.82723  1.0000
  Fe  Fe14      1.0  0.15903  0.52073  0.89370  1.0000
  S   S27       1.0  0.18555  0.53620  0.86323  1.0000
  S   S28       1.0  0.15921  0.52972  0.94808  1.0000
  Fe  Fe15      1.0  0.16511  0.53949  0.82573  1.0000
  S   S29       1.0  0.17236  0.56888  0.80374  1.0000
  Fe  Fe16      1.0  0.17604  0.50666  0.83764  1.0000
  S   S30       1.0  0.19634  0.49250  0.83384  1.0000
  S   S31       1.0  0.13941  0.52644  0.85819  1.0000
  S   S32       1.0  0.15061  0.49086  0.87106  1.0000
  Fe  Fe17      1.0  0.03804  0.60785  0.73167  1.0000
  S   S33       1.0  0.05653  0.62508  0.77820  1.0000
  S   S34       1.0  0.04877  0.60437  0.68104  1.0000
  C   C60       1.0  0.02417  0.59557  0.56349  1.0000
  H   H95       1.0  0.18640  0.51467  0.92621  1.0000
  H   H96       1.0  0.02883  0.58968  0.58443  1.0000
  H   H97       1.0  0.10033  0.50082  0.89024  1.0000
  S   S35       1.0  0.00616  0.44934  0.65331  1.0000
  H   H98       1.0  0.11056  0.46501  0.93791  1.0000
  H   H99       1.0  0.15728  0.49064  0.95265  1.0000
  H   H100      1.0  0.08170  0.64163  0.83683  1.0000
  C   C61       1.0  0.22223  0.50512  0.83788  1.0000
  H   H101      1.0  0.20116  0.53179  0.98111  1.0000
  H   H102      1.0  0.05802  0.52882  0.71215  1.0000
  C   C62       1.0  0.02023  0.52641  0.68392  1.0000
  H   H103      1.0  0.22503  0.53371  0.82706  1.0000
  C   C63       1.0  0.17854  0.61642  0.88177  1.0000
  C   C64       1.0  0.17317  0.59718  0.89166  1.0000
  C   C65       1.0  0.17169  0.58265  0.86800  1.0000
  C   C66       1.0  0.17547  0.58723  0.83420  1.0000
  C   C67       1.0  0.18122  0.60657  0.82440  1.0000
  C   C68       1.0  0.18286  0.62115  0.84815  1.0000
  H   H104      1.0  0.16996  0.59342  0.91765  1.0000
  H   H105      1.0  0.16752  0.56788  0.87597  1.0000
  H   H106      1.0  0.18442  0.61026  0.79838  1.0000
  H   H107      1.0  0.18745  0.63602  0.84039  1.0000
  C   C69       1.0  0.09089  0.64580  0.81532  1.0000
  H   H108      1.0  0.00888  0.41626  0.55197  1.0000
  C   C70       1.0  0.08229  0.63954  0.78277  1.0000
  H   H109      1.0  0.11759  0.51547  0.92321  1.0000
  S   S36       1.0  0.01225  0.61079  0.70907  1.0000
  C   C71       1.0  0.19834  0.51043  0.92487  1.0000
  N   N7        1.0  0.06271  0.50350  0.70314  1.0000
  H   H110      1.0  0.10991  0.47420  0.89686  1.0000
  H   H111      1.0  0.11729  0.50175  0.97866  1.0000
  H   H112      1.0  0.06949  0.48116  0.68315  1.0000
  H   H113      1.0  0.08527  0.50555  0.67034  1.0000
  H   H114      1.0  0.07921  0.53354  0.68862  1.0000
  C   C72       1.0  0.06104  0.45030  0.73067  1.0000
  C   C73       1.0  0.08151  0.45867  0.72976  1.0000
  C   C74       1.0  0.09349  0.46757  0.75889  1.0000
  C   C75       1.0  0.08507  0.46793  0.78946  1.0000
  C   C76       1.0  0.06459  0.45958  0.79036  1.0000
  C   C77       1.0  0.05263  0.45095  0.76112  1.0000
  H   H115      1.0  0.08818  0.45821  0.70638  1.0000
  H   H116      1.0  0.10920  0.47382  0.75780  1.0000
  H   H117      1.0  0.05790  0.45971  0.81386  1.0000
  H   H118      1.0  0.03691  0.44454  0.76225  1.0000
  H   H119      1.0  0.07571  0.46680  0.90089  1.0000
  S   S37       1.0  0.03822  0.54934  0.67229  1.0000
  C   C78       1.0  0.13056  0.59462  0.82957  1.0000
  H   H120      1.0  0.11721  0.58018  0.82776  1.0000
  H   H121      1.0  0.14030  0.59463  0.80935  1.0000
  H   H122      1.0  0.15409  0.63092  0.80891  1.0000
  H   H123      1.0  0.12491  0.61021  0.77249  1.0000
  H   H124      1.0  0.12770  0.48965  0.92841  1.0000
  S   S38       1.0  0.01991  0.57534  0.73966  1.0000
  N   N8        1.0  0.09878  0.48561  0.93590  1.0000
  H   H125      1.0  0.15200  0.63172  0.85378  1.0000
  N   N9        1.0  0.12582  0.61119  0.82667  1.0000
  C   C79       1.0  0.14403  0.62995  0.82917  1.0000
  C   C80       1.0  0.11562  0.60958  0.79384  1.0000
  H   H126      1.0  0.10179  0.59559  0.79098  1.0000
  C   C81       1.0  0.10238  0.50367  0.91804  1.0000
  C   C82       1.0  0.04218  0.48956  0.70926  1.0000
  C   C83       1.0  0.07478  0.50661  0.73434  1.0000
  C   C84       1.0  0.11119  0.65769  0.82027  1.0000
  H   H127      1.0  0.09203  0.49560  0.98238  1.0000
  S   S39       1.0  0.00311  0.57178  0.66236  1.0000
  Fe  Fe18      1.0  0.02939  0.57225  0.68808  1.0000
  H   H128      1.0  0.11170  0.62179  0.79100  1.0000
  H   H129      1.0  0.03274  0.48699  0.68623  1.0000
  H   H130      1.0  0.14101  0.64275  0.82711  1.0000
  H   H131      1.0  0.05528  0.52072  0.66894  1.0000
  H   H132      1.0  0.06079  0.49232  0.65238  1.0000
  H   H133      1.0  0.23502  0.51795  0.91205  1.0000
  H   H134      1.0  0.03037  0.57874  0.52590  1.0000
  C   C85       1.0  0.11313  0.61074  0.85421  1.0000
  H   H135      1.0  0.12051  0.61212  0.87933  1.0000
  H   H136      1.0  0.09919  0.59681  0.85319  1.0000
  C   C86       1.0  0.01171  0.61710  0.54189  1.0000
  C   C87       1.0  0.21272  0.52703  0.97812  1.0000
  C   C88       1.0  0.09432  0.64523  0.75513  1.0000
  C   C89       1.0  0.06391  0.52246  0.69282  1.0000
  H   H137      1.0  0.08792  0.64062  0.72994  1.0000
  C   C90       1.0  0.11461  0.65740  0.76004  1.0000
  H   H138      1.0  0.03613  0.49517  0.72945  1.0000
  H   H139      1.0  0.07403  0.49255  0.74292  1.0000
  H   H140      1.0  0.24595  0.53027  0.95165  1.0000
  C   C91       1.0  0.23201  0.51934  0.93902  1.0000
  H   H141      1.0  0.10932  0.62310  0.85269  1.0000
  S   S40       1.0  0.01720  0.61846  0.61106  1.0000
  C   C92       1.0  0.02503  0.58940  0.53020  1.0000
  H   H142      1.0  0.09996  0.47698  0.98685  1.0000
  C   C93       1.0  0.15776  0.49662  0.97769  1.0000
  H   H143      1.0  0.07533  0.45653  0.94132  1.0000
  H   H144      1.0  0.20760  0.51268  0.99060  1.0000
  H   H145      1.0  0.00668  0.62797  0.54627  1.0000
  H   H146      1.0  0.09044  0.51682  0.73056  1.0000
  H   H147      1.0  0.11750  0.66258  0.84544  1.0000
  H   H148      1.0  0.19316  0.49574  0.93608  1.0000
  H   H149      1.0  0.22454  0.47881  0.84922  1.0000
  C   C94       1.0  0.06992  0.49534  0.67605  1.0000
  H   H150      1.0  0.04065  0.47498  0.71671  1.0000
  H   H151      1.0  0.15651  0.47117  0.00242  1.0000
  Fe  Fe19      1.0  0.02144  0.60421  0.65873  1.0000
  C   C95       1.0  0.23255  0.49443  0.84524  1.0000
  H   H152      1.0  0.09232  0.50960  0.92588  1.0000
  H   H153      1.0  0.23616  0.55618  0.93873  1.0000
  Fe  Fe20      1.0  0.18269  0.66330  0.89393  1.0000
  C   C96       1.0  0.15875  0.51523  0.98223  1.0000
  C   C97       1.0  0.01365  0.51029  0.66121  1.0000
  H   H154      1.0  0.22517  0.54371  0.89921  1.0000
  C   C98       1.0  0.11231  0.47825  0.92428  1.0000
  C   C99       1.0  0.01769  0.60962  0.56954  1.0000
  H   H155      1.0  0.12371  0.66198  0.73845  1.0000
  H   H156      1.0  0.06978  0.51284  0.75524  1.0000
  H   H157      1.0  0.21102  0.54952  0.92841  1.0000
  N   N10       1.0  0.21642  0.52535  0.94218  1.0000
  C   C100      1.0  0.01293  0.52399  0.71624  1.0000
  H   H158      1.0  0.17496  0.62312  0.99942  1.0000
  C   C101      1.0  0.10209  0.49015  0.97255  1.0000
  H   H159      1.0  0.20061  0.50869  0.89781  1.0000
  C   C102      1.0  0.01226  0.61065  0.50856  1.0000
  H   H160      1.0  0.01823  0.53637  0.73399  1.0000
  H   H161      1.0  0.22608  0.53798  0.99222  1.0000
  C   C103      1.0  0.12315  0.66371  0.79261  1.0000
  H   H162      1.0  0.22785  0.50482  0.95030  1.0000
  H   H163      1.0  0.01912  0.51221  0.63605  1.0000
  S   S41       1.0  0.15685  0.66935  0.89669  1.0000
  C   C104      1.0  0.00096  0.41622  0.52906  1.0000
  H   H164      1.0  0.23584  0.72965  0.22304  1.0000
  S   S42       1.0  0.19061  0.68327  0.14430  1.0000
  C   C105      1.0  0.15182  0.67291  0.05687  1.0000
  S   S43       1.0  0.18736  0.68130  0.22683  1.0000
  H   H165      1.0  0.20224  0.71439  0.08238  1.0000
  H   H166      1.0  0.08440  0.67183  0.27691  1.0000
  Fe  Fe21      1.0  0.18836  0.70208  0.18637  1.0000
  S   S44       1.0  0.20677  0.73531  0.18153  1.0000
  H   H167      1.0  0.23346  0.73815  0.03212  1.0000
  S   S45       1.0  0.15529  0.68908  0.18077  1.0000
  C   C106      1.0  0.21747  0.72446  0.09146  1.0000
  H   H168      1.0  0.17392  0.72135  0.03806  1.0000
  C   C107      1.0  0.22364  0.74394  0.04193  1.0000
  H   H169      1.0  0.19540  0.74267  0.08249  1.0000
  N   N11       1.0  0.22401  0.74454  0.07918  1.0000
  C   C108      1.0  0.23150  0.75104  0.19457  1.0000
  H   H170      1.0  0.24492  0.75776  0.12055  1.0000
  C   C109      1.0  0.16095  0.69335  0.06199  1.0000
  C   C110      1.0  0.24411  0.75740  0.09249  1.0000
  H   H171      1.0  0.21107  0.75337  0.11902  1.0000
  H   H172      1.0  0.21772  0.72447  0.11950  1.0000
  C   C111      1.0  0.24032  0.77067  0.18439  1.0000
  H   H173      1.0  0.16213  0.69969  0.08704  1.0000
  C   C112      1.0  0.21081  0.75234  0.09102  1.0000
  C   C113      1.0  0.24244  0.74465  0.21483  1.0000
  H   H174      1.0  0.08265  0.67661  0.45921  1.0000
  C   C114      1.0  0.16776  0.70560  0.03437  1.0000
  H   H175      1.0  0.21503  0.76732  0.08175  1.0000
  H   H176      1.0  0.20872  0.73425  0.03100  1.0000
  H   H177      1.0  0.22700  0.71804  0.08294  1.0000
  H   H178      1.0  0.22836  0.75882  0.03176  1.0000
  H   H179      1.0  0.23195  0.77590  0.16915  1.0000
  H   H180      1.0  0.11453  0.67390  0.25203  1.0000
  H   H181      1.0  0.24940  0.77283  0.08458  1.0000
  Fe  Fe22      1.0  0.20976  0.70486  0.86977  1.0000
  S   S46       1.0  0.18588  0.71379  0.87069  1.0000
  S   S47       1.0  0.24014  0.72396  0.85053  1.0000
  H   H182      1.0  0.18043  0.72188  0.79862  1.0000
  C   C115      1.0  0.21304  0.73796  0.73636  1.0000
  H   H183      1.0  0.21397  0.74344  0.82153  1.0000
  Fe  Fe23      1.0  0.17873  0.69849  0.92016  1.0000
  S   S48       1.0  0.17572  0.71319  0.96790  1.0000
  H   H184      1.0  0.18312  0.73949  0.76741  1.0000
  S   S49       1.0  0.20392  0.69148  0.92067  1.0000
  H   H185      1.0  0.21699  0.76132  0.79056  1.0000
  H   H186      1.0  0.22872  0.74176  0.73392  1.0000
  C   C116      1.0  0.20922  0.71419  0.77823  1.0000
  H   H187      1.0  0.20019  0.70149  0.76078  1.0000
  S   S50       1.0  0.19079  0.67570  0.84288  1.0000
  Fe  Fe24      1.0  0.16631  0.68377  0.84708  1.0000
  C   C117      1.0  0.18575  0.72670  0.77299  1.0000
  H   H188      1.0  0.23212  0.75512  0.87878  1.0000
  H   H189      1.0  0.20487  0.70944  0.80419  1.0000
  C   C118      1.0  0.16637  0.69750  0.00185  1.0000
  H   H190      1.0  0.20442  0.72608  0.71720  1.0000
  N   N12       1.0  0.20660  0.73167  0.77070  1.0000
  C   C119      1.0  0.21844  0.74778  0.79534  1.0000
  C   C120      1.0  0.15753  0.67706  0.99689  1.0000
  H   H191      1.0  0.21130  0.75117  0.72987  1.0000
  H   H192      1.0  0.17631  0.71434  0.75518  1.0000
  C   C121      1.0  0.24700  0.76171  0.87070  1.0000
  H   H193      1.0  0.22478  0.71730  0.77680  1.0000
  S   S51       1.0  0.14877  0.67901  0.79762  1.0000
  H   H194      1.0  0.23424  0.75166  0.79469  1.0000
  H   H195      1.0  0.15617  0.67069  0.97187  1.0000
  N   N13       1.0  0.46282  0.16143  0.29829  1.0000
  H   H196      1.0  0.47160  0.15748  0.34827  1.0000
  H   H197      1.0  0.47454  0.14250  0.31607  1.0000
  H   H198      1.0  0.43937  0.13664  0.27196  1.0000
  S   S52       1.0  0.48453  0.17009  0.19734  1.0000
  H   H199      1.0  0.45847  0.04563  0.27114  1.0000
  H   H200      1.0  0.44871  0.17972  0.29141  1.0000
  H   H201      1.0  0.45136  0.15817  0.24730  1.0000
  S   S53       1.0  0.40220  0.00712  0.35984  1.0000
  C   C122      1.0  0.46495  0.14892  0.32436  1.0000
  Fe  Fe25      1.0  0.41826  0.01606  0.41086  1.0000
  H   H202      1.0  0.46610  0.04775  0.22853  1.0000
  Fe  Fe26      1.0  0.42764  0.03438  0.34093  1.0000
  C   C123      1.0  0.48894  0.01364  0.34433  1.0000
  S   S54       1.0  0.42550  0.05454  0.30119  1.0000
  H   H203      1.0  0.44997  0.31450  0.08005  1.0000
  C   C124      1.0  0.46302  0.28968  0.05628  1.0000
  H   H204      1.0  0.46557  0.11802  0.01298  1.0000
  H   H205      1.0  0.48949  0.18712  0.31359  1.0000
  S   S55       1.0  0.44173  0.04456  0.39255  1.0000
  C   C125      1.0  0.47694  0.11328  0.27291  1.0000
  C   C126      1.0  0.45992  0.10441  0.25231  1.0000
  C   C127      1.0  0.44417  0.08659  0.26156  1.0000
  C   C128      1.0  0.44535  0.07732  0.29118  1.0000
  C   C129      1.0  0.46239  0.08618  0.31169  1.0000
  C   C130      1.0  0.47803  0.10408  0.30264  1.0000
  C   C131      1.0  0.46091  0.29163  0.11664  1.0000
  C   C132      1.0  0.46593  0.31949  0.08323  1.0000
  H   H206      1.0  0.46347  0.07928  0.33464  1.0000
  H   H207      1.0  0.47190  0.06942  0.25400  1.0000
  H   H208      1.0  0.48136  0.18687  0.27079  1.0000
  H   H209      1.0  0.46632  0.27700  0.05807  1.0000
  Fe  Fe27      1.0  0.45706  0.02663  0.38036  1.0000
  H   H210      1.0  0.49107  0.11087  0.31889  1.0000
  C   C133      1.0  0.45037  0.17003  0.31046  1.0000
  S   S56       1.0  0.44449  0.01808  0.32769  1.0000
  H   H211      1.0  0.47805  0.17418  0.03417  1.0000
  H   H212      1.0  0.44479  0.28578  0.11469  1.0000
  H   H213      1.0  0.43107  0.07979  0.24546  1.0000
  C   C134      1.0  0.49174  0.31024  0.09070  1.0000
  C   C135      1.0  0.45373  0.14936  0.26723  1.0000
  H   H214      1.0  0.44019  0.01735  0.48286  1.0000
  H   H215      1.0  0.48348  0.02833  0.23775  1.0000
  H   H216      1.0  0.43549  0.15837  0.31588  1.0000
  H   H217      1.0  0.47130  0.32964  0.10582  1.0000
  H   H218      1.0  0.49637  0.25959  0.14386  1.0000
  H   H219      1.0  0.45887  0.11119  0.22922  1.0000
  S   S57       1.0  0.48938  0.04038  0.39112  1.0000
  H   H220      1.0  0.49716  0.00664  0.42384  1.0000
  C   C136      1.0  0.47062  0.05436  0.25444  1.0000
  N   N14       1.0  0.47038  0.30275  0.08672  1.0000
  C   C137      1.0  0.48229  0.17740  0.29100  1.0000
  H   H221      1.0  0.47308  0.32838  0.06116  1.0000
  S   S58       1.0  0.49713  0.13600  0.26351  1.0000
  H   H222      1.0  0.45676  0.17916  0.33397  1.0000
  H   H223      1.0  0.46629  0.30107  0.14005  1.0000
  H   H224      1.0  0.45061  0.13640  0.32998  1.0000
  H   H225      1.0  0.46316  0.14332  0.25669  1.0000
  H   H226      1.0  0.44692  0.28368  0.05256  1.0000
  H   H227      1.0  0.46419  0.27904  0.12034  1.0000
  S   S59       1.0  0.48678  0.16540  0.10051  1.0000
  H   H228      1.0  0.46986  0.29772  0.03327  1.0000
  C   C138      1.0  0.48732  0.03470  0.26390  1.0000
  H   H229      1.0  0.48215  0.05301  0.31850  1.0000
  S   S60       1.0  0.40211  0.01313  0.45954  1.0000
  C   C139      1.0  0.49382  0.06235  0.30150  1.0000
  H   H230      1.0  0.49216  0.17137  0.28251  1.0000
  N   N15       1.0  0.48918  0.05479  0.26617  1.0000
  H   H231      1.0  0.47579  0.02454  0.28033  1.0000
  H   H232      1.0  0.48784  0.14058  0.01324  1.0000
  C   C140      1.0  0.49312  0.17694  0.03521  1.0000
  H   H233      1.0  0.48857  0.11771  0.00811  1.0000
  H   H234      1.0  0.49546  0.07753  0.30414  1.0000
  H   H235      1.0  0.47353  0.00524  0.34867  1.0000
  H   H236      1.0  0.49566  0.29815  0.09528  1.0000
  H   H237      1.0  0.49860  0.23158  0.17055  1.0000
  C   C141      1.0  0.49766  0.00656  0.32097  1.0000
  C   C142      1.0  0.41254  0.01351  0.50024  1.0000
  C   C143      1.0  0.49959  0.26030  0.17066  1.0000
  H   H238      1.0  0.49790  0.32086  0.11255  1.0000
  S   S61       1.0  0.49962  0.29612  0.16955  1.0000
  C   C144      1.0  0.43151  0.01575  0.50460  1.0000
  H   H239      1.0  0.49930  0.31792  0.06800  1.0000
  C   C145      1.0  0.40935  0.01167  0.56159  1.0000
  S   S62       1.0  0.43432  0.02229  0.76002  1.0000
  H   H240      1.0  0.44482  0.32054  0.81492  1.0000
  H   H241      1.0  0.45094  0.12842  0.96629  1.0000
  S   S63       1.0  0.41015  0.02039  0.68932  1.0000
  H   H242      1.0  0.47489  0.30622  0.82821  1.0000
  Fe  Fe28      1.0  0.43575  0.04338  0.72035  1.0000
  S   S64       1.0  0.44237  0.07566  0.72440  1.0000
  S   S65       1.0  0.45781  0.03882  0.69118  1.0000
  C   C146      1.0  0.47793  0.31714  0.76380  1.0000
  H   H243      1.0  0.45404  0.01772  0.54015  1.0000
  H   H244      1.0  0.42209  0.04042  0.62249  1.0000
  C   C147      1.0  0.43932  0.01594  0.53717  1.0000
  N   N16       1.0  0.43964  0.07098  0.61273  1.0000
  H   H245      1.0  0.44436  0.28427  0.75016  1.0000
  H   H246      1.0  0.45586  0.33504  0.77925  1.0000
  C   C148      1.0  0.46824  0.10628  0.94916  1.0000
  C   C149      1.0  0.49417  0.28111  0.86090  1.0000
  H   H247      1.0  0.44107  0.30551  0.74097  1.0000
  Fe  Fe29      1.0  0.43244  0.01479  0.66185  1.0000
  S   S66       1.0  0.47437  0.12912  0.85949  1.0000
  H   H248      1.0  0.47066  0.33563  0.81505  1.0000
  H   H249      1.0  0.47092  0.08322  0.61770  1.0000
  H   H250      1.0  0.47255  0.15164  0.96753  1.0000
  C   C150      1.0  0.42833  0.01387  0.56586  1.0000
  N   N17       1.0  0.46020  0.30927  0.78381  1.0000
  C   C151      1.0  0.43911  0.06766  0.57586  1.0000
  C   C152      1.0  0.48000  0.12559  0.00123  1.0000
  N   N18       1.0  0.47785  0.12644  0.96429  1.0000
  H   H251      1.0  0.44903  0.29081  0.82633  1.0000
  H   H252      1.0  0.47847  0.25704  0.89351  1.0000
  H   H253      1.0  0.45176  0.07970  0.56406  1.0000
  H   H254      1.0  0.45254  0.10246  0.61011  1.0000
  S   S67       1.0  0.47920  0.01252  0.75243  1.0000
  C   C153      1.0  0.46583  0.13642  0.95637  1.0000
  H   H255      1.0  0.46625  0.10649  0.92129  1.0000
  H   H256      1.0  0.49776  0.18482  0.98309  1.0000
  S   S68       1.0  0.43958  0.01517  0.60618  1.0000
  Fe  Fe30      1.0  0.45434  0.01597  0.72813  1.0000
  C   C154      1.0  0.45153  0.09035  0.76209  1.0000
  C   C155      1.0  0.45690  0.11056  0.76150  1.0000
  C   C156      1.0  0.46395  0.12264  0.79100  1.0000
  C   C157      1.0  0.46571  0.11462  0.82149  1.0000
  C   C158      1.0  0.46035  0.09441  0.82207  1.0000
  C   C159      1.0  0.45344  0.08236  0.79251  1.0000
  H   H257      1.0  0.45530  0.11685  0.73820  1.0000
  H   H258      1.0  0.46762  0.13807  0.79029  1.0000
  H   H259      1.0  0.46149  0.08800  0.84552  1.0000
  H   H260      1.0  0.44926  0.06682  0.79340  1.0000
  H   H261      1.0  0.45353  0.09747  0.95932  1.0000
  H   H262      1.0  0.45793  0.05716  0.62281  1.0000
  H   H263      1.0  0.42627  0.09012  0.60942  1.0000
  H   H264      1.0  0.45831  0.07372  0.65579  1.0000
  C   C160      1.0  0.45773  0.32577  0.79883  1.0000
  H   H265      1.0  0.40850  0.05384  0.61574  1.0000
  C   C161      1.0  0.43962  0.08993  0.62036  1.0000
  C   C162      1.0  0.48872  0.26229  0.87353  1.0000
  H   H266      1.0  0.43964  0.05369  0.56952  1.0000
  C   C163      1.0  0.45751  0.07133  0.62792  1.0000
  H   H267      1.0  0.43997  0.09270  0.64812  1.0000
  H   H268      1.0  0.42214  0.05721  0.65478  1.0000
  C   C164      1.0  0.42231  0.05491  0.62705  1.0000
  H   H269      1.0  0.42550  0.06660  0.56359  1.0000
  C   C165      1.0  0.44297  0.29690  0.76175  1.0000
  Fe  Fe31      1.0  0.49378  0.16239  0.86473  1.0000
  C   C166      1.0  0.46220  0.29725  0.81089  1.0000
  H   H270      1.0  0.48819  0.29025  0.87128  1.0000
  H   H271      1.0  0.46472  0.28499  0.80061  1.0000
  H   H272      1.0  0.48056  0.30514  0.75272  1.0000
  H   H273      1.0  0.46413  0.13751  0.92864  1.0000
  H   H274      1.0  0.42934  0.29080  0.77610  1.0000
  C   C167      1.0  0.49638  0.25017  0.86056  1.0000
  H   H275      1.0  0.47704  0.09839  0.95414  1.0000
  C   C168      1.0  0.40152  0.01150  0.52893  1.0000
  H   H276      1.0  0.40065  0.00996  0.58333  1.0000
  S   S69       1.0  0.49162  0.18094  0.90755  1.0000
  S   S70       1.0  0.48858  0.22647  0.87706  1.0000
  S   S71       1.0  0.49170  0.33639  0.88138  1.0000
  C   C169      1.0  0.48850  0.01172  0.68687  1.0000
  H   H277      1.0  0.47674  0.01513  0.68050  1.0000
  H   H278      1.0  0.49729  0.01324  0.63564  1.0000
  H   H279      1.0  0.38681  0.00970  0.52585  1.0000
  H   H280      1.0  0.49118  0.32663  0.77967  1.0000
  H   H281      1.0  0.47697  0.32622  0.74299  1.0000
  C   C170      1.0  0.49240  0.00888  0.72030  1.0000
  H   H282      1.0  0.49633  0.13803  0.92239  1.0000
  C   C171      1.0  0.49734  0.13750  0.95026  1.0000
  S   S72       1.0  0.43993  0.63647  0.16265  1.0000
  Fe  Fe32      1.0  0.34852  0.52597  0.13229  1.0000
  S   S73       1.0  0.33445  0.53970  0.16507  1.0000
  S   S74       1.0  0.35801  0.53834  0.08097  1.0000
  Fe  Fe33      1.0  0.34991  0.49906  0.18808  1.0000
  S   S75       1.0  0.33530  0.51027  0.22470  1.0000
  S   S76       1.0  0.36459  0.47946  0.19713  1.0000
  Fe  Fe34      1.0  0.31526  0.50876  0.18065  1.0000
  S   S77       1.0  0.28180  0.49371  0.17632  1.0000
  Fe  Fe35      1.0  0.35555  0.54018  0.20565  1.0000
  S   S78       1.0  0.37575  0.56567  0.24010  1.0000
  S   S79       1.0  0.32840  0.49498  0.14526  1.0000
  S   S80       1.0  0.37106  0.52903  0.17158  1.0000
  S   S81       1.0  0.49816  0.37107  0.10387  1.0000
  H   H283      1.0  0.44438  0.65813  0.22891  1.0000
  H   H284      1.0  0.26651  0.51573  0.07683  1.0000
  H   H285      1.0  0.33717  0.36582  0.26640  1.0000
  H   H286      1.0  0.37413  0.38121  0.22599  1.0000
  Fe  Fe36      1.0  0.42775  0.42948  0.40008  1.0000
  S   S82       1.0  0.39960  0.41034  0.37068  1.0000
  S   S83       1.0  0.43779  0.43134  0.45544  1.0000
  Fe  Fe37      1.0  0.44807  0.44932  0.33616  1.0000
  S   S84       1.0  0.42170  0.43246  0.30241  1.0000
  S   S85       1.0  0.47678  0.46797  0.31316  1.0000
  Fe  Fe38      1.0  0.40523  0.43800  0.34328  1.0000
  S   S86       1.0  0.38064  0.44616  0.33380  1.0000
  Fe  Fe39      1.0  0.41852  0.40647  0.33175  1.0000
  S   S87       1.0  0.41221  0.37977  0.29819  1.0000
  S   S88       1.0  0.43212  0.45731  0.37512  1.0000
  S   S89       1.0  0.44603  0.42313  0.36308  1.0000
  C   C172      1.0  0.46435  0.36750  0.27988  1.0000
  C   C173      1.0  0.45090  0.36494  0.25351  1.0000
  C   C174      1.0  0.43469  0.36833  0.25941  1.0000
  C   C175      1.0  0.43214  0.37480  0.29141  1.0000
  C   C176      1.0  0.44562  0.37735  0.31765  1.0000
  C   C177      1.0  0.46146  0.37347  0.31198  1.0000
  H   H287      1.0  0.45292  0.36027  0.22871  1.0000
  H   H288      1.0  0.42427  0.36621  0.23901  1.0000
  H   H289      1.0  0.44369  0.38204  0.34249  1.0000
  H   H290      1.0  0.47168  0.37532  0.33261  1.0000
  C   C178      1.0  0.36933  0.47123  0.23606  1.0000
  C   C179      1.0  0.38534  0.46721  0.23920  1.0000
  C   C180      1.0  0.38946  0.46028  0.26944  1.0000
  C   C181      1.0  0.37717  0.45664  0.29647  1.0000
  C   C182      1.0  0.36126  0.46081  0.29345  1.0000
  C   C183      1.0  0.35741  0.46820  0.26348  1.0000
  H   H291      1.0  0.39466  0.46953  0.21811  1.0000
  H   H292      1.0  0.40193  0.45743  0.27162  1.0000
  H   H293      1.0  0.35170  0.45810  0.31429  1.0000
  H   H294      1.0  0.34496  0.47111  0.26132  1.0000
  C   C184      1.0  0.26548  0.50388  0.18273  1.0000
  C   C185      1.0  0.27152  0.52242  0.19824  1.0000
  H   H295      1.0  0.28664  0.53112  0.20657  1.0000
  C   C186      1.0  0.42302  0.61607  0.18410  1.0000
  C   C187      1.0  0.42626  0.61328  0.21795  1.0000
  C   C188      1.0  0.41162  0.59789  0.23517  1.0000
  C   C189      1.0  0.39404  0.58482  0.21827  1.0000
  C   C190      1.0  0.39113  0.58725  0.18416  1.0000
  C   C191      1.0  0.40542  0.60304  0.16732  1.0000
  H   H296      1.0  0.43983  0.62318  0.23106  1.0000
  H   H297      1.0  0.41395  0.59608  0.26156  1.0000
  H   H298      1.0  0.37764  0.57724  0.17091  1.0000
  H   H299      1.0  0.40282  0.60512  0.14117  1.0000
  H   H300      1.0  0.26431  0.49880  0.10893  1.0000
  H   H301      1.0  0.30266  0.53354  0.08661  1.0000
  C   C192      1.0  0.47804  0.49901  0.35000  1.0000
  H   H302      1.0  0.31911  0.47558  0.01795  1.0000
  H   H303      1.0  0.46233  0.49201  0.34665  1.0000
  H   H304      1.0  0.30344  0.50792  0.02948  1.0000
  H   H305      1.0  0.48938  0.42599  0.21747  1.0000
  H   H306      1.0  0.48676  0.65043  0.09229  1.0000
  H   H307      1.0  0.40758  0.60596  0.04919  1.0000
  H   H308      1.0  0.39630  0.41665  0.47094  1.0000
  H   H309      1.0  0.33975  0.37546  0.22490  1.0000
  C   C193      1.0  0.33695  0.50274  0.04616  1.0000
  C   C194      1.0  0.34829  0.52312  0.04448  1.0000
  C   C195      1.0  0.36393  0.39894  0.29778  1.0000
  H   H310      1.0  0.33495  0.49584  0.07019  1.0000
  H   H311      1.0  0.39082  0.39608  0.25932  1.0000
  H   H312      1.0  0.48865  0.37515  0.03483  1.0000
  H   H313      1.0  0.35838  0.41934  0.24871  1.0000
  S   S90       1.0  0.49078  0.63681  0.17378  1.0000
  C   C196      1.0  0.35155  0.53184  0.01308  1.0000
  H   H314      1.0  0.26260  0.54372  0.21644  1.0000
  H   H315      1.0  0.40685  0.53341  0.21064  1.0000
  C   C197      1.0  0.49610  0.42069  0.23734  1.0000
  H   H316      1.0  0.45859  0.49576  0.47159  1.0000
  C   C198      1.0  0.37528  0.38544  0.25319  1.0000
  H   H317      1.0  0.45127  0.60850  0.00809  1.0000
  Fe  Fe40      1.0  0.47161  0.65124  0.18052  1.0000
  H   H318      1.0  0.36048  0.54755  0.01156  1.0000
  S   S91       1.0  0.48391  0.66346  0.23241  1.0000
  H   H319      1.0  0.25462  0.48963  0.06715  1.0000
  N   N19       1.0  0.49604  0.42940  0.27084  1.0000
  H   H320      1.0  0.47490  0.42916  0.30533  1.0000
  H   H321      1.0  0.46805  0.48884  0.41701  1.0000
  C   C199      1.0  0.30180  0.51905  0.09266  1.0000
  C   C200      1.0  0.49382  0.65235  0.06853  1.0000
  H   H322      1.0  0.28408  0.48106  0.10827  1.0000
  H   H323      1.0  0.36574  0.40882  0.21453  1.0000
  C   C201      1.0  0.48880  0.49082  0.33453  1.0000
  Fe  Fe41      1.0  0.49813  0.35740  0.22772  1.0000
  H   H324      1.0  0.46708  0.64260  0.03884  1.0000
  S   S92       1.0  0.48552  0.36442  0.27431  1.0000
  H   H325      1.0  0.42934  0.66167  0.25913  1.0000
  C   C202      1.0  0.28892  0.50627  0.03658  1.0000
  H   H326      1.0  0.42627  0.53012  0.23063  1.0000
  H   H327      1.0  0.46629  0.46554  0.42769  1.0000
  H   H328      1.0  0.30003  0.48419  0.07452  1.0000
  C   C203      1.0  0.42536  0.42911  0.49342  1.0000
  C   C204      1.0  0.49114  0.47752  0.48021  1.0000
  C   C205      1.0  0.34169  0.37956  0.25227  1.0000
  H   H329      1.0  0.38300  0.42288  0.24776  1.0000
  C   C206      1.0  0.25784  0.52953  0.20380  1.0000
  H   H330      1.0  0.37906  0.40996  0.30529  1.0000
  H   H331      1.0  0.40225  0.50975  0.22515  1.0000
  H   H332      1.0  0.37207  0.37211  0.26790  1.0000
  C   C207      1.0  0.43272  0.66265  0.23200  1.0000
  N   N20       1.0  0.28593  0.50274  0.07291  1.0000
  C   C208      1.0  0.40504  0.42128  0.49422  1.0000
  H   H333      1.0  0.46923  0.43123  0.26208  1.0000
  H   H334      1.0  0.49102  0.51909  0.45151  1.0000
  C   C209      1.0  0.32815  0.49129  0.01657  1.0000
  H   H335      1.0  0.40647  0.52389  0.31629  1.0000
  N   N21       1.0  0.36208  0.39397  0.26133  1.0000
  H   H336      1.0  0.40226  0.50423  0.28668  1.0000
  H   H337      1.0  0.35423  0.40547  0.30501  1.0000
  C   C210      1.0  0.46534  0.48699  0.48282  1.0000
  H   H338      1.0  0.36033  0.38581  0.31321  1.0000
  H   H339      1.0  0.41243  0.56036  0.25102  1.0000
  H   H340      1.0  0.42618  0.52482  0.29197  1.0000
  C   C211      1.0  0.36749  0.41200  0.24219  1.0000
  C   C212      1.0  0.47616  0.48163  0.42899  1.0000
  N   N22       1.0  0.40521  0.53079  0.26437  1.0000
  C   C213      1.0  0.38403  0.52455  0.26414  1.0000
  C   C214      1.0  0.41602  0.55230  0.27090  1.0000
  C   C215      1.0  0.41041  0.52581  0.23128  1.0000
  C   C216      1.0  0.41029  0.52051  0.29102  1.0000
  H   H341      1.0  0.37533  0.50844  0.25964  1.0000
  H   H342      1.0  0.37966  0.53161  0.24381  1.0000
  H   H343      1.0  0.37957  0.52858  0.28828  1.0000
  H   H344      1.0  0.41221  0.55669  0.29536  1.0000
  H   H345      1.0  0.43210  0.55764  0.27145  1.0000
  C   C217      1.0  0.48265  0.64781  0.03817  1.0000
  C   C218      1.0  0.48762  0.51628  0.37005  1.0000
  H   H346      1.0  0.33142  0.38564  0.25812  1.0000
  H   H347      1.0  0.27411  0.47130  0.06675  1.0000
  C   C219      1.0  0.26698  0.50168  0.08171  1.0000
  H   H348      1.0  0.45381  0.47141  0.48249  1.0000
  H   H349      1.0  0.29964  0.51717  0.12015  1.0000
  C   C220      1.0  0.41972  0.60269  0.04236  1.0000
  H   H350      1.0  0.46625  0.40815  0.27697  1.0000
  C   C221      1.0  0.28601  0.48399  0.08091  1.0000
  H   H351      1.0  0.31626  0.51984  0.08770  1.0000
  H   H352      1.0  0.47927  0.52246  0.38248  1.0000
  H   H353      1.0  0.41956  0.65146  0.21763  1.0000
  C   C222      1.0  0.47574  0.42425  0.27916  1.0000
  H   H354      1.0  0.43351  0.61471  0.05373  1.0000
  H   H355      1.0  0.28840  0.52001  0.02950  1.0000
  N   N23       1.0  0.48243  0.48905  0.46406  1.0000
  H   H356      1.0  0.48036  0.46163  0.48060  1.0000
  H   H357      1.0  0.41718  0.58881  0.05471  1.0000
  H   H358      1.0  0.48884  0.48433  0.41328  1.0000
  H   H359      1.0  0.27771  0.49387  0.02077  1.0000
  H   H360      1.0  0.48770  0.40431  0.23706  1.0000
  C   C223      1.0  0.49158  0.65021  0.00712  1.0000
  C   C224      1.0  0.49887  0.36909  0.03479  1.0000
  H   H361      1.0  0.49650  0.40528  0.29695  1.0000
  C   C225      1.0  0.49705  0.51002  0.46407  1.0000
  H   H362      1.0  0.43501  0.58254  0.00819  1.0000
  S   S93       1.0  0.48429  0.33781  0.18160  1.0000
  Fe  Fe42      1.0  0.47772  0.64831  0.84604  1.0000
  Fe  Fe43      1.0  0.49508  0.36436  0.85736  1.0000
  S   S94       1.0  0.45120  0.62963  0.81247  1.0000
  Fe  Fe44      1.0  0.35525  0.54220  0.87554  1.0000
  S   S95       1.0  0.35429  0.51249  0.87730  1.0000
  S   S96       1.0  0.38310  0.56746  0.89711  1.0000
  Fe  Fe45      1.0  0.31187  0.52494  0.85206  1.0000
  S   S97       1.0  0.30787  0.49390  0.85203  1.0000
  S   S98       1.0  0.28951  0.53574  0.83806  1.0000
  Fe  Fe46      1.0  0.32554  0.50341  0.90127  1.0000
  S   S99       1.0  0.31842  0.48604  0.94871  1.0000
  Fe  Fe47      1.0  0.33723  0.50589  0.82806  1.0000
  S   S100      1.0  0.34360  0.49384  0.77943  1.0000
  S   S101      1.0  0.32749  0.53350  0.90270  1.0000
  S   S102      1.0  0.34012  0.53651  0.82460  1.0000
  C   C226      1.0  0.38424  0.37393  0.61910  1.0000
  Fe  Fe48      1.0  0.49055  0.65415  0.91953  1.0000
  H   H363      1.0  0.38679  0.34025  0.61140  1.0000
  N   N24       1.0  0.40213  0.37185  0.61389  1.0000
  S   S103      1.0  0.46897  0.36991  0.84490  1.0000
  H   H364      1.0  0.38758  0.38776  0.63360  1.0000
  Fe  Fe49      1.0  0.41164  0.43158  0.64563  1.0000
  S   S104      1.0  0.41764  0.46074  0.66981  1.0000
  S   S105      1.0  0.39505  0.42071  0.59479  1.0000
  Fe  Fe50      1.0  0.43500  0.42253  0.70164  1.0000
  S   S106      1.0  0.44337  0.45137  0.72895  1.0000
  S   S107      1.0  0.44877  0.40187  0.70944  1.0000
  Fe  Fe51      1.0  0.41202  0.44536  0.71905  1.0000
  S   S108      1.0  0.39778  0.45126  0.76479  1.0000
  Fe  Fe52      1.0  0.44800  0.46449  0.67803  1.0000
  S   S109      1.0  0.47394  0.49091  0.66042  1.0000
  S   S110      1.0  0.40324  0.41533  0.69441  1.0000
  S   S111      1.0  0.44238  0.43643  0.65122  1.0000
  C   C227      1.0  0.40707  0.42500  0.55591  1.0000
  C   C228      1.0  0.42741  0.43320  0.55494  1.0000
  C   C229      1.0  0.49094  0.45125  0.74831  1.0000
  H   H365      1.0  0.43622  0.43800  0.57806  1.0000
  C   C230      1.0  0.41552  0.38796  0.59311  1.0000
  H   H366      1.0  0.29530  0.48037  0.74778  1.0000
  C   C231      1.0  0.46484  0.38023  0.80761  1.0000
  C   C232      1.0  0.47288  0.37895  0.77707  1.0000
  C   C233      1.0  0.46771  0.38555  0.74734  1.0000
  C   C234      1.0  0.45504  0.39417  0.74791  1.0000
  C   C235      1.0  0.44748  0.39600  0.77860  1.0000
  C   C236      1.0  0.45212  0.38877  0.80813  1.0000
  H   H367      1.0  0.42562  0.37156  0.64415  1.0000
  H   H368      1.0  0.47356  0.38393  0.72373  1.0000
  H   H369      1.0  0.30751  0.53284  0.73338  1.0000
  C   C237      1.0  0.33090  0.50016  0.98523  1.0000
  C   C238      1.0  0.26367  0.52375  0.84054  1.0000
  C   C239      1.0  0.34304  0.52039  0.98357  1.0000
  H   H370      1.0  0.38943  0.35170  0.57147  1.0000
  H   H371      1.0  0.34582  0.52731  0.95958  1.0000
  C   C240      1.0  0.35905  0.48240  0.77592  1.0000
  C   C241      1.0  0.36494  0.47962  0.74390  1.0000
  C   C242      1.0  0.37702  0.47041  0.73999  1.0000
  C   C243      1.0  0.38321  0.46369  0.76812  1.0000
  C   C244      1.0  0.37747  0.46668  0.80017  1.0000
  C   C245      1.0  0.36550  0.47600  0.80410  1.0000
  H   H372      1.0  0.36002  0.48447  0.72189  1.0000
  H   H373      1.0  0.38126  0.46820  0.71518  1.0000
  H   H374      1.0  0.38204  0.46142  0.82207  1.0000
  H   H375      1.0  0.36088  0.47774  0.82884  1.0000
  H   H376      1.0  0.42506  0.61890  0.96228  1.0000
  C   C246      1.0  0.39686  0.35277  0.59643  1.0000
  H   H377      1.0  0.47890  0.43839  0.68407  1.0000
  H   H378      1.0  0.30589  0.53037  0.77803  1.0000
  H   H379      1.0  0.26212  0.50065  0.77563  1.0000
  H   H380      1.0  0.26576  0.50376  0.71366  1.0000
  N   N25       1.0  0.42073  0.60093  0.00541  1.0000
  C   C247      1.0  0.41190  0.37280  0.64689  1.0000
  H   H381      1.0  0.43763  0.40248  0.77950  1.0000
  H   H382      1.0  0.28654  0.53164  0.75432  1.0000
  H   H383      1.0  0.47457  0.49116  0.73331  1.0000
  C   C248      1.0  0.43179  0.61273  0.83562  1.0000
  C   C249      1.0  0.43438  0.61145  0.87024  1.0000
  C   C250      1.0  0.41921  0.59759  0.88856  1.0000
  C   C251      1.0  0.40118  0.58504  0.87265  1.0000
  C   C252      1.0  0.39835  0.58645  0.83805  1.0000
  C   C253      1.0  0.41372  0.60019  0.81950  1.0000
  H   H384      1.0  0.44811  0.62117  0.88303  1.0000
  H   H385      1.0  0.42158  0.59653  0.91514  1.0000
  H   H386      1.0  0.38435  0.57711  0.82566  1.0000
  H   H387      1.0  0.41159  0.60129  0.79276  1.0000
  C   C254      1.0  0.27327  0.49522  0.77588  1.0000
  H   H388      1.0  0.41599  0.38705  0.66059  1.0000
  C   C255      1.0  0.29724  0.52564  0.75375  1.0000
  H   H389      1.0  0.42911  0.38683  0.58833  1.0000
  C   C256      1.0  0.49277  0.50253  0.69087  1.0000
  S   S112      1.0  0.47683  0.66851  0.88696  1.0000
  H   H390      1.0  0.40851  0.38807  0.56828  1.0000
  H   H391      1.0  0.40237  0.58289  0.96380  1.0000
  C   C257      1.0  0.48927  0.49980  0.72520  1.0000
  H   H392      1.0  0.40228  0.36094  0.66344  1.0000
  H   H393      1.0  0.28075  0.49908  0.80124  1.0000
  H   H394      1.0  0.47652  0.43787  0.74633  1.0000
  H   H395      1.0  0.26085  0.49528  0.85257  1.0000
  C   C258      1.0  0.27692  0.49838  0.71589  1.0000
  S   S113      1.0  0.48969  0.63273  0.87933  1.0000
  N   N26       1.0  0.40750  0.53719  0.82180  1.0000
  C   C259      1.0  0.38972  0.53932  0.81438  1.0000
  C   C260      1.0  0.40431  0.52458  0.85108  1.0000
  C   C261      1.0  0.42408  0.55682  0.82965  1.0000
  C   C262      1.0  0.41174  0.52803  0.79216  1.0000
  H   H396      1.0  0.37705  0.52488  0.80765  1.0000
  H   H397      1.0  0.39163  0.54916  0.79302  1.0000
  H   H398      1.0  0.38571  0.54554  0.83659  1.0000
  H   H399      1.0  0.41738  0.52252  0.85743  1.0000
  H   H400      1.0  0.40095  0.53104  0.87383  1.0000
  H   H401      1.0  0.39179  0.50971  0.84604  1.0000
  H   H402      1.0  0.42648  0.56700  0.80859  1.0000
  H   H403      1.0  0.43788  0.55591  0.83470  1.0000
  H   H404      1.0  0.42143  0.56387  0.85235  1.0000
  H   H405      1.0  0.42497  0.52600  0.79684  1.0000
  H   H406      1.0  0.41409  0.53712  0.76957  1.0000
  H   H407      1.0  0.39943  0.51322  0.78558  1.0000
  C   C263      1.0  0.39595  0.41907  0.52536  1.0000
  N   N27       1.0  0.28738  0.50398  0.74912  1.0000
  H   H408      1.0  0.49804  0.45096  0.77290  1.0000
  H   H409      1.0  0.26547  0.47888  0.77325  1.0000
  H   H410      1.0  0.48806  0.46421  0.74914  1.0000
  H   H411      1.0  0.45216  0.44106  0.52373  1.0000
  H   H412      1.0  0.49825  0.36615  0.98041  1.0000
  C   C264      1.0  0.42397  0.61961  0.99011  1.0000
  H   H413      1.0  0.38021  0.41272  0.52575  1.0000
  H   H414      1.0  0.48268  0.37243  0.77620  1.0000
  S   S114      1.0  0.47680  0.64352  0.96972  1.0000
  C   C265      1.0  0.49296  0.45206  0.68780  1.0000
  C   C266      1.0  0.30208  0.49667  0.75112  1.0000
  C   C267      1.0  0.43644  0.43502  0.52397  1.0000
  H   H415      1.0  0.41992  0.40254  0.60572  1.0000
  H   H416      1.0  0.38951  0.58750  0.99681  1.0000
  H   H417      1.0  0.31324  0.50312  0.73171  1.0000
  H   H418      1.0  0.49613  0.48276  0.50671  1.0000
  H   H419      1.0  0.37711  0.37459  0.59473  1.0000
  H   H420      1.0  0.26131  0.54999  0.82882  1.0000
  H   H421      1.0  0.41004  0.35077  0.59197  1.0000
  H   H422      1.0  0.39919  0.57042  0.00268  1.0000
  H   H423      1.0  0.44572  0.38974  0.83155  1.0000
  H   H424      1.0  0.28716  0.50467  0.69509  1.0000
  H   H425      1.0  0.37340  0.36158  0.63340  1.0000
  H   H426      1.0  0.31007  0.50054  0.77604  1.0000
  H   H427      1.0  0.41191  0.62330  0.99523  1.0000
  C   C268      1.0  0.40217  0.58475  0.99160  1.0000
  C   C269      1.0  0.25315  0.50373  0.84704  1.0000
  H   H428      1.0  0.49539  0.54876  0.79032  1.0000
  H   H429      1.0  0.49278  0.42079  0.71649  1.0000
  H   H430      1.0  0.26926  0.48211  0.71169  1.0000
  H   H431      1.0  0.43862  0.59583  0.96993  1.0000
  C   C270      1.0  0.25334  0.53450  0.83391  1.0000
  H   H432      1.0  0.46941  0.49200  0.50965  1.0000
  H   H433      1.0  0.43788  0.63213  0.99992  1.0000
  C   C271      1.0  0.43708  0.59669  0.99760  1.0000
  H   H434      1.0  0.48948  0.46464  0.68726  1.0000
  H   H435      1.0  0.46095  0.71227  0.23148  1.0000
  H   H436      1.0  0.33867  0.77109  0.21160  1.0000
  H   H437      1.0  0.26632  0.79887  0.18653  1.0000
  C   C272      1.0  0.42284  0.68803  0.22409  1.0000
  C   C273      1.0  0.48903  0.72978  0.18346  1.0000
  Fe  Fe53      1.0  0.47713  0.83903  0.14419  1.0000
  S   S115      1.0  0.45295  0.84543  0.12412  1.0000
  H   H438      1.0  0.37271  0.79609  0.26040  1.0000
  Fe  Fe54      1.0  0.33489  0.84377  0.14422  1.0000
  S   S116      1.0  0.33586  0.81896  0.17180  1.0000
  S   S117      1.0  0.32616  0.83457  0.08936  1.0000
  Fe  Fe55      1.0  0.34168  0.86843  0.20893  1.0000
  S   S118      1.0  0.34214  0.84485  0.24116  1.0000
  S   S119      1.0  0.34467  0.89779  0.23018  1.0000
  Fe  Fe56      1.0  0.36112  0.84208  0.20175  1.0000
  S   S120      1.0  0.38534  0.83548  0.22084  1.0000
  Fe  Fe57      1.0  0.31654  0.82291  0.20887  1.0000
  S   S121      1.0  0.29462  0.79389  0.23101  1.0000
  S   S122      1.0  0.36226  0.86691  0.17089  1.0000
  S   S123      1.0  0.31409  0.84672  0.17985  1.0000
  Fe  Fe58      1.0  0.42039  0.99158  0.35000  1.0000
  S   S124      1.0  0.41212  0.96031  0.33017  1.0000
  C   C274      1.0  0.36390  0.91524  0.25720  1.0000
  C   C275      1.0  0.37824  0.91115  0.27202  1.0000
  C   C276      1.0  0.39292  0.92519  0.29399  1.0000
  C   C277      1.0  0.39361  0.94358  0.30121  1.0000
  C   C278      1.0  0.37938  0.94777  0.28620  1.0000
  C   C279      1.0  0.36456  0.93362  0.26453  1.0000
  H   H439      1.0  0.37795  0.89710  0.26670  1.0000
  H   H440      1.0  0.40384  0.92177  0.30540  1.0000
  H   H441      1.0  0.37972  0.96186  0.29126  1.0000
  H   H442      1.0  0.35357  0.93696  0.25315  1.0000
  H   H443      1.0  0.48179  0.90814  0.26525  1.0000
  C   C280      1.0  0.27062  0.77753  0.21520  1.0000
  H   H444      1.0  0.43020  0.67190  0.16841  1.0000
  C   C281      1.0  0.43357  0.84163  0.15033  1.0000
  C   C282      1.0  0.41991  0.84806  0.14033  1.0000
  C   C283      1.0  0.40483  0.84599  0.16154  1.0000
  C   C284      1.0  0.40347  0.83761  0.19294  1.0000
  C   C285      1.0  0.41702  0.83105  0.20281  1.0000
  C   C286      1.0  0.43193  0.83291  0.18145  1.0000
  H   H445      1.0  0.42110  0.85481  0.11626  1.0000
  H   H446      1.0  0.39442  0.85109  0.15378  1.0000
  H   H447      1.0  0.41595  0.82443  0.22698  1.0000
  H   H448      1.0  0.44210  0.82754  0.18906  1.0000
  C   C287      1.0  0.48781  0.76117  0.18658  1.0000
  S   S125      1.0  0.48420  0.81680  0.11921  1.0000
  H   H449      1.0  0.34156  0.93361  0.41818  1.0000
  H   H450      1.0  0.47476  0.87035  0.18001  1.0000
  H   H451      1.0  0.49473  0.77242  0.11039  1.0000
  H   H452      1.0  0.36697  0.89565  0.03121  1.0000
  C   C288      1.0  0.33651  0.84912  0.05458  1.0000
  C   C289      1.0  0.34970  0.86917  0.05779  1.0000
  H   H453      1.0  0.35928  0.76971  0.25916  1.0000
  H   H454      1.0  0.35407  0.87626  0.08256  1.0000
  H   H455      1.0  0.36177  0.78345  0.29781  1.0000
  H   H456      1.0  0.38586  0.93048  0.38866  1.0000
  H   H457      1.0  0.40928  0.67756  0.20980  1.0000
  H   H458      1.0  0.45526  0.67944  0.17949  1.0000
  H   H459      1.0  0.40050  0.85870  0.03231  1.0000
  C   C290      1.0  0.48421  0.88454  0.19368  1.0000
  H   H460      1.0  0.48355  0.71502  0.17286  1.0000
  S   S126      1.0  0.47596  0.77526  0.17440  1.0000
  H   H461      1.0  0.35730  0.92800  0.44510  1.0000
  H   H462      1.0  0.35471  0.95416  0.36866  1.0000
  H   H463      1.0  0.49276  0.86034  0.00919  1.0000
  H   H464      1.0  0.37466  0.85005  0.02671  1.0000
  C   C291      1.0  0.45649  0.69690  0.23902  1.0000
  H   H465      1.0  0.42693  0.70305  0.21494  1.0000
  S   S127      1.0  0.43482  0.99890  0.40216  1.0000
  N   N28       1.0  0.47486  0.88710  0.22403  1.0000
  N   N29       1.0  0.37171  0.94750  0.40535  1.0000
  H   H466      1.0  0.32597  0.78555  0.21574  1.0000
  H   H467      1.0  0.35206  0.79742  0.21311  1.0000
  H   H468      1.0  0.46056  0.85613  0.23318  1.0000
  N   N30       1.0  0.43878  0.68265  0.21970  1.0000
  S   S128      1.0  0.49136  0.67861  0.15402  1.0000
  H   H469      1.0  0.34428  0.80354  0.30356  1.0000
  H   H470      1.0  0.32065  0.82459  0.01985  1.0000
  H   H471      1.0  0.49833  0.88455  0.20029  1.0000
  C   C292      1.0  0.35449  0.93078  0.41860  1.0000
  H   H472      1.0  0.38963  0.97828  0.41693  1.0000
  H   H473      1.0  0.46916  0.69396  0.23493  1.0000
  N   N31       1.0  0.34156  0.78467  0.26075  1.0000
  C   C293      1.0  0.32439  0.76769  0.27357  1.0000
  C   C294      1.0  0.34277  0.80305  0.27562  1.0000
  C   C295      1.0  0.33948  0.78467  0.22369  1.0000
  C   C296      1.0  0.35961  0.78336  0.27001  1.0000
  H   H474      1.0  0.32288  0.75353  0.26273  1.0000
  H   H475      1.0  0.31064  0.76851  0.26680  1.0000
  H   H476      1.0  0.32537  0.76721  0.30148  1.0000
  H   H477      1.0  0.35552  0.81621  0.26649  1.0000
  H   H478      1.0  0.32949  0.80466  0.26895  1.0000
  H   H479      1.0  0.38034  0.96373  0.45299  1.0000
  H   H480      1.0  0.48727  0.89648  0.17572  1.0000
  C   C297      1.0  0.36723  0.95073  0.37030  1.0000
  H   H481      1.0  0.37993  0.96321  0.35949  1.0000
  H   H482      1.0  0.35047  0.91702  0.40330  1.0000
  H   H483      1.0  0.45418  0.69636  0.26656  1.0000
  H   H484      1.0  0.48393  0.86956  0.25442  1.0000
  H   H485      1.0  0.40198  0.95586  0.39806  1.0000
  C   C298      1.0  0.35695  0.88010  0.02872  1.0000
  C   C299      1.0  0.37669  0.96543  0.42635  1.0000
  H   H486      1.0  0.49218  0.91858  0.22602  1.0000
  C   C300      1.0  0.48057  0.74181  0.17339  1.0000
  C   C301      1.0  0.38659  0.84584  0.02357  1.0000
  C   C302      1.0  0.38848  0.94309  0.40610  1.0000
  H   H487      1.0  0.39168  0.93958  0.43185  1.0000
  H   H488      1.0  0.44893  0.88938  0.23626  1.0000
  H   H489      1.0  0.41929  0.68792  0.25106  1.0000
  H   H490      1.0  0.44709  0.69770  0.17311  1.0000
  S   S129      1.0  0.47974  0.82918  0.19595  1.0000
  C   C303      1.0  0.33085  0.84009  0.02244  1.0000
  C   C304      1.0  0.45656  0.88773  0.21399  1.0000
  H   H491      1.0  0.46840  0.73614  0.15519  1.0000
  Fe  Fe59      1.0  0.48955  0.80866  0.17108  1.0000
  C   C305      1.0  0.25984  0.78376  0.19421  1.0000
  H   H492      1.0  0.38389  0.83367  0.04092  1.0000
  C   C306      1.0  0.47042  0.87041  0.24626  1.0000
  H   H493      1.0  0.45936  0.90017  0.19727  1.0000
  H   H494      1.0  0.36360  0.93756  0.35358  1.0000
  H   H495      1.0  0.36452  0.96944  0.42638  1.0000
  C   C307      1.0  0.44301  0.68301  0.18360  1.0000
  C   C308      1.0  0.48832  0.90567  0.24216  1.0000
  H   H496      1.0  0.46320  0.87172  0.26932  1.0000
  H   H497      1.0  0.44621  0.87400  0.19992  1.0000
  C   C309      1.0  0.26180  0.75790  0.22540  1.0000
  H   H498      1.0  0.26991  0.75293  0.24185  1.0000
  H   H499      1.0  0.48893  0.99285  0.30703  1.0000
  H   H500      1.0  0.25456  0.75218  0.08369  1.0000
  H   H501      1.0  0.46067  0.77547  0.83999  1.0000
  H   H502      1.0  0.27971  0.81974  0.93736  1.0000
  H   H503      1.0  0.44187  0.79418  0.83063  1.0000
  H   H504      1.0  0.46929  0.89827  0.79545  1.0000
  Fe  Fe60      1.0  0.48080  0.83758  0.82132  1.0000
  C   C310      1.0  0.28575  0.77920  0.85013  1.0000
  S   S130      1.0  0.45418  0.83519  0.79278  1.0000
  H   H505      1.0  0.41236  0.94099  0.81783  1.0000
  H   H506      1.0  0.42627  0.78917  0.79394  1.0000
  S   S131      1.0  0.48111  0.81759  0.86134  1.0000
  Fe  Fe61      1.0  0.32460  0.83561  0.86300  1.0000
  S   S132      1.0  0.33559  0.86857  0.86753  1.0000
  S   S133      1.0  0.29138  0.81728  0.86390  1.0000
  Fe  Fe62      1.0  0.36616  0.84013  0.87180  1.0000
  S   S134      1.0  0.37974  0.87292  0.87771  1.0000
  S   S135      1.0  0.38474  0.82526  0.88497  1.0000
  Fe  Fe63      1.0  0.35470  0.86764  0.91043  1.0000
  S   S136      1.0  0.36002  0.88468  0.96013  1.0000
  Fe  Fe64      1.0  0.35966  0.87104  0.83413  1.0000
  S   S137      1.0  0.37329  0.89063  0.78969  1.0000
  S   S138      1.0  0.34253  0.83492  0.90778  1.0000
  S   S139      1.0  0.34730  0.83800  0.82609  1.0000
  H   H507      1.0  0.46858  0.88964  0.71954  1.0000
  S   S140      1.0  0.38492  0.97643  0.75557  1.0000
  S   S141      1.0  0.43090  0.99130  0.69707  1.0000
  H   H508      1.0  0.46549  0.97463  0.80785  1.0000
  H   H509      1.0  0.30519  0.88216  0.95385  1.0000
  C   C311      1.0  0.40346  0.83466  0.98500  1.0000
  C   C312      1.0  0.44189  0.99040  0.82346  1.0000
  H   H510      1.0  0.33349  0.84381  0.96925  1.0000
  H   H511      1.0  0.28013  0.74953  0.83687  1.0000
  C   C313      1.0  0.37506  0.91390  0.77979  1.0000
  C   C314      1.0  0.36697  0.92343  0.79951  1.0000
  C   C315      1.0  0.36947  0.94227  0.79105  1.0000
  C   C316      1.0  0.38040  0.95192  0.76330  1.0000
  C   C317      1.0  0.38805  0.94215  0.74318  1.0000
  C   C318      1.0  0.38541  0.92330  0.75143  1.0000
  H   H512      1.0  0.35883  0.91631  0.82123  1.0000
  H   H513      1.0  0.36327  0.94959  0.80654  1.0000
  H   H514      1.0  0.39608  0.94917  0.72130  1.0000
  H   H515      1.0  0.39150  0.91594  0.73576  1.0000
  H   H516      1.0  0.30061  0.78580  0.84194  1.0000
  C   C319      1.0  0.43202  0.78223  0.81260  1.0000
  H   H517      1.0  0.44754  0.94931  0.81074  1.0000
  H   H518      1.0  0.42184  0.97390  0.76699  1.0000
  H   H519      1.0  0.40449  0.86987  0.97374  1.0000
  C   C320      1.0  0.43540  0.83352  0.81883  1.0000
  C   C321      1.0  0.41988  0.83632  0.80540  1.0000
  C   C322      1.0  0.40453  0.83447  0.82577  1.0000
  C   C323      1.0  0.40441  0.82928  0.85937  1.0000
  C   C324      1.0  0.41997  0.82653  0.87273  1.0000
  C   C325      1.0  0.43557  0.82897  0.85269  1.0000
  H   H520      1.0  0.41963  0.83983  0.77921  1.0000
  H   H521      1.0  0.39252  0.83653  0.81527  1.0000
  H   H522      1.0  0.41997  0.82255  0.89870  1.0000
  H   H523      1.0  0.44754  0.82699  0.86344  1.0000
  H   H524      1.0  0.43617  0.74906  0.75968  1.0000
  C   C326      1.0  0.33821  0.85094  0.99366  1.0000
  H   H525      1.0  0.43024  0.99479  0.81761  1.0000
  H   H526      1.0  0.40429  0.83008  0.95852  1.0000
  H   H527      1.0  0.47589  0.87967  0.80850  1.0000
  H   H528      1.0  0.46932  0.79911  0.79418  1.0000
  H   H529      1.0  0.39182  0.85271  0.93944  1.0000
  C   C327      1.0  0.45869  0.78708  0.77717  1.0000
  H   H530      1.0  0.44485  0.99215  0.85117  1.0000
  C   C328      1.0  0.43253  0.96855  0.77443  1.0000
  C   C329      1.0  0.42874  0.75667  0.77258  1.0000
  N   N32       1.0  0.48795  0.89295  0.76184  1.0000
  H   H531      1.0  0.41952  0.77169  0.82692  1.0000
  C   C330      1.0  0.45022  0.76396  0.82186  1.0000
  H   H532      1.0  0.37865  0.86048  0.96721  1.0000
  H   H533      1.0  0.46700  0.78033  0.76456  1.0000
  H   H534      1.0  0.35619  0.82621  0.98007  1.0000
  H   H535      1.0  0.40595  0.96062  0.82227  1.0000
  C   C331      1.0  0.35118  0.87097  0.99655  1.0000
  C   C332      1.0  0.27408  0.75862  0.84724  1.0000
  H   H536      1.0  0.27020  0.86125  0.96577  1.0000
  N   N33       1.0  0.44242  0.77249  0.79608  1.0000
  H   H537      1.0  0.42260  0.76261  0.75278  1.0000
  H   H538      1.0  0.48766  0.74665  0.79985  1.0000
  H   H539      1.0  0.31954  0.87088  0.93913  1.0000
  C   C333      1.0  0.47219  0.88610  0.78620  1.0000
  H   H540      1.0  0.27045  0.83921  0.89996  1.0000
  C   C334      1.0  0.27794  0.79119  0.86252  1.0000
  N   N34       1.0  0.28920  0.85081  0.94450  1.0000
  H   H541      1.0  0.27708  0.84700  0.99346  1.0000
  C   C335      1.0  0.41781  0.95647  0.82744  1.0000
  C   C336      1.0  0.48224  0.90099  0.73243  1.0000
  H   H542      1.0  0.28061  0.86549  0.90675  1.0000
  C   C337      1.0  0.29272  0.83344  0.94659  1.0000
  H   H543      1.0  0.45841  0.75675  0.81027  1.0000
  H   H544      1.0  0.36866  0.81805  0.95122  1.0000
  H   H545      1.0  0.41994  0.95666  0.85525  1.0000
  C   C338      1.0  0.25852  0.78232  0.87282  1.0000
  H   H546      1.0  0.45345  0.79404  0.75774  1.0000
  H   H547      1.0  0.47965  0.91365  0.73996  1.0000
  C   C339      1.0  0.49124  0.87624  0.75057  1.0000
  C   C340      1.0  0.28364  0.85270  0.90936  1.0000
  C   C341      1.0  0.45163  0.96461  0.81979  1.0000
  C   C342      1.0  0.30719  0.86870  0.95529  1.0000
  H   H548      1.0  0.49384  0.90629  0.71353  1.0000
  N   N35       1.0  0.43597  0.97000  0.81133  1.0000
  H   H549      1.0  0.30497  0.83502  0.93069  1.0000
  H   H550      1.0  0.41628  0.74537  0.78601  1.0000
  H   H551      1.0  0.42682  0.95314  0.76453  1.0000
  H   H552      1.0  0.43840  0.75282  0.83662  1.0000
  H   H553      1.0  0.45532  0.00106  0.81123  1.0000
  H   H554      1.0  0.45466  0.96552  0.84747  1.0000
  H   H555      1.0  0.29547  0.85475  0.89202  1.0000
  H   H556      1.0  0.29646  0.83121  0.97287  1.0000
  C   C343      1.0  0.27326  0.84840  0.96674  1.0000
  C   C344      1.0  0.36865  0.82277  0.97790  1.0000
  C   C345      1.0  0.25465  0.74976  0.85738  1.0000
  N   N36       1.0  0.38737  0.83994  0.98821  1.0000
  H   H557      1.0  0.45824  0.87437  0.77474  1.0000
  C   C346      1.0  0.39076  0.85648  0.96623  1.0000
  H   H558      1.0  0.25231  0.79145  0.88236  1.0000
  H   H559      1.0  0.44613  0.97754  0.76120  1.0000
  H   H560      1.0  0.25950  0.83498  0.95931  1.0000
  Fe  Fe65      1.0  0.41063  0.99864  0.72694  1.0000
  H   H561      1.0  0.40146  0.82226  0.00131  1.0000
  H   H562      1.0  0.41784  0.84730  0.99234  1.0000
  H   H563      1.0  0.31188  0.86784  0.98171  1.0000
  H   H564      1.0  0.36568  0.80996  0.99379  1.0000
  H   H565      1.0  0.47766  0.86400  0.73906  1.0000
  H   H566      1.0  0.49505  0.72090  0.82366  1.0000
  H   H567      1.0  0.49595  0.87009  0.77206  1.0000
  C   C347      1.0  0.49775  0.75032  0.82134  1.0000
  Fe  Fe66      1.0  0.68188  0.16786  0.10889  1.0000
  S   S142      1.0  0.68387  0.19769  0.11776  1.0000
  S   S143      1.0  0.69774  0.16574  0.06344  1.0000
  Fe  Fe67      1.0  0.65889  0.15098  0.17309  1.0000
  S   S144      1.0  0.66009  0.18033  0.18705  1.0000
  S   S145      1.0  0.63614  0.12243  0.19585  1.0000
  Fe  Fe68      1.0  0.65262  0.18146  0.13225  1.0000
  S   S146      1.0  0.62790  0.18542  0.10752  1.0000
  Fe  Fe69      1.0  0.69155  0.19422  0.17112  1.0000
  S   S147      1.0  0.71895  0.21803  0.19845  1.0000
  S   S148      1.0  0.65011  0.15186  0.11882  1.0000
  S   S149      1.0  0.69097  0.16472  0.16167  1.0000
  Fe  Fe70      1.0  0.55559  0.00825  0.30772  1.0000
  S   S150      1.0  0.52829  0.00814  0.28655  1.0000
  N   N37       1.0  0.62979  0.01924  0.22412  1.0000
  C   C348      1.0  0.52900  0.03475  0.33397  1.0000
  C   C349      1.0  0.58260  0.27769  0.22260  1.0000
  H   H568      1.0  0.59438  0.27547  0.23561  1.0000
  Fe  Fe71      1.0  0.59976  0.02979  0.31402  1.0000
  S   S151      1.0  0.62787  0.05704  0.30153  1.0000
  S   S152      1.0  0.57631  0.02852  0.34819  1.0000
  Fe  Fe72      1.0  0.54069  0.19006  0.19142  1.0000
  H   H569      1.0  0.60891  0.01221  0.44595  1.0000
  S   S153      1.0  0.57342  0.20525  0.20049  1.0000
  S   S154      1.0  0.52475  0.20421  0.16428  1.0000
  S   S155      1.0  0.52571  0.18825  0.23944  1.0000
  S   S156      1.0  0.51976  0.15895  0.17495  1.0000
  H   H570      1.0  0.54720  0.23030  0.22168  1.0000
  C   C350      1.0  0.59990  0.00756  0.46765  1.0000
  C   C351      1.0  0.50457  0.24490  0.22046  1.0000
  H   H571      1.0  0.54039  0.24889  0.17803  1.0000
  H   H572      1.0  0.52760  0.17667  0.09013  1.0000
  H   H573      1.0  0.55371  0.01559  0.45833  1.0000
  C   C352      1.0  0.63106  0.01643  0.26062  1.0000
  H   H574      1.0  0.54519  0.26852  0.20794  1.0000
  H   H575      1.0  0.54447  0.04293  0.32986  1.0000
  C   C353      1.0  0.61300  0.19155  0.13293  1.0000
  C   C354      1.0  0.62051  0.20296  0.16265  1.0000
  C   C355      1.0  0.60827  0.20741  0.18275  1.0000
  C   C356      1.0  0.58838  0.20005  0.17374  1.0000
  C   C357      1.0  0.58082  0.18853  0.14415  1.0000
  C   C358      1.0  0.59319  0.18449  0.12358  1.0000
  H   H576      1.0  0.63580  0.20855  0.16991  1.0000
  H   H577      1.0  0.61419  0.21638  0.20560  1.0000
  H   H578      1.0  0.56552  0.18289  0.13693  1.0000
  H   H579      1.0  0.58733  0.17569  0.10055  1.0000
  C   C359      1.0  0.63448  0.10460  0.22555  1.0000
  C   C360      1.0  0.65064  0.10592  0.24446  1.0000
  C   C361      1.0  0.64834  0.09137  0.26781  1.0000
  C   C362      1.0  0.62989  0.07538  0.27268  1.0000
  C   C363      1.0  0.61376  0.07404  0.25370  1.0000
  C   C364      1.0  0.61607  0.08854  0.23032  1.0000
  H   H580      1.0  0.66489  0.11816  0.24116  1.0000
  H   H581      1.0  0.66094  0.09256  0.28228  1.0000
  H   H582      1.0  0.59950  0.06182  0.25700  1.0000
  H   H583      1.0  0.60347  0.08722  0.21571  1.0000
  C   C365      1.0  0.73530  0.24093  0.18148  1.0000
  H   H584      1.0  0.62685  0.04004  0.19161  1.0000
  H   H585      1.0  0.51582  0.03078  0.43563  1.0000
  H   H586      1.0  0.64362  0.19058  0.03910  1.0000
  Fe  Fe73      1.0  0.50835  0.20044  0.21144  1.0000
  H   H587      1.0  0.56562  0.23753  0.16930  1.0000
  C   C366      1.0  0.54174  0.01968  0.46152  1.0000
  C   C367      1.0  0.68324  0.15625  0.02629  1.0000
  C   C368      1.0  0.66374  0.14204  0.02748  1.0000
  H   H588      1.0  0.57624  0.28370  0.24166  1.0000
  H   H589      1.0  0.65743  0.13671  0.05146  1.0000
  C   C369      1.0  0.51770  0.01704  0.31599  1.0000
  H   H590      1.0  0.53955  0.02693  0.39738  1.0000
  C   C370      1.0  0.52023  0.04191  0.35717  1.0000
  C   C371      1.0  0.63633  0.19290  0.01623  1.0000
  H   H591      1.0  0.72642  0.19031  0.11136  1.0000
  H   H592      1.0  0.52893  0.05564  0.37107  1.0000
  H   H593      1.0  0.73565  0.23119  0.05339  1.0000
  H   H594      1.0  0.71752  0.20789  0.06714  1.0000
  H   H595      1.0  0.61460  0.03655  0.23057  1.0000
  H   H596      1.0  0.56977  0.24102  0.24575  1.0000
  C   C372      1.0  0.55219  0.26269  0.18979  1.0000
  H   H597      1.0  0.58335  0.26228  0.16147  1.0000
  C   C373      1.0  0.72940  0.24930  0.15543  1.0000
  C   C374      1.0  0.50738  0.26165  0.23979  1.0000
  H   H598      1.0  0.53743  0.01722  0.48819  1.0000
  C   C375      1.0  0.57656  0.25163  0.18164  1.0000
  H   H599      1.0  0.58810  0.24860  0.19359  1.0000
  C   C376      1.0  0.64767  0.02102  0.20853  1.0000
  H   H600      1.0  0.73786  0.27391  0.12281  1.0000
  H   H601      1.0  0.63186  0.15612  0.01852  1.0000
  H   H602      1.0  0.51926  0.06841  0.25291  1.0000
  C   C377      1.0  0.51000  0.01494  0.44143  1.0000
  H   H603      1.0  0.72636  0.22921  0.09480  1.0000
  C   C378      1.0  0.74270  0.26747  0.14264  1.0000
  N   N38       1.0  0.52502  0.00818  0.43782  1.0000
  H   H604      1.0  0.54701  0.18651  0.03875  1.0000
  C   C379      1.0  0.52104  0.17845  0.06688  1.0000
  H   H605      1.0  0.55168  0.24947  0.25213  1.0000
  C   C380      1.0  0.52354  0.18591  0.00725  1.0000
  H   H606      1.0  0.58953  0.28914  0.20362  1.0000
  Fe  Fe74      1.0  0.50336  0.15803  0.22161  1.0000
  H   H607      1.0  0.54803  0.03574  0.45731  1.0000
  H   H608      1.0  0.62126  0.18961  0.02310  1.0000
  N   N39       1.0  0.56752  0.25910  0.20669  1.0000
  N   N40       1.0  0.59904  0.14596  0.20958  1.0000
  C   C381      1.0  0.58736  0.12443  0.21186  1.0000
  C   C382      1.0  0.58638  0.15556  0.21410  1.0000
  C   C383      1.0  0.60769  0.15050  0.17616  1.0000
  C   C384      1.0  0.61479  0.15341  0.23615  1.0000
  H   H609      1.0  0.57549  0.11834  0.19194  1.0000
  H   H610      1.0  0.58065  0.12041  0.23678  1.0000
  H   H611      1.0  0.59495  0.17184  0.21351  1.0000
  H   H612      1.0  0.57477  0.15096  0.19376  1.0000
  H   H613      1.0  0.57915  0.15206  0.23866  1.0000
  H   H614      1.0  0.61781  0.16639  0.17455  1.0000
  H   H615      1.0  0.59639  0.14651  0.15545  1.0000
  H   H616      1.0  0.61630  0.14252  0.17082  1.0000
  H   H617      1.0  0.62395  0.16963  0.23507  1.0000
  H   H618      1.0  0.62473  0.14662  0.23340  1.0000
  H   H619      1.0  0.60882  0.15015  0.26173  1.0000
  S   S157      1.0  0.50596  0.22505  0.24051  1.0000
  C   C385      1.0  0.53200  0.18398  0.03775  1.0000
  H   H620      1.0  0.71446  0.24197  0.14560  1.0000
  N   N41       1.0  0.74638  0.21713  0.08877  1.0000
  C   C386      1.0  0.55873  0.24440  0.23281  1.0000
  H   H621      1.0  0.51027  0.26220  0.26668  1.0000
  H   H622      1.0  0.55818  0.27354  0.16962  1.0000
  H   H623      1.0  0.62438  0.01887  0.50372  1.0000
  H   H624      1.0  0.59663  0.11688  0.20862  1.0000
  H   H625      1.0  0.64952  0.00757  0.21219  1.0000
  C   C387      1.0  0.73081  0.22157  0.07541  1.0000
  H   H626      1.0  0.50460  0.01310  0.46745  1.0000
  H   H627      1.0  0.54211  0.00497  0.39855  1.0000
  H   H628      1.0  0.73493  0.21176  0.13831  1.0000
  C   C388      1.0  0.73938  0.20456  0.11821  1.0000
  S   S158      1.0  0.57879  0.01159  0.27238  1.0000
  C   C389      1.0  0.53176  0.01106  0.40298  1.0000
  C   C390      1.0  0.50227  0.27700  0.18996  1.0000
  C   C391      1.0  0.62788  0.03736  0.21882  1.0000
  H   H629      1.0  0.64057  0.05053  0.23049  1.0000
  H   H630      1.0  0.66091  0.03378  0.21979  1.0000
  H   H631      1.0  0.73866  0.19264  0.05396  1.0000
  H   H632      1.0  0.50122  0.03459  0.27185  1.0000
  Fe  Fe75      1.0  0.50710  0.32727  0.18858  1.0000
  H   H633      1.0  0.64724  0.02320  0.18097  1.0000
  C   C392      1.0  0.50146  0.17456  0.06551  1.0000
  Fe  Fe76      1.0  0.50239  0.17304  0.15164  1.0000
  H   H634      1.0  0.64383  0.02907  0.27331  1.0000
  H   H635      1.0  0.50690  0.08315  0.24606  1.0000
  C   C393      1.0  0.50506  0.06783  0.24479  1.0000
  C   C394      1.0  0.50637  0.27770  0.22461  1.0000
  H   H636      1.0  0.64423  0.20879  0.01058  1.0000
  H   H637      1.0  0.50763  0.06269  0.31125  1.0000
  H   H638      1.0  0.50839  0.29043  0.23978  1.0000
  H   H639      1.0  0.61792  0.01531  0.27306  1.0000
  C   C395      1.0  0.60863  0.01131  0.50047  1.0000
  C   C396      1.0  0.50021  0.03133  0.36232  1.0000
  C   C397      1.0  0.50084  0.24438  0.18574  1.0000
  H   H640      1.0  0.50201  0.06259  0.21793  1.0000
  C   C398      1.0  0.50419  0.18279  0.00622  1.0000
  Fe  Fe77      1.0  0.68721  0.18311  0.84410  1.0000
  S   S159      1.0  0.67421  0.14992  0.84226  1.0000
  S   S160      1.0  0.72041  0.19926  0.84040  1.0000
  Fe  Fe78      1.0  0.64701  0.18140  0.85261  1.0000
  S   S161      1.0  0.63122  0.14846  0.84935  1.0000
  S   S162      1.0  0.63206  0.19850  0.87311  1.0000
  Fe  Fe79      1.0  0.65557  0.15058  0.88408  1.0000
  S   S163      1.0  0.64585  0.13167  0.92936  1.0000
  Fe  Fe80      1.0  0.65110  0.15058  0.80757  1.0000
  S   S164      1.0  0.64251  0.13334  0.75714  1.0000
  S   S165      1.0  0.67057  0.18338  0.88938  1.0000
  S   S166      1.0  0.66488  0.18388  0.80730  1.0000
  C   C399      1.0  0.70001  0.17390  0.75961  1.0000
  Fe  Fe81      1.0  0.59531  0.01983  0.69269  1.0000
  H   H641      1.0  0.73272  0.17678  0.78947  1.0000
  S   S167      1.0  0.61105  0.04048  0.73799  1.0000
  C   C400      1.0  0.51127  0.11838  0.77789  1.0000
  H   H642      1.0  0.56012  0.30737  0.89232  1.0000
  S   S168      1.0  0.58682  0.02847  0.64362  1.0000
  H   H643      1.0  0.72658  0.15107  0.78546  1.0000
  Fe  Fe82      1.0  0.53308  0.19503  0.84534  1.0000
  S   S169      1.0  0.55596  0.19824  0.80824  1.0000
  S   S170      1.0  0.53444  0.21637  0.88625  1.0000
  C   C401      1.0  0.65256  0.13415  0.99747  1.0000
  H   H644      1.0  0.54751  0.13978  0.75530  1.0000
  H   H645      1.0  0.55281  0.32887  0.97202  1.0000
  H   H646      1.0  0.51040  0.28815  0.92781  1.0000
  C   C402      1.0  0.53534  0.14212  0.81717  1.0000
  H   H647      1.0  0.66395  0.18193  0.00192  1.0000
  H   H648      1.0  0.54194  0.29302  0.97872  1.0000
  H   H649      1.0  0.52202  0.16638  0.78882  1.0000
  H   H650      1.0  0.50474  0.15297  0.96022  1.0000
  H   H651      1.0  0.50062  0.11210  0.79815  1.0000
  C   C403      1.0  0.61020  0.19668  0.85479  1.0000
  C   C404      1.0  0.59790  0.20094  0.87500  1.0000
  C   C405      1.0  0.58098  0.20093  0.86100  1.0000
  C   C406      1.0  0.57659  0.19726  0.82645  1.0000
  C   C407      1.0  0.58875  0.19278  0.80620  1.0000
  C   C408      1.0  0.60541  0.19222  0.82043  1.0000
  H   H652      1.0  0.60158  0.20452  0.90154  1.0000
  H   H653      1.0  0.57170  0.20441  0.87681  1.0000
  H   H654      1.0  0.58548  0.19003  0.77943  1.0000
  H   H655      1.0  0.61495  0.18914  0.80465  1.0000
  C   C409      1.0  0.66063  0.14093  0.96627  1.0000
  H   H656      1.0  0.53437  0.27663  0.94223  1.0000
  H   H657      1.0  0.68107  0.13724  0.73261  1.0000
  H   H658      1.0  0.68639  0.16060  0.94104  1.0000
  H   H659      1.0  0.52529  0.13612  0.83829  1.0000
  C   C410      1.0  0.63445  0.10762  0.75214  1.0000
  C   C411      1.0  0.63274  0.09588  0.77965  1.0000
  C   C412      1.0  0.62595  0.07545  0.77469  1.0000
  C   C413      1.0  0.62069  0.06647  0.74227  1.0000
  C   C414      1.0  0.62266  0.07826  0.71467  1.0000
  C   C415      1.0  0.62949  0.09871  0.71963  1.0000
  H   H660      1.0  0.63654  0.10250  0.80481  1.0000
  H   H661      1.0  0.62458  0.06651  0.79622  1.0000
  H   H662      1.0  0.61894  0.07164  0.68952  1.0000
  H   H663      1.0  0.63088  0.10767  0.69814  1.0000
  C   C416      1.0  0.73551  0.22501  0.83705  1.0000
  C   C417      1.0  0.72793  0.23772  0.82745  1.0000
  H   H664      1.0  0.71236  0.23200  0.82283  1.0000
  C   C418      1.0  0.62677  0.18412  0.95741  1.0000
  S   S171      1.0  0.52469  0.16994  0.87969  1.0000
  H   H665      1.0  0.54453  0.06855  0.70560  1.0000
  H   H666      1.0  0.68986  0.17242  0.73803  1.0000
  C   C419      1.0  0.52116  0.30342  0.93570  1.0000
  N   N42       1.0  0.56234  0.05734  0.73024  1.0000
  C   C420      1.0  0.57679  0.07712  0.74308  1.0000
  C   C421      1.0  0.56037  0.04268  0.75553  1.0000
  C   C422      1.0  0.56897  0.05238  0.69859  1.0000
  H   H667      1.0  0.57966  0.08848  0.72397  1.0000
  H   H668      1.0  0.59102  0.07749  0.74990  1.0000
  H   H669      1.0  0.57186  0.08166  0.76617  1.0000
  H   H670      1.0  0.55538  0.04585  0.77982  1.0000
  H   H671      1.0  0.54972  0.02757  0.74663  1.0000
  H   H672      1.0  0.57457  0.04247  0.76076  1.0000
  H   H673      1.0  0.58301  0.05182  0.70277  1.0000
  H   H674      1.0  0.57116  0.06332  0.67899  1.0000
  H   H675      1.0  0.55817  0.03770  0.68790  1.0000
  C   C423      1.0  0.54482  0.30449  0.89618  1.0000
  H   H676      1.0  0.53508  0.28935  0.88599  1.0000
  C   C424      1.0  0.65643  0.18484  0.98003  1.0000
  H   H677      1.0  0.53231  0.04279  0.71247  1.0000
  H   H678      1.0  0.53062  0.14601  0.73276  1.0000
  H   H679      1.0  0.68218  0.13612  0.77734  1.0000
  C   C425      1.0  0.54330  0.05717  0.72372  1.0000
  C   C426      1.0  0.50945  0.25700  0.83449  1.0000
  N   N43       1.0  0.54143  0.30663  0.93211  1.0000
  H   H680      1.0  0.51839  0.30598  0.96223  1.0000
  S   S172      1.0  0.51333  0.31089  0.81654  1.0000
  H   H681      1.0  0.73156  0.17811  0.72693  1.0000
  C   C427      1.0  0.71902  0.16302  0.72607  1.0000
  H   H682      1.0  0.55965  0.29390  0.94937  1.0000
  N   N44       1.0  0.70764  0.15943  0.75675  1.0000
  H   H683      1.0  0.69178  0.17181  0.78285  1.0000
  H   H684      1.0  0.71223  0.15899  0.81032  1.0000
  H   H685      1.0  0.63758  0.12287  0.99845  1.0000
  C   C428      1.0  0.69143  0.16280  0.99506  1.0000
  H   H686      1.0  0.53726  0.05980  0.74727  1.0000
  H   H687      1.0  0.60978  0.15543  0.00131  1.0000
  C   C429      1.0  0.51446  0.27560  0.82116  1.0000
  Fe  Fe83      1.0  0.52321  0.19026  0.91941  1.0000
  C   C430      1.0  0.69115  0.13931  0.75465  1.0000
  H   H688      1.0  0.70656  0.17371  0.99402  1.0000
  C   C431      1.0  0.68006  0.15537  0.96508  1.0000
  H   H689      1.0  0.71199  0.18929  0.76116  1.0000
  H   H690      1.0  0.52430  0.28059  0.80055  1.0000
  H   H691      1.0  0.54847  0.16342  0.76234  1.0000
  H   H692      1.0  0.63486  0.19968  0.94980  1.0000
  H   H693      1.0  0.72500  0.15235  0.72306  1.0000
  H   H694      1.0  0.51957  0.10976  0.77624  1.0000
  N   N45       1.0  0.52442  0.13953  0.78477  1.0000
  H   H695      1.0  0.69628  0.12794  0.75244  1.0000
  S   S173      1.0  0.53722  0.19114  0.97061  1.0000
  H   H696      1.0  0.65673  0.17559  0.95836  1.0000
  H   H697      1.0  0.73457  0.26741  0.81493  1.0000
  C   C432      1.0  0.51266  0.15024  0.78660  1.0000
  C   C433      1.0  0.59715  0.00546  0.52904  1.0000
  C   C434      1.0  0.72038  0.16160  0.78669  1.0000
  C   C435      1.0  0.55516  0.32665  0.94507  1.0000
  H   H698      1.0  0.50256  0.11584  0.75384  1.0000
  H   H699      1.0  0.66519  0.20047  0.97339  1.0000
  H   H700      1.0  0.57063  0.32968  0.94282  1.0000
  H   H701      1.0  0.54475  0.13463  0.81649  1.0000
  C   C436      1.0  0.74059  0.25783  0.82300  1.0000
  H   H702      1.0  0.54508  0.15795  0.82349  1.0000
  H   H703      1.0  0.51806  0.31369  0.92010  1.0000
  H   H704      1.0  0.70981  0.16159  0.70309  1.0000
  S   S174      1.0  0.60875  0.00959  0.56984  1.0000
  Fe  Fe84      1.0  0.59287  0.00521  0.61910  1.0000
  H   H705      1.0  0.50294  0.14730  0.76377  1.0000
  H   H706      1.0  0.62634  0.17475  0.93526  1.0000
  C   C437      1.0  0.53834  0.14746  0.75751  1.0000
  Fe  Fe85      1.0  0.50275  0.20614  0.87178  1.0000
  H   H707      1.0  0.50343  0.14609  0.80892  1.0000
  C   C438      1.0  0.54450  0.29192  0.95151  1.0000
  H   H708      1.0  0.54197  0.31489  0.88046  1.0000
  C   C439      1.0  0.50696  0.28779  0.83443  1.0000
  H   H709      1.0  0.51535  0.24777  0.82409  1.0000
  H   H710      1.0  0.73592  0.32396  0.84693  1.0000
  H   H711      1.0  0.50710  0.13083  0.95658  1.0000
  S   S175      1.0  0.50207  0.18660  0.82772  1.0000
  C   C440      1.0  0.50009  0.01053  0.66138  1.0000
  H   H712      1.0  0.61150  0.18110  0.96196  1.0000
  S   S176      1.0  0.53086  0.00692  0.63709  1.0000
  H   H713      1.0  0.62503  0.14954  0.97476  1.0000
  N   N46       1.0  0.63617  0.18034  0.98740  1.0000
  C   C441      1.0  0.51542  0.00616  0.66910  1.0000
  C   C442      1.0  0.62519  0.15942  0.99587  1.0000
  C   C443      1.0  0.50729  0.00381  0.72801  1.0000
  Fe  Fe86      1.0  0.59084  0.58528  0.42561  1.0000
  S   S177      1.0  0.57414  0.55339  0.40830  1.0000
  S   S178      1.0  0.60837  0.59624  0.47573  1.0000
  Fe  Fe87      1.0  0.57928  0.59993  0.36039  1.0000
  S   S179      1.0  0.56160  0.56920  0.34002  1.0000
  S   S180      1.0  0.58286  0.62524  0.32683  1.0000
  Fe  Fe88      1.0  0.55122  0.56226  0.39235  1.0000
  S   S181      1.0  0.51945  0.54546  0.40274  1.0000
  Fe  Fe89      1.0  0.58657  0.56350  0.35721  1.0000
  S   S182      1.0  0.59353  0.54758  0.31418  1.0000
  S   S183      1.0  0.56707  0.59348  0.41203  1.0000
  S   S184      1.0  0.60505  0.59490  0.37549  1.0000
  H   H714      1.0  0.74434  0.47747  0.17072  1.0000
  Fe  Fe90      1.0  0.68222  0.52866  0.15858  1.0000
  S   S185      1.0  0.67797  0.49872  0.14368  1.0000
  S   S186      1.0  0.69517  0.55427  0.12453  1.0000
  Fe  Fe91      1.0  0.66877  0.51722  0.22989  1.0000
  S   S187      1.0  0.66427  0.48615  0.22062  1.0000
  S   S188      1.0  0.66291  0.52712  0.28106  1.0000
  Fe  Fe92      1.0  0.69278  0.49994  0.19386  1.0000
  S   S189      1.0  0.71483  0.48800  0.18977  1.0000
  Fe  Fe93      1.0  0.65024  0.48783  0.17139  1.0000
  S   S190      1.0  0.62168  0.46564  0.14660  1.0000
  S   S191      1.0  0.69856  0.53077  0.20740  1.0000
  S   S192      1.0  0.65313  0.51799  0.18205  1.0000
  H   H715      1.0  0.53860  0.66678  0.03658  1.0000
  C   C444      1.0  0.52161  0.61514  0.15624  1.0000
  Fe  Fe94      1.0  0.53928  0.36930  0.20525  1.0000
  S   S193      1.0  0.57100  0.38717  0.22210  1.0000
  C   C445      1.0  0.60795  0.44346  0.16688  1.0000
  C   C446      1.0  0.58813  0.43210  0.15760  1.0000
  C   C447      1.0  0.57669  0.41465  0.17413  1.0000
  C   C448      1.0  0.58508  0.40846  0.19990  1.0000
  C   C449      1.0  0.60498  0.41969  0.20882  1.0000
  C   C450      1.0  0.61640  0.43716  0.19235  1.0000
  H   H716      1.0  0.58152  0.43685  0.13780  1.0000
  H   H717      1.0  0.56138  0.40602  0.16699  1.0000
  H   H718      1.0  0.61157  0.41482  0.22849  1.0000
  H   H719      1.0  0.63177  0.44560  0.19911  1.0000
  H   H720      1.0  0.54346  0.65436  0.16581  1.0000
  H   H721      1.0  0.52585  0.35638  0.08849  1.0000
  C   C451      1.0  0.71462  0.56782  0.03097  1.0000
  C   C452      1.0  0.54449  0.64495  0.18600  1.0000
  H   H722      1.0  0.68754  0.51867  0.01504  1.0000
  C   C453      1.0  0.50795  0.52534  0.37453  1.0000
  C   C454      1.0  0.51880  0.51766  0.35785  1.0000
  H   H723      1.0  0.63816  0.62711  0.24718  1.0000
  H   H724      1.0  0.53455  0.52472  0.36116  1.0000
  H   H725      1.0  0.55792  0.62174  0.21340  1.0000
  C   C455      1.0  0.56219  0.62666  0.30880  1.0000
  C   C456      1.0  0.56483  0.64310  0.29009  1.0000
  C   C457      1.0  0.54869  0.64458  0.27537  1.0000
  C   C458      1.0  0.52713  0.61305  0.29745  1.0000
  C   C459      1.0  0.54322  0.61163  0.31233  1.0000
  H   H726      1.0  0.59999  0.44711  0.04079  1.0000
  C   C460      1.0  0.50468  0.42158  0.29640  1.0000
  H   H727      1.0  0.54091  0.59891  0.32667  1.0000
  C   C461      1.0  0.61348  0.54280  0.30565  1.0000
  C   C462      1.0  0.62797  0.54540  0.33002  1.0000
  C   C463      1.0  0.64321  0.54090  0.32192  1.0000
  C   C464      1.0  0.64436  0.53411  0.28930  1.0000
  C   C465      1.0  0.63012  0.53201  0.26474  1.0000
  C   C466      1.0  0.61467  0.53608  0.27302  1.0000
  H   H728      1.0  0.62722  0.55048  0.35527  1.0000
  H   H729      1.0  0.65410  0.54252  0.34116  1.0000
  H   H730      1.0  0.63088  0.52704  0.23945  1.0000
  H   H731      1.0  0.60357  0.53407  0.25394  1.0000
  C   C467      1.0  0.71083  0.56874  0.06496  1.0000
  C   C468      1.0  0.69880  0.55168  0.08149  1.0000
  C   C469      1.0  0.69045  0.53348  0.06361  1.0000
  H   H732      1.0  0.71728  0.58283  0.07851  1.0000
  H   H733      1.0  0.68112  0.52025  0.07627  1.0000
  H   H734      1.0  0.51255  0.60131  0.30046  1.0000
  C   C470      1.0  0.50642  0.36614  0.06553  1.0000
  C   C471      1.0  0.70615  0.54989  0.01271  1.0000
  C   C472      1.0  0.52298  0.66153  0.03707  1.0000
  S   S194      1.0  0.52915  0.35088  0.15745  1.0000
  N   N47       1.0  0.61057  0.47011  0.27180  1.0000
  C   C473      1.0  0.60943  0.48233  0.30008  1.0000
  C   C474      1.0  0.59129  0.45288  0.26514  1.0000
  C   C475      1.0  0.62523  0.46338  0.28061  1.0000
  C   C476      1.0  0.61641  0.48192  0.24133  1.0000
  H   H735      1.0  0.62400  0.49495  0.30660  1.0000
  H   H736      1.0  0.60433  0.47372  0.32319  1.0000
  H   H737      1.0  0.59932  0.48862  0.29379  1.0000
  H   H738      1.0  0.58658  0.44329  0.28725  1.0000
  H   H739      1.0  0.57986  0.45746  0.25886  1.0000
  H   H740      1.0  0.59160  0.44359  0.24348  1.0000
  H   H741      1.0  0.62655  0.45418  0.25984  1.0000
  H   H742      1.0  0.62131  0.45441  0.30350  1.0000
  H   H743      1.0  0.63997  0.47609  0.28569  1.0000
  H   H744      1.0  0.63102  0.49483  0.24534  1.0000
  H   H745      1.0  0.60589  0.48753  0.23411  1.0000
  H   H746      1.0  0.61730  0.47317  0.21940  1.0000
  C   C477      1.0  0.63798  0.59881  0.31215  1.0000
  H   H747      1.0  0.62749  0.58447  0.32216  1.0000
  H   H748      1.0  0.64151  0.61012  0.33275  1.0000
  H   H749      1.0  0.65155  0.59771  0.30686  1.0000
  Fe  Fe95      1.0  0.51167  0.66511  0.15181  1.0000
  H   H750      1.0  0.63902  0.58692  0.24913  1.0000
  C   C478      1.0  0.61137  0.60406  0.28976  1.0000
  H   H751      1.0  0.57942  0.65490  0.28749  1.0000
  C   C479      1.0  0.64391  0.62300  0.27006  1.0000
  C   C480      1.0  0.72866  0.52851  0.13604  1.0000
  C   C481      1.0  0.63144  0.47912  0.02034  1.0000
  H   H752      1.0  0.73264  0.54359  0.07466  1.0000
  H   H753      1.0  0.53219  0.61106  0.21893  1.0000
  H   H754      1.0  0.55475  0.63756  0.12570  1.0000
  S   S195      1.0  0.51910  0.38279  0.19843  1.0000
  H   H755      1.0  0.55906  0.65316  0.19911  1.0000
  H   H756      1.0  0.72940  0.52947  0.16405  1.0000
  H   H757      1.0  0.66161  0.48138  0.05911  1.0000
  C   C482      1.0  0.74048  0.49985  0.19831  1.0000
  H   H758      1.0  0.61448  0.57371  0.26253  1.0000
  N   N48       1.0  0.63129  0.46431  0.04386  1.0000
  H   H759      1.0  0.53333  0.64318  0.20455  1.0000
  C   C483      1.0  0.50760  0.45105  0.27058  1.0000
  C   C484      1.0  0.74973  0.56329  0.13267  1.0000
  S   S196      1.0  0.50875  0.62992  0.25986  1.0000
  C   C485      1.0  0.69402  0.53260  0.02902  1.0000
  C   C486      1.0  0.61219  0.45476  0.05982  1.0000
  H   H760      1.0  0.57274  0.56284  0.49744  1.0000
  C   C487      1.0  0.51967  0.35841  0.06517  1.0000
  C   C488      1.0  0.74515  0.54150  0.08481  1.0000
  Fe  Fe96      1.0  0.50714  0.36223  0.15294  1.0000
  N   N49       1.0  0.54142  0.62566  0.17221  1.0000
  H   H761      1.0  0.60468  0.60767  0.26756  1.0000
  S   S197      1.0  0.52810  0.66440  0.10611  1.0000
  C   C489      1.0  0.55608  0.62874  0.14677  1.0000
  H   H762      1.0  0.54160  0.59941  0.19035  1.0000
  C   C490      1.0  0.63458  0.44929  0.02516  1.0000
  H   H763      1.0  0.60030  0.58960  0.29865  1.0000
  H   H764      1.0  0.61381  0.61532  0.30997  1.0000
  H   H765      1.0  0.64717  0.63475  0.28979  1.0000
  H   H766      1.0  0.64871  0.45604  0.01224  1.0000
  N   N50       1.0  0.62974  0.60356  0.28170  1.0000
  H   H767      1.0  0.62002  0.59180  0.23122  1.0000
  H   H768      1.0  0.55093  0.65751  0.26179  1.0000
  C   C491      1.0  0.50921  0.50038  0.33774  1.0000
  C   C492      1.0  0.52489  0.35312  0.03451  1.0000
  H   H769      1.0  0.55425  0.61452  0.13569  1.0000
  C   C493      1.0  0.51401  0.65915  0.06809  1.0000
  C   C494      1.0  0.52971  0.62950  0.27894  1.0000
  H   H770      1.0  0.57119  0.63683  0.15794  1.0000
  H   H771      1.0  0.52004  0.42531  0.29104  1.0000
  H   H772      1.0  0.65796  0.62315  0.26383  1.0000
  C   C495      1.0  0.62570  0.58839  0.25490  1.0000
  C   C496      1.0  0.54343  0.61394  0.19982  1.0000
  H   H773      1.0  0.63477  0.43799  0.04216  1.0000
  S   S198      1.0  0.51916  0.34482  0.23720  1.0000
  H   H774      1.0  0.53500  0.34694  0.03460  1.0000
  H   H775      1.0  0.51929  0.62400  0.13626  1.0000
  H   H776      1.0  0.64710  0.46340  0.08868  1.0000
  C   C497      1.0  0.64695  0.47409  0.07016  1.0000
  H   H777      1.0  0.50791  0.45793  0.29570  1.0000
  H   H778      1.0  0.51758  0.49416  0.32557  1.0000
  H   H779      1.0  0.72580  0.51330  0.12856  1.0000
  H   H780      1.0  0.74162  0.52418  0.22803  1.0000
  H   H781      1.0  0.60924  0.46567  0.07423  1.0000
  H   H782      1.0  0.64488  0.48552  0.08474  1.0000
  H   H783      1.0  0.61167  0.44366  0.07808  1.0000
  H   H784      1.0  0.51018  0.51217  0.45010  1.0000
  H   H785      1.0  0.52295  0.45559  0.26391  1.0000
  H   H786      1.0  0.73738  0.56593  0.12345  1.0000
  H   H787      1.0  0.71583  0.53041  0.12734  1.0000
  H   H788      1.0  0.51119  0.42434  0.23006  1.0000
  H   H789      1.0  0.72399  0.58120  0.01859  1.0000
  H   H790      1.0  0.50208  0.51628  0.49007  1.0000
  H   H791      1.0  0.62921  0.49081  0.03364  1.0000
  H   H792      1.0  0.50449  0.42747  0.32214  1.0000
  H   H793      1.0  0.51896  0.60080  0.14444  1.0000
  H   H794      1.0  0.74275  0.52666  0.07590  1.0000
  H   H795      1.0  0.50396  0.47863  0.46642  1.0000
  N   N51       1.0  0.74680  0.54348  0.12198  1.0000
  H   H796      1.0  0.51021  0.61202  0.17510  1.0000
  Fe  Fe97      1.0  0.50506  0.65107  0.22388  1.0000
  C   C498      1.0  0.74999  0.51738  0.21771  1.0000
  H   H797      1.0  0.64557  0.48640  0.00750  1.0000
  H   H798      1.0  0.50120  0.45753  0.25222  1.0000
  C   C499      1.0  0.51181  0.65719  0.00661  1.0000
  Fe  Fe98      1.0  0.58471  0.59936  0.72925  1.0000
  S   S199      1.0  0.56300  0.57222  0.70120  1.0000
  S   S200      1.0  0.57376  0.62246  0.72822  1.0000
  Fe  Fe99      1.0  0.61144  0.58010  0.74337  1.0000
  S   S201      1.0  0.59140  0.55181  0.71541  1.0000
  S   S202      1.0  0.63797  0.58444  0.77610  1.0000
  Fe  Fe100     1.0  0.58818  0.57121  0.67587  1.0000
  S   S203      1.0  0.57948  0.56124  0.62055  1.0000
  Fe  Fe101     1.0  0.56806  0.55541  0.74225  1.0000
  S   S204      1.0  0.54321  0.53136  0.76800  1.0000
  S   S205      1.0  0.61013  0.59961  0.70182  1.0000
  S   S206      1.0  0.58787  0.58250  0.77248  1.0000
  Fe  Fe102     1.0  0.53908  0.38182  0.85639  1.0000
  S   S207      1.0  0.56589  0.40742  0.83749  1.0000
  S   S208      1.0  0.53961  0.35557  0.87910  1.0000
  Fe  Fe103     1.0  0.67733  0.51499  0.86169  1.0000
  S   S209      1.0  0.67274  0.48386  0.86508  1.0000
  S   S210      1.0  0.66617  0.52013  0.81105  1.0000
  Fe  Fe104     1.0  0.69608  0.52510  0.93256  1.0000
  S   S211      1.0  0.69275  0.49489  0.94098  1.0000
  S   S212      1.0  0.71194  0.55025  0.97002  1.0000
  Fe  Fe105     1.0  0.70326  0.49676  0.88822  1.0000
  S   S213      1.0  0.72288  0.48373  0.87022  1.0000
  Fe  Fe106     1.0  0.66278  0.48491  0.91698  1.0000
  S   S214      1.0  0.63548  0.46166  0.93948  1.0000
  S   S215      1.0  0.70859  0.52778  0.88109  1.0000
  S   S216      1.0  0.66534  0.51519  0.91248  1.0000
  H   H799      1.0  0.51389  0.43376  0.74402  1.0000
  H   H800      1.0  0.58108  0.49546  0.85449  1.0000
  S   S217      1.0  0.52326  0.34762  0.96634  1.0000
  H   H801      1.0  0.70049  0.52567  0.76595  1.0000
  C   C500      1.0  0.74752  0.33931  0.84394  1.0000
  H   H802      1.0  0.59064  0.61922  0.66253  1.0000
  H   H803      1.0  0.59233  0.60308  0.63104  1.0000
  H   H804      1.0  0.62617  0.60796  0.54235  1.0000
  C   C501      1.0  0.50923  0.55240  0.80486  1.0000
  H   H805      1.0  0.51982  0.48345  0.72230  1.0000
  C   C502      1.0  0.58529  0.42141  0.86646  1.0000
  C   C503      1.0  0.58291  0.42018  0.90126  1.0000
  C   C504      1.0  0.59849  0.43237  0.92357  1.0000
  C   C505      1.0  0.61651  0.44572  0.91118  1.0000
  C   C506      1.0  0.61891  0.44668  0.87642  1.0000
  C   C507      1.0  0.60335  0.43461  0.85418  1.0000
  H   H806      1.0  0.56899  0.41003  0.91094  1.0000
  H   H807      1.0  0.59648  0.43151  0.95041  1.0000
  H   H808      1.0  0.63270  0.45673  0.86657  1.0000
  H   H809      1.0  0.60532  0.43541  0.82730  1.0000
  H   H810      1.0  0.55729  0.63206  0.61271  1.0000
  H   H811      1.0  0.71322  0.50745  0.73008  1.0000
  C   C508      1.0  0.58882  0.48979  0.83770  1.0000
  C   C509      1.0  0.73989  0.52408  0.80376  1.0000
  H   H812      1.0  0.53218  0.56157  0.75205  1.0000
  C   C510      1.0  0.58818  0.57121  0.58069  1.0000
  C   C511      1.0  0.60620  0.58780  0.57714  1.0000
  C   C512      1.0  0.61212  0.59528  0.54490  1.0000
  C   C513      1.0  0.57384  0.61243  0.58091  1.0000
  C   C514      1.0  0.57622  0.56233  0.55166  1.0000
  H   H813      1.0  0.61571  0.59468  0.59907  1.0000
  H   H814      1.0  0.56227  0.54950  0.55404  1.0000
  C   C515      1.0  0.64444  0.56567  0.78675  1.0000
  C   C516      1.0  0.65650  0.56835  0.81562  1.0000
  C   C517      1.0  0.66288  0.55433  0.82393  1.0000
  C   C518      1.0  0.65768  0.53771  0.80286  1.0000
  C   C519      1.0  0.64553  0.53494  0.77411  1.0000
  C   C520      1.0  0.63872  0.54869  0.76632  1.0000
  H   H815      1.0  0.66111  0.58149  0.83146  1.0000
  H   H816      1.0  0.67228  0.55673  0.84606  1.0000
  H   H817      1.0  0.64150  0.52219  0.75752  1.0000
  H   H818      1.0  0.62965  0.54654  0.74384  1.0000
  C   C521      1.0  0.55189  0.63702  0.76128  1.0000
  C   C522      1.0  0.55269  0.64241  0.82202  1.0000
  C   C523      1.0  0.56678  0.63565  0.82531  1.0000
  C   C524      1.0  0.57322  0.62937  0.79686  1.0000
  C   C525      1.0  0.56580  0.63001  0.76467  1.0000
  H   H819      1.0  0.57278  0.63526  0.85005  1.0000
  H   H820      1.0  0.58420  0.62437  0.79980  1.0000
  N   N52       1.0  0.72195  0.51655  0.78186  1.0000
  H   H821      1.0  0.52992  0.47090  0.74745  1.0000
  H   H822      1.0  0.69318  0.49182  0.77959  1.0000
  H   H823      1.0  0.55516  0.59036  0.80988  1.0000
  H   H824      1.0  0.58345  0.64620  0.61604  1.0000
  C   C526      1.0  0.72649  0.51324  0.74717  1.0000
  H   H825      1.0  0.59016  0.49684  0.81296  1.0000
  H   H826      1.0  0.73693  0.52668  0.83015  1.0000
  H   H827      1.0  0.57467  0.59863  0.57450  1.0000
  N   N53       1.0  0.57277  0.61492  0.61767  1.0000
  C   C527      1.0  0.59075  0.61669  0.63487  1.0000
  Fe  Fe107     1.0  0.51905  0.65609  0.86487  1.0000
  H   H828      1.0  0.53987  0.58751  0.75381  1.0000
  S   S218      1.0  0.51921  0.38426  0.89435  1.0000
  H   H829      1.0  0.55696  0.58385  0.62551  1.0000
  C   C528      1.0  0.55571  0.59765  0.63008  1.0000
  H   H830      1.0  0.59870  0.48969  0.90343  1.0000
  H   H831      1.0  0.56075  0.61159  0.56699  1.0000
  H   H832      1.0  0.54776  0.56455  0.80924  1.0000
  H   H833      1.0  0.60897  0.47043  0.82316  1.0000
  H   H834      1.0  0.54195  0.53084  0.69578  1.0000
  H   H835      1.0  0.62138  0.52339  0.83417  1.0000
  H   H836      1.0  0.51879  0.65898  0.98280  1.0000
  C   C529      1.0  0.61799  0.48643  0.82910  1.0000
  Fe  Fe108     1.0  0.51770  0.35629  0.91452  1.0000
  S   S219      1.0  0.51511  0.36348  0.81838  1.0000
  C   C530      1.0  0.62016  0.51545  0.85790  1.0000
  C   C531      1.0  0.52725  0.52263  0.70420  1.0000
  C   C532      1.0  0.50482  0.50854  0.74908  1.0000
  H   H837      1.0  0.62103  0.49423  0.80492  1.0000
  C   C533      1.0  0.52379  0.52009  0.73850  1.0000
  H   H838      1.0  0.54187  0.59561  0.61730  1.0000
  H   H839      1.0  0.74233  0.34593  0.82383  1.0000
  H   H840      1.0  0.57936  0.47367  0.83348  1.0000
  H   H841      1.0  0.54616  0.63773  0.73647  1.0000
  N   N54       1.0  0.60819  0.49397  0.85244  1.0000
  H   H842      1.0  0.62009  0.48666  0.89644  1.0000
  H   H843      1.0  0.54128  0.57575  0.84350  1.0000
  H   H844      1.0  0.51459  0.57046  0.74553  1.0000
  H   H845      1.0  0.58699  0.62476  0.57077  1.0000
  C   C534      1.0  0.54300  0.57586  0.81580  1.0000
  C   C535      1.0  0.51877  0.58720  0.80709  1.0000
  C   C536      1.0  0.52796  0.57296  0.76053  1.0000
  H   H846      1.0  0.61381  0.52157  0.87672  1.0000
  C   C537      1.0  0.54521  0.64304  0.78983  1.0000
  H   H847      1.0  0.63530  0.51925  0.86697  1.0000
  H   H848      1.0  0.51618  0.43487  0.69904  1.0000
  H   H849      1.0  0.70390  0.49975  0.82110  1.0000
  H   H850      1.0  0.53443  0.64829  0.78689  1.0000
  C   C538      1.0  0.70718  0.49777  0.79473  1.0000
  H   H851      1.0  0.51668  0.58742  0.83467  1.0000
  H   H852      1.0  0.74898  0.34772  0.86792  1.0000
  N   N55       1.0  0.52473  0.57211  0.79708  1.0000
  C   C539      1.0  0.60576  0.48417  0.88494  1.0000
  C   C540      1.0  0.60015  0.58636  0.51585  1.0000
  H   H853      1.0  0.63227  0.48850  0.84009  1.0000
  H   H854      1.0  0.59651  0.46796  0.88175  1.0000
  C   C541      1.0  0.71420  0.53100  0.78186  1.0000
  C   C542      1.0  0.58210  0.56988  0.51949  1.0000
  H   H855      1.0  0.55437  0.59921  0.65768  1.0000
  C   C543      1.0  0.51173  0.51399  0.68042  1.0000
  H   H856      1.0  0.73760  0.52713  0.73664  1.0000
  H   H857      1.0  0.61975  0.47223  0.00020  1.0000
  H   H858      1.0  0.51449  0.51591  0.65383  1.0000
  C   C544      1.0  0.57078  0.63290  0.62505  1.0000
  H   H859      1.0  0.72491  0.54539  0.77230  1.0000
  H   H860      1.0  0.60405  0.62910  0.62536  1.0000
  H   H861      1.0  0.71052  0.53380  0.80762  1.0000
  C   C545      1.0  0.50672  0.43462  0.71985  1.0000
  H   H862      1.0  0.53004  0.60214  0.80095  1.0000
  C   C546      1.0  0.52202  0.47011  0.72317  1.0000
  N   N56       1.0  0.50317  0.45202  0.71980  1.0000
  H   H863      1.0  0.73237  0.50239  0.74636  1.0000
  H   H864      1.0  0.57004  0.63517  0.65269  1.0000
  S   S220      1.0  0.54520  0.65005  0.85890  1.0000
  H   H865      1.0  0.53175  0.47107  0.70236  1.0000
  H   H866      1.0  0.51360  0.54080  0.79836  1.0000
  H   H867      1.0  0.74594  0.51337  0.80473  1.0000
  H   H868      1.0  0.71239  0.48639  0.79492  1.0000
  H   H869      1.0  0.62294  0.44156  0.00519  1.0000
  H   H870      1.0  0.50492  0.58474  0.79376  1.0000
  C   C547      1.0  0.50428  0.36401  0.00396  1.0000
  H   H871      1.0  0.50614  0.55136  0.83213  1.0000
  H   H872      1.0  0.50194  0.45321  0.66573  1.0000
  C   C548      1.0  0.74877  0.49505  0.87042  1.0000
  H   H873      1.0  0.74923  0.46822  0.85434  1.0000
  H   H874      1.0  0.50214  0.50637  0.77562  1.0000
  C   C549      1.0  0.51717  0.35581  0.00383  1.0000
  S   S221      1.0  0.50713  0.67027  0.82814  1.0000
  H   H875      1.0  0.55314  0.33808  0.93107  1.0000
  Fe  Fe109     1.0  0.51379  0.33717  0.84509  1.0000
  H   H876      1.0  0.59879  0.00043  0.21977  1.0000
  H   H877      1.0  0.53441  0.76531  0.07180  1.0000
  S   S222      1.0  0.51395  0.72142  0.22397  1.0000
  Fe  Fe110     1.0  0.51121  0.85243  0.19496  1.0000
  H   H878      1.0  0.54212  0.77247  0.13365  1.0000
  C   C550      1.0  0.56813  0.99149  0.49166  1.0000
  C   C551      1.0  0.52902  0.77496  0.13470  1.0000
  Fe  Fe111     1.0  0.51528  0.83984  0.12370  1.0000
  S   S223      1.0  0.53340  0.84061  0.07954  1.0000
  H   H879      1.0  0.55612  0.79954  0.09464  1.0000
  S   S224      1.0  0.52130  0.87226  0.24255  1.0000
  C   C552      1.0  0.50270  0.85395  0.00939  1.0000
  S   S225      1.0  0.50803  0.86320  0.14408  1.0000
  S   S226      1.0  0.52129  0.83087  0.17466  1.0000
  Fe  Fe112     1.0  0.57849  0.98532  0.29717  1.0000
  S   S227      1.0  0.58096  0.96386  0.25936  1.0000
  S   S228      1.0  0.55357  0.98070  0.32963  1.0000
  H   H880      1.0  0.53900  0.83196  0.01081  1.0000
  C   C553      1.0  0.53722  0.89797  0.24570  1.0000
  C   C554      1.0  0.54907  0.90814  0.21947  1.0000
  C   C555      1.0  0.56222  0.92836  0.22386  1.0000
  C   C556      1.0  0.56327  0.93874  0.25409  1.0000
  C   C557      1.0  0.55093  0.92869  0.27987  1.0000
  C   C558      1.0  0.53819  0.90838  0.27583  1.0000
  H   H881      1.0  0.54855  0.90032  0.19622  1.0000
  H   H882      1.0  0.57174  0.93595  0.20382  1.0000
  H   H883      1.0  0.55170  0.93642  0.30337  1.0000
  H   H884      1.0  0.52920  0.90064  0.29637  1.0000
  H   H885      1.0  0.63209  0.00269  0.26579  1.0000
  H   H886      1.0  0.51024  0.79653  0.12759  1.0000
  H   H887      1.0  0.54536  0.81291  0.11596  1.0000
  N   N57       1.0  0.52541  0.78271  0.10292  1.0000
  C   C559      1.0  0.52879  0.83802  0.01042  1.0000
  C   C560      1.0  0.51171  0.75617  0.22068  1.0000
  H   H888      1.0  0.52356  0.76169  0.23953  1.0000
  C   C561      1.0  0.50430  0.73673  0.20785  1.0000
  H   H889      1.0  0.50405  0.97802  0.42757  1.0000
  Fe  Fe113     1.0  0.57619  0.00105  0.36847  1.0000
  Fe  Fe114     1.0  0.50506  0.69006  0.20534  1.0000
  C   C562      1.0  0.52327  0.84324  0.04088  1.0000
  C   C563      1.0  0.54269  0.80141  0.09602  1.0000
  C   C564      1.0  0.51662  0.98707  0.44521  1.0000
  C   C565      1.0  0.50822  0.78625  0.10600  1.0000
  S   S229      1.0  0.56747  0.99151  0.42254  1.0000
  H   H890      1.0  0.54069  0.80740  0.07171  1.0000
  H   H891      1.0  0.55241  0.98356  0.48853  1.0000
  H   H892      1.0  0.52763  0.98157  0.44253  1.0000
  H   H893      1.0  0.51879  0.77367  0.05068  1.0000
  H   H894      1.0  0.50926  0.78324  0.22041  1.0000
  C   C566      1.0  0.52171  0.76828  0.07497  1.0000
  H   H895      1.0  0.50877  0.75398  0.07953  1.0000
  C   C567      1.0  0.50365  0.76843  0.20987  1.0000
  C   C568      1.0  0.50997  0.85090  0.04026  1.0000
  S   S230      1.0  0.52736  0.67877  0.20133  1.0000
  H   H896      1.0  0.50554  0.79294  0.08304  1.0000
  H   H897      1.0  0.53134  0.78528  0.15648  1.0000
  H   H898      1.0  0.51141  0.98429  0.47135  1.0000
  H   H899      1.0  0.51644  0.76065  0.14032  1.0000
  H   H900      1.0  0.61325  0.98812  0.21290  1.0000
  C   C569      1.0  0.57957  0.99746  0.46306  1.0000
  C   C570      1.0  0.61255  0.00214  0.20866  1.0000
  H   H901      1.0  0.50224  0.90557  0.25007  1.0000
  H   H902      1.0  0.50556  0.85490  0.06360  1.0000
  H   H903      1.0  0.51937  0.00360  0.38424  1.0000
  S   S231      1.0  0.60130  0.00366  0.33730  1.0000
  H   H904      1.0  0.61115  0.00357  0.18106  1.0000
  H   H905      1.0  0.54806  0.86947  0.93549  1.0000
  H   H906      1.0  0.56775  0.99122  0.54605  1.0000
  H   H907      1.0  0.55610  0.71728  0.90794  1.0000
  H   H908      1.0  0.53505  0.76345  0.89637  1.0000
  H   H909      1.0  0.56735  0.73962  0.88588  1.0000
  N   N58       1.0  0.55891  0.90017  0.92587  1.0000
  S   S232      1.0  0.52920  0.84444  0.86558  1.0000
  H   H910      1.0  0.57864  0.96729  0.56886  1.0000
  Fe  Fe115     1.0  0.52518  0.86338  0.82601  1.0000
  S   S233      1.0  0.54847  0.89459  0.81665  1.0000
  H   H911      1.0  0.62062  0.95745  0.55441  1.0000
  S   S234      1.0  0.56265  0.98099  0.62418  1.0000
  H   H912      1.0  0.56275  0.68948  0.89343  1.0000
  Fe  Fe116     1.0  0.57302  0.97530  0.67438  1.0000
  S   S235      1.0  0.56247  0.94236  0.68126  1.0000
  C   C571      1.0  0.52104  0.84053  0.97943  1.0000
  S   S236      1.0  0.50001  0.85478  0.94112  1.0000
  C   C572      1.0  0.60663  0.95812  0.55021  1.0000
  S   S237      1.0  0.52097  0.67623  0.90850  1.0000
  S   S238      1.0  0.50174  0.78776  0.81570  1.0000
  C   C573      1.0  0.55143  0.90760  0.77888  1.0000
  C   C574      1.0  0.54457  0.89787  0.74751  1.0000
  C   C575      1.0  0.54790  0.90876  0.71799  1.0000
  C   C576      1.0  0.55787  0.92947  0.71947  1.0000
  C   C577      1.0  0.56432  0.93920  0.75093  1.0000
  C   C578      1.0  0.56128  0.92830  0.78039  1.0000
  H   H913      1.0  0.53724  0.88196  0.74587  1.0000
  H   H914      1.0  0.54298  0.90108  0.69378  1.0000
  H   H915      1.0  0.57212  0.95510  0.75247  1.0000
  H   H916      1.0  0.56676  0.93600  0.80447  1.0000
  C   C579      1.0  0.58905  0.92953  0.58350  1.0000
  C   C580      1.0  0.54006  0.89746  0.91094  1.0000
  H   H917      1.0  0.58848  0.70495  0.90003  1.0000
  H   H918      1.0  0.56548  0.94607  0.59351  1.0000
  C   C581      1.0  0.60380  0.96198  0.60992  1.0000
  H   H919      1.0  0.58177  0.73321  0.91485  1.0000
  C   C582      1.0  0.50193  0.73565  0.83478  1.0000
  C   C583      1.0  0.57553  0.95175  0.57227  1.0000
  H   H920      1.0  0.58128  0.92025  0.56073  1.0000
  C   C584      1.0  0.52447  0.75966  0.87559  1.0000
  H   H921      1.0  0.59072  0.74311  0.84116  1.0000
  H   H922      1.0  0.57948  0.92341  0.60526  1.0000
  C   C585      1.0  0.55538  0.88407  0.94901  1.0000
  N   N59       1.0  0.57387  0.71673  0.86755  1.0000
  C   C586      1.0  0.57616  0.69999  0.88102  1.0000
  C   C587      1.0  0.56970  0.72721  0.89530  1.0000
  C   C588      1.0  0.55752  0.70933  0.84220  1.0000
  C   C589      1.0  0.59203  0.73034  0.85159  1.0000
  C   C590      1.0  0.57682  0.99571  0.52441  1.0000
  H   H923      1.0  0.53014  0.99836  0.70822  1.0000
  Fe  Fe117     1.0  0.50318  0.84490  0.88892  1.0000
  C   C591      1.0  0.51552  0.74030  0.86175  1.0000
  H   H924      1.0  0.57885  0.69142  0.86067  1.0000
  H   H925      1.0  0.54565  0.88373  0.96951  1.0000
  H   H926      1.0  0.60796  0.97782  0.60704  1.0000
  H   H927      1.0  0.55941  0.91992  0.96540  1.0000
  H   H928      1.0  0.57134  0.93170  0.92797  1.0000
  H   H929      1.0  0.53237  0.88303  0.89716  1.0000
  H   H930      1.0  0.59429  0.95691  0.63198  1.0000
  H   H931      1.0  0.60471  0.73621  0.86998  1.0000
  C   C592      1.0  0.57149  0.89980  0.89872  1.0000
  H   H932      1.0  0.59548  0.72283  0.83047  1.0000
  C   C593      1.0  0.56858  0.91926  0.94473  1.0000
  S   S239      1.0  0.56502  0.99607  0.70273  1.0000
  H   H933      1.0  0.57429  0.91165  0.88057  1.0000
  H   H934      1.0  0.58288  0.92178  0.95634  1.0000
  H   H935      1.0  0.61744  0.96097  0.61624  1.0000
  H   H936      1.0  0.59949  0.94979  0.52631  1.0000
  H   H937      1.0  0.60249  0.92789  0.58849  1.0000
  S   S240      1.0  0.60408  0.99838  0.66781  1.0000
  S   S241      1.0  0.52293  0.72301  0.87741  1.0000
  C   C594      1.0  0.51996  0.77421  0.86264  1.0000
  N   N60       1.0  0.59377  0.95033  0.57894  1.0000
  H   H938      1.0  0.55976  0.70081  0.82125  1.0000
  H   H939      1.0  0.50277  0.88075  0.73166  1.0000
  H   H940      1.0  0.56760  0.94330  0.54892  1.0000
  H   H941      1.0  0.61036  0.97383  0.54622  1.0000
  C   C595      1.0  0.50824  0.84886  0.97893  1.0000
  H   H942      1.0  0.52521  0.83635  0.95605  1.0000
  C   C596      1.0  0.50675  0.76968  0.83511  1.0000
  H   H943      1.0  0.55532  0.72151  0.83133  1.0000
  H   H944      1.0  0.54363  0.69944  0.85374  1.0000
  H   H945      1.0  0.54205  0.90899  0.89262  1.0000
  H   H946      1.0  0.56448  0.88563  0.88378  1.0000
  C   C597      1.0  0.50614  0.90844  0.77808  1.0000
  H   H947      1.0  0.58584  0.90169  0.90892  1.0000
  H   H948      1.0  0.56920  0.88556  0.96104  1.0000
  S   S242      1.0  0.50023  0.86479  0.85101  1.0000
  Fe  Fe118     1.0  0.50731  0.68932  0.87251  1.0000
  H   H949      1.0  0.53009  0.89762  0.93059  1.0000
  C   C598      1.0  0.51870  0.00227  0.70229  1.0000
  S   S243      1.0  0.50532  0.83737  0.79278  1.0000
  H   H950      1.0  0.51014  0.00129  0.75380  1.0000
  Fe  Fe119     1.0  0.50670  0.81819  0.83449  1.0000
  H   H951      1.0  0.51811  0.91441  0.75998  1.0000
  H   H952      1.0  0.50407  0.92102  0.78792  1.0000
  H   H953      1.0  0.52709  0.78904  0.87339  1.0000
  H   H954      1.0  0.51136  0.90266  0.79953  1.0000
  Fe  Fe120     1.0  0.55728  0.00348  0.65208  1.0000
  H   H955      1.0  0.90750  0.30518  0.17160  1.0000
  C   C599      1.0  0.75472  0.25095  0.19440  1.0000
  Fe  Fe121     1.0  0.81090  0.32148  0.14364  1.0000
  S   S244      1.0  0.77814  0.30023  0.13766  1.0000
  S   S245      1.0  0.83548  0.31441  0.15675  1.0000
  C   C600      1.0  0.86398  0.29661  0.20361  1.0000
  C   C601      1.0  0.76812  0.26905  0.18132  1.0000
  H   H956      1.0  0.76034  0.24372  0.11943  1.0000
  H   H957      1.0  0.76314  0.20297  0.07159  1.0000
  H   H958      1.0  0.76924  0.24581  0.07781  1.0000
  H   H959      1.0  0.78296  0.27660  0.19157  1.0000
  H   H960      1.0  0.75942  0.24469  0.21472  1.0000
  H   H961      1.0  0.86296  0.28556  0.22228  1.0000
  Fe  Fe122     1.0  0.84868  0.32966  0.10924  1.0000
  H   H962      1.0  0.87632  0.31592  0.14585  1.0000
  H   H963      1.0  0.85776  0.30581  0.21518  1.0000
  C   C602      1.0  0.86309  0.31741  0.03227  1.0000
  C   C603      1.0  0.89210  0.29629  0.17881  1.0000
  C   C604      1.0  0.89642  0.31934  0.22456  1.0000
  C   C605      1.0  0.88488  0.32331  0.16946  1.0000
  H   H964      1.0  0.89173  0.28503  0.19649  1.0000
  C   C606      1.0  0.87433  0.31042  0.01496  1.0000
  S   S246      1.0  0.86408  0.31718  0.07677  1.0000
  H   H965      1.0  0.88320  0.30522  0.02888  1.0000
  H   H966      1.0  0.88340  0.28839  0.15555  1.0000
  H   H967      1.0  0.89013  0.32788  0.23795  1.0000
  C   C607      1.0  0.76214  0.27749  0.15542  1.0000
  C   C608      1.0  0.75155  0.20670  0.06234  1.0000
  N   N61       1.0  0.88436  0.30888  0.19413  1.0000
  H   H968      1.0  0.85440  0.28859  0.18125  1.0000
  H   H969      1.0  0.89731  0.30894  0.24288  1.0000
  H   H970      1.0  0.84276  0.32935  0.02710  1.0000
  C   C609      1.0  0.85158  0.32407  0.01387  1.0000
  H   H971      1.0  0.87854  0.33261  0.17972  1.0000
  C   C610      1.0  0.76375  0.23571  0.09914  1.0000
  H   H972      1.0  0.77588  0.23299  0.10908  1.0000
  H   H973      1.0  0.75688  0.21575  0.03972  1.0000
  H   H974      1.0  0.91157  0.32994  0.21828  1.0000
  S   S247      1.0  0.82343  0.33491  0.09428  1.0000
  H   H975      1.0  0.75082  0.20119  0.12942  1.0000
  H   H976      1.0  0.90005  0.33331  0.16239  1.0000
  C   C611      1.0  0.77252  0.33076  0.86295  1.0000
  C   C612      1.0  0.87413  0.30995  0.97975  1.0000
  C   C613      1.0  0.86262  0.31637  0.96114  1.0000
  S   S248      1.0  0.81583  0.32170  0.89043  1.0000
  Fe  Fe123     1.0  0.80831  0.31034  0.83663  1.0000
  S   S249      1.0  0.77619  0.29084  0.82106  1.0000
  S   S250      1.0  0.83696  0.30966  0.82862  1.0000
  C   C614      1.0  0.75583  0.23275  0.84272  1.0000
  S   S251      1.0  0.86333  0.31517  0.91677  1.0000
  H   H977      1.0  0.76187  0.22306  0.85009  1.0000
  H   H978      1.0  0.78405  0.25861  0.84319  1.0000
  C   C615      1.0  0.76846  0.25293  0.83888  1.0000
  C   C616      1.0  0.76092  0.26556  0.82864  1.0000
  C   C617      1.0  0.76365  0.32834  0.80370  1.0000
  C   C618      1.0  0.85131  0.32352  0.97820  1.0000
  H   H979      1.0  0.76165  0.31515  0.86634  1.0000
  H   H980      1.0  0.88285  0.30438  0.96687  1.0000
  Fe  Fe124     1.0  0.84504  0.32331  0.88141  1.0000
  H   H981      1.0  0.89132  0.32242  0.81652  1.0000
  H   H982      1.0  0.87874  0.32397  0.85269  1.0000
  H   H983      1.0  0.92967  0.33321  0.57570  1.0000
  H   H984      1.0  0.91648  0.32149  0.85619  1.0000
  H   H985      1.0  0.78648  0.33067  0.85729  1.0000
  H   H986      1.0  0.77751  0.32832  0.79664  1.0000
  H   H987      1.0  0.75880  0.33452  0.78246  1.0000
  H   H988      1.0  0.84230  0.32841  0.96398  1.0000
  H   H989      1.0  0.88483  0.33106  0.75898  1.0000
  H   H990      1.0  0.90390  0.32431  0.89162  1.0000
  H   H991      1.0  0.75271  0.31263  0.80583  1.0000
  C   C619      1.0  0.91496  0.33255  0.87274  1.0000
  C   C620      1.0  0.89014  0.33287  0.83500  1.0000
  H   H992      1.0  0.91656  0.33623  0.73643  1.0000
  C   C621      1.0  0.85060  0.48637  0.02853  1.0000
  H   H993      1.0  0.82063  0.36601  0.04302  1.0000
  H   H994      1.0  0.98564  0.42157  0.22265  1.0000
  C   C622      1.0  0.99170  0.41678  0.20126  1.0000
  Fe  Fe125     1.0  0.83942  0.36348  0.12395  1.0000
  S   S252      1.0  0.84525  0.39250  0.10115  1.0000
  S   S253      1.0  0.86596  0.35928  0.13479  1.0000
  S   S254      1.0  0.96905  0.41351  0.35844  1.0000
  Fe  Fe126     1.0  0.97761  0.40833  0.30681  1.0000
  S   S255      1.0  0.95979  0.38783  0.26253  1.0000
  Fe  Fe127     1.0  0.85020  0.51789  0.13770  1.0000
  S   S256      1.0  0.81890  0.49795  0.14882  1.0000
  S   S257      1.0  0.85801  0.53296  0.08810  1.0000
  Fe  Fe128     1.0  0.86600  0.51597  0.20834  1.0000
  S   S258      1.0  0.83572  0.49615  0.22465  1.0000
  S   S259      1.0  0.89022  0.51897  0.24608  1.0000
  Fe  Fe129     1.0  0.83137  0.48010  0.17493  1.0000
  S   S260      1.0  0.81653  0.44705  0.17864  1.0000
  Fe  Fe130     1.0  0.82581  0.51562  0.19744  1.0000
  S   S261      1.0  0.80687  0.52758  0.22203  1.0000
  S   S262      1.0  0.86216  0.49860  0.15986  1.0000
  S   S263      1.0  0.85659  0.53694  0.18476  1.0000
  C   C623      1.0  0.90681  0.36925  0.21343  1.0000
  H   H995      1.0  0.86714  0.47619  0.23056  1.0000
  H   H996      1.0  0.83721  0.43318  0.22601  1.0000
  H   H997      1.0  0.87048  0.42217  0.21844  1.0000
  H   H998      1.0  0.85960  0.43014  0.18571  1.0000
  H   H999      1.0  0.81662  0.49790  0.00919  1.0000
  S   S264      1.0  0.95973  0.59156  0.32641  1.0000
  H   H1000     1.0  0.96061  0.41972  0.50182  1.0000
  C   C624      1.0  0.91025  0.53978  0.26585  1.0000
  C   C625      1.0  0.92404  0.53677  0.28550  1.0000
  C   C626      1.0  0.93959  0.55256  0.30325  1.0000
  C   C627      1.0  0.94131  0.57154  0.30219  1.0000
  C   C628      1.0  0.92754  0.57458  0.28247  1.0000
  C   C629      1.0  0.91227  0.55886  0.26398  1.0000
  H   H1001     1.0  0.92267  0.52210  0.28718  1.0000
  H   H1002     1.0  0.95000  0.54995  0.31838  1.0000
  H   H1003     1.0  0.92883  0.58924  0.28132  1.0000
  H   H1004     1.0  0.90206  0.56154  0.24851  1.0000
  C   C630      1.0  0.78138  0.51690  0.21205  1.0000
  Fe  Fe131     1.0  0.85107  0.34487  0.18135  1.0000
  C   C631      1.0  0.77188  0.49961  0.19215  1.0000
  S   S265      1.0  0.86794  0.35171  0.23214  1.0000
  H   H1005     1.0  0.78011  0.49250  0.18245  1.0000
  H   H1006     1.0  0.86143  0.54061  0.01787  1.0000
  H   H1007     1.0  0.87105  0.54237  0.35024  1.0000
  H   H1008     1.0  0.82811  0.51804  0.28937  1.0000
  H   H1009     1.0  0.84807  0.51218  0.29439  1.0000
  C   C632      1.0  0.83702  0.40754  0.12239  1.0000
  C   C633      1.0  0.84416  0.42732  0.11386  1.0000
  C   C634      1.0  0.83792  0.43964  0.13071  1.0000
  C   C635      1.0  0.82426  0.43210  0.15579  1.0000
  C   C636      1.0  0.81697  0.41229  0.16396  1.0000
  C   C637      1.0  0.82344  0.40008  0.14753  1.0000
  H   H1010     1.0  0.85464  0.43316  0.09434  1.0000
  H   H1011     1.0  0.84354  0.45488  0.12413  1.0000
  H   H1012     1.0  0.80632  0.40635  0.18321  1.0000
  H   H1013     1.0  0.81767  0.38482  0.15400  1.0000
  C   C638      1.0  0.89375  0.36462  0.23959  1.0000
  C   C639      1.0  0.90133  0.36867  0.27302  1.0000
  C   C640      1.0  0.92160  0.37682  0.28033  1.0000
  C   C641      1.0  0.93455  0.38052  0.25428  1.0000
  C   C642      1.0  0.92702  0.37675  0.22079  1.0000
  H   H1014     1.0  0.84762  0.47124  0.03164  1.0000
  H   H1015     1.0  0.88413  0.47477  0.20213  1.0000
  H   H1016     1.0  0.92713  0.37949  0.30623  1.0000
  H   H1017     1.0  0.93688  0.37961  0.20042  1.0000
  S   S266      1.0  0.82522  0.35087  0.17237  1.0000
  H   H1018     1.0  0.85838  0.46165  0.19227  1.0000
  H   H1019     1.0  0.87099  0.56406  0.26750  1.0000
  C   C643      1.0  0.77033  0.52579  0.22469  1.0000
  C   C644      1.0  0.85187  0.49816  0.05690  1.0000
  C   C645      1.0  0.85593  0.51777  0.05309  1.0000
  H   H1020     1.0  0.88501  0.56199  0.32282  1.0000
  H   H1021     1.0  0.84986  0.49211  0.08172  1.0000
  H   H1022     1.0  0.86679  0.53954  0.25690  1.0000
  H   H1023     1.0  0.84783  0.42498  0.25885  1.0000
  C   C646      1.0  0.97389  0.41827  0.50072  1.0000
  H   H1024     1.0  0.89887  0.46326  0.24685  1.0000
  S   S267      1.0  0.97033  0.46447  0.35909  1.0000
  H   H1025     1.0  0.84668  0.44787  0.26394  1.0000
  H   H1026     1.0  0.83731  0.51671  0.33086  1.0000
  H   H1027     1.0  0.96939  0.46582  0.43408  1.0000
  H   H1028     1.0  0.82294  0.34989  0.01193  1.0000
  H   H1029     1.0  0.97272  0.41585  0.44618  1.0000
  H   H1030     1.0  0.83506  0.40183  0.03380  1.0000
  C   C647      1.0  0.85841  0.52546  0.02082  1.0000
  H   H1031     1.0  0.97255  0.44990  0.46361  1.0000
  H   H1032     1.0  0.84387  0.36681  0.03716  1.0000
  C   C648      1.0  0.97946  0.45989  0.44268  1.0000
  C   C649      1.0  0.76349  0.54058  0.13452  1.0000
  H   H1033     1.0  0.90134  0.36666  0.18756  1.0000
  Fe  Fe132     1.0  0.99921  0.41934  0.37654  1.0000
  H   H1034     1.0  0.79698  0.50263  0.02158  1.0000
  H   H1035     1.0  0.89143  0.36515  0.29348  1.0000
  H   H1036     1.0  0.96466  0.49885  0.36339  1.0000
  H   H1037     1.0  0.77741  0.55118  0.12363  1.0000
  C   C650      1.0  0.99779  0.41407  0.46723  1.0000
  H   H1038     1.0  0.76338  0.57504  0.12281  1.0000
  H   H1039     1.0  0.98450  0.53274  0.34464  1.0000
  H   H1040     1.0  0.84696  0.54571  0.25386  1.0000
  N   N62       1.0  0.85572  0.54258  0.30428  1.0000
  C   C651      1.0  0.86032  0.54825  0.26909  1.0000
  H   H1041     1.0  0.98671  0.42096  0.17764  1.0000
  C   C652      1.0  0.87386  0.54626  0.32342  1.0000
  H   H1042     1.0  0.88063  0.53740  0.31262  1.0000
  H   H1043     1.0  0.77751  0.53912  0.24026  1.0000
  C   C653      1.0  0.98075  0.41616  0.46911  1.0000
  Fe  Fe133     1.0  0.98413  0.44532  0.34574  1.0000
  C   C654      1.0  0.84167  0.52145  0.30482  1.0000
  C   C655      1.0  0.84698  0.55433  0.31944  1.0000
  H   H1044     1.0  0.84324  0.55044  0.34603  1.0000
  S   S268      1.0  0.99048  0.43998  0.29331  1.0000
  S   S269      1.0  0.99087  0.56839  0.37525  1.0000
  Fe  Fe134     1.0  0.98803  0.59204  0.34630  1.0000
  H   H1045     1.0  0.83329  0.55180  0.30527  1.0000
  H   H1046     1.0  0.85717  0.57037  0.31920  1.0000
  H   H1047     1.0  0.88549  0.44293  0.19399  1.0000
  H   H1048     1.0  0.88368  0.44267  0.27137  1.0000
  H   H1049     1.0  0.98485  0.40042  0.20151  1.0000
  N   N63       1.0  0.86856  0.44876  0.23057  1.0000
  C   C656      1.0  0.88411  0.45534  0.25740  1.0000
  C   C657      1.0  0.86963  0.46609  0.21312  1.0000
  C   C658      1.0  0.84926  0.43823  0.24560  1.0000
  C   C659      1.0  0.87119  0.43544  0.20616  1.0000
  H   H1050     1.0  0.88267  0.46564  0.27594  1.0000
  H   H1051     1.0  0.85822  0.40235  0.02852  1.0000
  H   H1052     1.0  0.98038  0.45078  0.42128  1.0000
  C   C660      1.0  0.98421  0.48824  0.34488  1.0000
  C   C661      1.0  0.97814  0.50260  0.35088  1.0000
  C   C662      1.0  0.75156  0.49110  0.18553  1.0000
  C   C663      1.0  0.98947  0.52185  0.34058  1.0000
  H   H1053     1.0  0.76129  0.52542  0.12834  1.0000
  C   C664      1.0  0.99715  0.48683  0.48268  1.0000
  H   H1054     1.0  0.76546  0.54262  0.16241  1.0000
  H   H1055     1.0  0.75853  0.55265  0.07322  1.0000
  C   C665      1.0  0.84447  0.39992  0.01479  1.0000
  H   H1056     1.0  0.98722  0.49338  0.47677  1.0000
  H   H1057     1.0  0.99731  0.49606  0.41768  1.0000
  C   C666      1.0  0.83029  0.36501  0.02355  1.0000
  N   N64       1.0  0.99894  0.47585  0.45311  1.0000
  H   H1058     1.0  0.79215  0.47839  0.00681  1.0000
  H   H1059     1.0  0.75060  0.56512  0.16063  1.0000
  H   H1060     1.0  0.99116  0.47706  0.50434  1.0000
  Fe  Fe135     1.0  0.97096  0.39956  0.69125  1.0000
  S   S270      1.0  0.96030  0.41741  0.66122  1.0000
  S   S271      1.0  0.94924  0.37022  0.71191  1.0000
  H   H1061     1.0  0.82039  0.49195  0.94901  1.0000
  S   S272      1.0  0.97688  0.46578  0.71670  1.0000
  H   H1062     1.0  0.98645  0.61244  0.65353  1.0000
  H   H1063     1.0  0.91663  0.37328  0.59387  1.0000
  H   H1064     1.0  0.82678  0.52518  0.96909  1.0000
  Fe  Fe136     1.0  0.82863  0.35170  0.86872  1.0000
  S   S273      1.0  0.82260  0.37501  0.89323  1.0000
  S   S274      1.0  0.85860  0.35446  0.86488  1.0000
  Fe  Fe137     1.0  0.84499  0.47616  0.83664  1.0000
  S   S275      1.0  0.87148  0.48665  0.87106  1.0000
  S   S276      1.0  0.83835  0.44885  0.80539  1.0000
  Fe  Fe138     1.0  0.83489  0.50829  0.86019  1.0000
  S   S277      1.0  0.86126  0.52147  0.89585  1.0000
  S   S278      1.0  0.81579  0.52377  0.86464  1.0000
  Fe  Fe139     1.0  0.87816  0.51683  0.85415  1.0000
  S   S279      1.0  0.91056  0.53871  0.85052  1.0000
  Fe  Fe140     1.0  0.85261  0.49043  0.90927  1.0000
  S   S280      1.0  0.85159  0.47898  0.96137  1.0000
  S   S281      1.0  0.85254  0.50624  0.81688  1.0000
  S   S282      1.0  0.82538  0.47738  0.87625  1.0000
  H   H1065     1.0  0.80694  0.52975  0.98139  1.0000
  H   H1066     1.0  0.94340  0.56359  0.95405  1.0000
  C   C667      1.0  0.78076  0.52361  0.87661  1.0000
  N   N65       1.0  0.76623  0.33968  0.83560  1.0000
  Fe  Fe141     1.0  0.99501  0.57798  0.71358  1.0000
  Fe  Fe142     1.0  0.98413  0.42204  0.62527  1.0000
  C   C668      1.0  0.85684  0.51358  0.99243  1.0000
  S   S283      1.0  0.96183  0.56112  0.71939  1.0000
  H   H1067     1.0  0.91355  0.56785  0.95392  1.0000
  S   S284      1.0  0.99339  0.40215  0.65337  1.0000
  H   H1068     1.0  0.79595  0.47227  0.94646  1.0000
  H   H1069     1.0  0.90242  0.51941  0.91371  1.0000
  H   H1070     1.0  0.78389  0.36920  0.85566  1.0000
  C   C669      1.0  0.93793  0.58187  0.64198  1.0000
  H   H1071     1.0  0.80322  0.49205  0.91776  1.0000
  H   H1072     1.0  0.93440  0.54880  0.91588  1.0000
  H   H1073     1.0  0.85849  0.51951  0.96768  1.0000
  C   C670      1.0  0.92455  0.54463  0.81372  1.0000
  C   C671      1.0  0.94492  0.55639  0.81703  1.0000
  C   C672      1.0  0.95659  0.56158  0.78854  1.0000
  C   C673      1.0  0.94796  0.55523  0.75629  1.0000
  C   C674      1.0  0.92759  0.54346  0.75296  1.0000
  C   C675      1.0  0.91595  0.53807  0.78148  1.0000
  H   H1074     1.0  0.95175  0.56162  0.84179  1.0000
  H   H1075     1.0  0.97223  0.57066  0.79154  1.0000
  H   H1076     1.0  0.92073  0.53848  0.72815  1.0000
  H   H1077     1.0  0.90030  0.52910  0.77848  1.0000
  C   C676      1.0  0.78997  0.51225  0.86685  1.0000
  H   H1078     1.0  0.99426  0.47941  0.65296  1.0000
  C   C677      1.0  0.77849  0.49218  0.85932  1.0000
  H   H1079     1.0  0.77297  0.50255  0.97787  1.0000
  H   H1080     1.0  0.78535  0.48326  0.85166  1.0000
  C   C678      1.0  0.82802  0.39582  0.86894  1.0000
  C   C679      1.0  0.82717  0.41219  0.88354  1.0000
  C   C680      1.0  0.83075  0.42866  0.86435  1.0000
  C   C681      1.0  0.83470  0.42865  0.83018  1.0000
  C   C682      1.0  0.83556  0.41226  0.81559  1.0000
  C   C683      1.0  0.83252  0.39600  0.83503  1.0000
  H   H1081     1.0  0.82378  0.41223  0.90975  1.0000
  H   H1082     1.0  0.83016  0.44124  0.87592  1.0000
  H   H1083     1.0  0.83877  0.41222  0.78926  1.0000
  H   H1084     1.0  0.83351  0.38360  0.82358  1.0000
  H   H1085     1.0  0.93196  0.38212  0.55819  1.0000
  C   C684      1.0  0.98399  0.41846  0.53087  1.0000
  H   H1086     1.0  0.92075  0.36891  0.89036  1.0000
  H   H1087     1.0  0.92274  0.55479  0.00455  1.0000
  H   H1088     1.0  0.96904  0.38410  0.59047  1.0000
  C   C685      1.0  0.76029  0.51505  0.87871  1.0000
  H   H1089     1.0  0.75342  0.52396  0.88633  1.0000
  H   H1090     1.0  0.84035  0.36363  0.95946  1.0000
  C   C686      1.0  0.92493  0.34481  0.57236  1.0000
  H   H1091     1.0  0.98024  0.58365  0.61582  1.0000
  C   C687      1.0  0.92706  0.36723  0.72906  1.0000
  C   C688      1.0  0.92266  0.38297  0.73234  1.0000
  C   C689      1.0  0.90478  0.38003  0.74554  1.0000
  C   C690      1.0  0.89117  0.36143  0.75601  1.0000
  S   S285      1.0  0.99244  0.42504  0.72395  1.0000
  C   C691      1.0  0.91342  0.34856  0.73934  1.0000
  H   H1092     1.0  0.93295  0.39740  0.72444  1.0000
  H   H1093     1.0  0.90139  0.39225  0.74739  1.0000
  H   H1094     1.0  0.93629  0.57283  0.66454  1.0000
  H   H1095     1.0  0.97008  0.59606  0.68296  1.0000
  C   C692      1.0  0.96480  0.57672  0.62355  1.0000
  S   S286      1.0  0.86828  0.35834  0.77004  1.0000
  H   H1096     1.0  0.89550  0.35178  0.89470  1.0000
  H   H1097     1.0  0.92126  0.53063  0.00253  1.0000
  N   N66       1.0  0.93875  0.49378  0.75204  1.0000
  C   C693      1.0  0.95117  0.50667  0.72598  1.0000
  C   C694      1.0  0.94236  0.47649  0.75501  1.0000
  C   C695      1.0  0.91797  0.48718  0.74244  1.0000
  C   C696      1.0  0.94352  0.50480  0.78474  1.0000
  H   H1098     1.0  0.96696  0.51279  0.73317  1.0000
  H   H1099     1.0  0.94820  0.51941  0.72196  1.0000
  H   H1100     1.0  0.94875  0.49858  0.70134  1.0000
  H   H1101     1.0  0.95784  0.48093  0.76268  1.0000
  H   H1102     1.0  0.93300  0.46621  0.77396  1.0000
  H   H1103     1.0  0.93939  0.46804  0.73058  1.0000
  H   H1104     1.0  0.90815  0.47738  0.76152  1.0000
  H   H1105     1.0  0.91389  0.47885  0.71781  1.0000
  H   H1106     1.0  0.91474  0.49989  0.74020  1.0000
  H   H1107     1.0  0.93435  0.49557  0.80497  1.0000
  H   H1108     1.0  0.94102  0.51796  0.78337  1.0000
  H   H1109     1.0  0.95912  0.51009  0.79270  1.0000
  H   H1110     1.0  0.77701  0.36759  0.81164  1.0000
  H   H1111     1.0  0.95851  0.37392  0.54976  1.0000
  N   N67       1.0  0.93856  0.36339  0.59024  1.0000
  H   H1112     1.0  0.81896  0.38877  0.96203  1.0000
  C   C697      1.0  0.91444  0.53972  0.99297  1.0000
  S   S287      1.0  0.81976  0.34063  0.81556  1.0000
  H   H1113     1.0  0.85108  0.38955  0.95332  1.0000
  Fe  Fe143     1.0  0.84908  0.34112  0.81265  1.0000
  H   H1114     1.0  0.96374  0.56749  0.64551  1.0000
  H   H1115     1.0  0.92404  0.34693  0.54483  1.0000
  H   H1116     1.0  0.93843  0.36548  0.84097  1.0000
  H   H1117     1.0  0.94954  0.37380  0.64070  1.0000
  H   H1118     1.0  0.75148  0.53822  0.79490  1.0000
  N   N68       1.0  0.91414  0.54004  0.95577  1.0000
  C   C698      1.0  0.84748  0.37829  0.97289  1.0000
  H   H1119     1.0  0.99421  0.50337  0.75149  1.0000
  C   C699      1.0  0.90270  0.51977  0.94171  1.0000
  H   H1120     1.0  0.80960  0.52517  0.93778  1.0000
  C   C700      1.0  0.97086  0.60463  0.66022  1.0000
  H   H1121     1.0  0.89938  0.53332  0.00256  1.0000
  N   N69       1.0  0.95846  0.59174  0.63197  1.0000
  H   H1122     1.0  0.94452  0.34892  0.63177  1.0000
  H   H1123     1.0  0.96641  0.61604  0.66749  1.0000
  H   H1124     1.0  0.92811  0.57190  0.62141  1.0000
  C   C701      1.0  0.90509  0.55236  0.94430  1.0000
  H   H1125     1.0  0.96375  0.35933  0.57957  1.0000
  Fe  Fe144     1.0  0.98315  0.44301  0.69113  1.0000
  C   C702      1.0  0.81105  0.52085  0.96395  1.0000
  H   H1126     1.0  0.84815  0.41175  0.99634  1.0000
  H   H1127     1.0  0.93263  0.59275  0.64857  1.0000
  N   N70       1.0  0.79878  0.49952  0.96799  1.0000
  S   S288      1.0  0.97456  0.42139  0.56977  1.0000
  H   H1128     1.0  0.78953  0.53916  0.88258  1.0000
  H   H1129     1.0  0.95125  0.59449  0.58032  1.0000
  C   C703      1.0  0.89553  0.34564  0.75259  1.0000
  H   H1130     1.0  0.95576  0.56671  0.60237  1.0000
  H   H1131     1.0  0.79549  0.36102  0.82538  1.0000
  H   H1132     1.0  0.90992  0.33908  0.58191  1.0000
  H   H1133     1.0  0.77577  0.49806  0.93442  1.0000
  H   H1134     1.0  0.80859  0.36281  0.96764  1.0000
  H   H1135     1.0  0.76839  0.47839  0.96314  1.0000
  H   H1136     1.0  0.95580  0.61531  0.60764  1.0000
  H   H1137     1.0  0.92482  0.35493  0.63791  1.0000
  C   C704      1.0  0.93934  0.36003  0.62663  1.0000
  H   H1138     1.0  0.94152  0.53927  0.95173  1.0000
  C   C705      1.0  0.95828  0.37041  0.57688  1.0000
  C   C706      1.0  0.96033  0.60372  0.60224  1.0000
  N   N71       1.0  0.90901  0.34524  0.85303  1.0000
  C   C707      1.0  0.77807  0.49441  0.96062  1.0000
  H   H1139     1.0  0.97576  0.61126  0.59431  1.0000
  H   H1140     1.0  0.88996  0.54676  0.95309  1.0000
  H   H1141     1.0  0.77491  0.33904  0.88737  1.0000
  H   H1142     1.0  0.90430  0.55263  0.91627  1.0000
  H   H1143     1.0  0.91981  0.36576  0.81318  1.0000
  C   C708      1.0  0.81620  0.37741  0.98114  1.0000
  C   C709      1.0  0.80120  0.49439  0.00291  1.0000
  H   H1144     1.0  0.94122  0.39227  0.59950  1.0000
  C   C710      1.0  0.99286  0.48918  0.70348  1.0000
  C   C711      1.0  0.78124  0.36026  0.83188  1.0000
  C   C712      1.0  0.85312  0.49406  0.99629  1.0000
  C   C713      1.0  0.80483  0.48845  0.94430  1.0000
  C   C714      1.0  0.75800  0.48369  0.86086  1.0000
  H   H1145     1.0  0.90243  0.36931  0.86190  1.0000
  H   H1146     1.0  0.92916  0.34133  0.88672  1.0000
  H   H1147     1.0  0.90884  0.50992  0.95028  1.0000
  H   H1148     1.0  0.80603  0.37843  0.99949  1.0000
  H   H1149     1.0  0.92581  0.34579  0.81029  1.0000
  C   C715      1.0  0.92394  0.35603  0.82837  1.0000
  C   C716      1.0  0.93429  0.54830  0.94393  1.0000
  H   H1150     1.0  0.88732  0.51319  0.94946  1.0000
  C   C717      1.0  0.93172  0.37834  0.58516  1.0000
  C   C718      1.0  0.90686  0.35946  0.87603  1.0000
  H   H1151     1.0  0.88470  0.34198  0.82111  1.0000
  H   H1152     1.0  0.86143  0.38006  0.98486  1.0000
  N   N72       1.0  0.83462  0.38015  0.99809  1.0000
  C   C719      1.0  0.99974  0.49172  0.67086  1.0000
  C   C720      1.0  0.99933  0.50534  0.72611  1.0000
