data_image0
_chemical_formula_structural       HCHCHCH3CH3CHSFe2SFeS3C2HSFeNCH2CH5CH2C3HCH4NH2C2FeSC2HCHCH8NSCH3CH3CHCHCSNC2SFeHCHCSCHC2H2CH3SHCH4SC2H2C2HSCFeCHSCHCSC2H2C2Fe2SCFeS2HCNC3H4CH4CH3CS3FeH2FeHSHCHSCH3CS2CH4FeHS2HCH3C2HCH3C2H3C2HNHCHCH2CH4SCHFeS2C3HFeCHSCSFeH2C2SH4C3H4CSCH2CH3NFeC2HCHS2CH2SH3CHCH3CH4CNS2H4CH3CH4CHCSNC6H4CHNCH4CHNHCH4C3SFe2SC2HSFeHSHFeSFeS2FeS2Fe2SCH5CH4SCHC3H4CH3NHCH2SFeS2CHCH3CHCHSC2FeS2Fe2SH2NCH6CHC2HSCHCH2C2H4CHCNH2CH5C2FeSC3H4CSFeCH2CH3SCH3SCHC3H3CNHCHC2H2CH3NCHSHCH2S2H4CH3NC3FeSCSC2FeHCH2C2H3SCH2CH2CHCSHCH2CNC3H2SHSH2CFeCH2NCH3CH4C3NH2CH7SHCH7C2H2C2H2NH3SHSHFeS2FeS2CFeCFeS2H3CH6CNHCH3CH2FeSC2HSFeS2H2CHCH2CH3C2H4CHCHCH3CNHC2HCH3C2HFeSFeS2CH2FeS2FeH3CH2CH3CH2CH2C2NH4CH3CHCNHSC3H2C3FeH2CH4SH2C2SH3FeSHSHC2H2CSFeHC3S2FeSH2CH2CH2CNHCHSNCHC2HCHCH8SCHC3FeSHCNFeH2CH3CHSCH2C2H3CH2FeS2C2SFeH4C2SCH2CSH3CH2CNH5CHCH4S2H4CH5C4H2SCSCHCH5CHCH3NCHSC2H2CHCH3CHC2HCHS2FeSCSFeHNCH3CSHCHC2HCH3CH2CH3SCH3CH2CH3CH4CH3C2HCFeHNH3SHCSHC3H5NC4H5C3HCHS2HFeHCHSFeSC2Fe2C2HC2HSHCHS2HFeS2FeSFe2S2H3CH2CHCHCHC2FeS2C3H2CHSFeNHCHNH2CH2CH5SC6SH2CH3SFeS2HFeCHC3HC2H5C2H4CH2CNH5SFeHFeSHC5H2CH4NC3HC2H4CH3CHFeS2Fe2S3CSCFeSH7C4NCSH3CHC2HC2FeHCSHSHC3HC2FeSC2HCFe2H3S2CHCH2C2HCH4C2H2NH2CFeS2Fe2S2HSFeC2SHSH3CH2CHCH2FeS2H2C4FeCH3CHCSHCHC2NCH6CH3CH3CHCH4CHCHCSNHFeS2H2CSC2HCSFeSFeCHSHCHC2SH3CH2CH3SH3C3HCSCH2CH3CH2NCH4CSFeH2CH3SFeNCHCH3CH2CH2C4H4SNHCH5C2HFe2S2C3H2CHC2H2NSH2CH5FeHS2H3C5H2CHSNH4C4HSFeS2FeC3NH6FeH2SC2HNHC2FeHCHCH2CHCH4C3SCFeCHCHSH2
_chemical_formula_sum              "H768 C480 S192 Fe96 N48"
_cell_length_a       71.0222
_cell_length_b       71.2504
_cell_length_c       30.2197
_cell_angle_alpha    91.0458
_cell_angle_beta     90.9829
_cell_angle_gamma    117.747

_space_group_name_H-M_alt    "P 1"
_space_group_IT_number       1

loop_
  _space_group_symop_operation_xyz
  'x, y, z'

loop_
  _atom_site_type_symbol
  _atom_site_label
  _atom_site_symmetry_multiplicity
  _atom_site_fract_x
  _atom_site_fract_y
  _atom_site_fract_z
  _atom_site_occupancy
  H   H1        1.0  0.05588  0.39425  0.21698  1.0000
  C   C1        1.0  0.06472  0.40837  0.23762  1.0000
  H   H2        1.0  0.05588  0.49640  0.21742  1.0000
  C   C2        1.0  0.04366  0.48352  0.23695  1.0000
  H   H3        1.0  0.04018  0.46808  0.22048  1.0000
  C   C3        1.0  0.08513  0.42345  0.22542  1.0000
  H   H4        1.0  0.02880  0.48514  0.23501  1.0000
  H   H5        1.0  0.09567  0.47072  0.02036  1.0000
  H   H6        1.0  0.11381  0.50459  0.06773  1.0000
  C   C4        1.0  0.09651  0.44156  0.25253  1.0000
  H   H7        1.0  0.15923  0.39017  0.24010  1.0000
  H   H8        1.0  0.13218  0.38267  0.25400  1.0000
  H   H9        1.0  0.09270  0.41995  0.02295  1.0000
  C   C5        1.0  0.14878  0.39586  0.25629  1.0000
  H   H10       1.0  0.12691  0.39741  0.18370  1.0000
  S   S1        1.0  0.09638  0.41835  0.17785  1.0000
  Fe  Fe1       1.0  0.15012  0.49116  0.12117  1.0000
  Fe  Fe2       1.0  0.16898  0.46020  0.11280  1.0000
  S   S2        1.0  0.19334  0.44877  0.13153  1.0000
  Fe  Fe3       1.0  0.12273  0.44434  0.14028  1.0000
  S   S3        1.0  0.11762  0.46688  0.09732  1.0000
  S   S4        1.0  0.13762  0.43408  0.08618  1.0000
  S   S5        1.0  0.15388  0.46914  0.16907  1.0000
  C   C6        1.0  0.22065  0.45901  0.11817  1.0000
  C   C7        1.0  0.23149  0.47767  0.09485  1.0000
  H   H11       1.0  0.22317  0.48628  0.08412  1.0000
  S   S6        1.0  0.16788  0.48456  0.06721  1.0000
  Fe  Fe4       1.0  0.13523  0.45888  0.04587  1.0000
  N   N1        1.0  0.15032  0.41502  0.23508  1.0000
  C   C8        1.0  0.14371  0.41004  0.18792  1.0000
  H   H12       1.0  0.14475  0.42421  0.17134  1.0000
  H   H13       1.0  0.11225  0.45327  0.24357  1.0000
  C   C9        1.0  0.17255  0.43215  0.23851  1.0000
  H   H14       1.0  0.17425  0.44682  0.22259  1.0000
  H   H15       1.0  0.18359  0.42753  0.22127  1.0000
  H   H16       1.0  0.15413  0.40497  0.16962  1.0000
  H   H17       1.0  0.11923  0.40961  0.25479  1.0000
  H   H18       1.0  0.13689  0.43640  0.24182  1.0000
  C   C10       1.0  0.13619  0.42205  0.25733  1.0000
  H   H19       1.0  0.13346  0.49773  0.01038  1.0000
  H   H20       1.0  0.22365  0.43363  0.14997  1.0000
  C   C11       1.0  0.23184  0.44808  0.13192  1.0000
  C   C12       1.0  0.25326  0.48537  0.08589  1.0000
  C   C13       1.0  0.25360  0.45574  0.12279  1.0000
  H   H21       1.0  0.25458  0.43818  0.91719  1.0000
  C   C14       1.0  0.07071  0.48235  0.28449  1.0000
  H   H22       1.0  0.08398  0.49565  0.26795  1.0000
  H   H23       1.0  0.06809  0.46736  0.26730  1.0000
  H   H24       1.0  0.07605  0.48183  0.31915  1.0000
  H   H25       1.0  0.03126  0.45139  0.29375  1.0000
  N   N2        1.0  0.05105  0.48459  0.28339  1.0000
  H   H26       1.0  0.01914  0.46797  0.30717  1.0000
  H   H27       1.0  0.03930  0.46753  0.34330  1.0000
  C   C15       1.0  0.05557  0.41148  0.27622  1.0000
  C   C16       1.0  0.03442  0.46715  0.30792  1.0000
  Fe  Fe5       1.0  0.02147  0.41264  0.36796  1.0000
  S   S7        1.0  0.05611  0.43399  0.35232  1.0000
  C   C17       1.0  0.06707  0.42939  0.30372  1.0000
  C   C18       1.0  0.08768  0.44426  0.29201  1.0000
  H   H28       1.0  0.03973  0.39987  0.28495  1.0000
  C   C19       1.0  0.01997  0.49398  0.39416  1.0000
  H   H29       1.0  0.03468  0.49971  0.41343  1.0000
  C   C20       1.0  0.05536  0.50522  0.30406  1.0000
  H   H30       1.0  0.01202  0.50705  0.48192  1.0000
  H   H31       1.0  0.06002  0.50623  0.33974  1.0000
  H   H32       1.0  0.09675  0.45808  0.31330  1.0000
  H   H33       1.0  0.04108  0.50779  0.30195  1.0000
  H   H34       1.0  0.17822  0.43637  0.27357  1.0000
  H   H35       1.0  0.14060  0.42598  0.29303  1.0000
  H   H36       1.0  0.15362  0.39903  0.29198  1.0000
  H   H37       1.0  0.01988  0.44886  0.61638  1.0000
  N   N3        1.0  0.01536  0.45027  0.68640  1.0000
  S   S8        1.0  0.01799  0.39364  0.69621  1.0000
  C   C21       1.0  0.01852  0.39494  0.60542  1.0000
  H   H38       1.0  0.01972  0.39600  0.53392  1.0000
  H   H39       1.0  0.02765  0.43458  0.72931  1.0000
  H   H40       1.0  0.03050  0.48439  0.68755  1.0000
  C   C22       1.0  0.02589  0.44927  0.72824  1.0000
  H   H41       1.0  0.03559  0.40416  0.61017  1.0000
  H   H42       1.0  0.04411  0.46231  0.64954  1.0000
  H   H43       1.0  0.04207  0.46295  0.73275  1.0000
  C   C23       1.0  0.02767  0.44889  0.64868  1.0000
  H   H44       1.0  0.01657  0.44925  0.75737  1.0000
  C   C24       1.0  0.01433  0.47052  0.68555  1.0000
  H   H45       1.0  0.02914  0.43400  0.64934  1.0000
  C   C25       1.0  0.00957  0.39038  0.56210  1.0000
  S   S9        1.0  0.03172  0.38218  0.91955  1.0000
  N   N4        1.0  0.10606  0.50242  0.99797  1.0000
  C   C26       1.0  0.09810  0.43528  0.96027  1.0000
  C   C27       1.0  0.12718  0.50502  0.98572  1.0000
  S   S10       1.0  0.01221  0.45610  0.84980  1.0000
  Fe  Fe6       1.0  0.01360  0.38800  0.86353  1.0000
  H   H46       1.0  0.05677  0.39129  0.00052  1.0000
  C   C28       1.0  0.08612  0.41974  0.99026  1.0000
  H   H47       1.0  0.06262  0.41846  0.87264  1.0000
  C   C29       1.0  0.09059  0.47959  0.99732  1.0000
  S   S11       1.0  0.02785  0.41363  0.81449  1.0000
  C   C30       1.0  0.06893  0.41886  0.90558  1.0000
  H   H48       1.0  0.09862  0.44672  0.89455  1.0000
  C   C31       1.0  0.06576  0.40352  0.97751  1.0000
  C   C32       1.0  0.08941  0.43482  0.91800  1.0000
  H   H49       1.0  0.08903  0.47211  0.96385  1.0000
  H   H50       1.0  0.07449  0.47688  0.00689  1.0000
  C   C33       1.0  0.05709  0.40303  0.93512  1.0000
  H   H51       1.0  0.02256  0.49882  0.83109  1.0000
  H   H52       1.0  0.12647  0.49719  0.95305  1.0000
  H   H53       1.0  0.09772  0.50667  0.93161  1.0000
  S   S12       1.0  0.12383  0.45567  0.97455  1.0000
  H   H54       1.0  0.25247  0.42777  0.99598  1.0000
  C   C34       1.0  0.05912  0.61813  0.23795  1.0000
  H   H55       1.0  0.01648  0.61399  0.16187  1.0000
  H   H56       1.0  0.02000  0.58389  0.19334  1.0000
  H   H57       1.0  0.01393  0.57124  0.13937  1.0000
  H   H58       1.0  0.00961  0.60088  0.10826  1.0000
  S   S13       1.0  0.12215  0.61270  0.05084  1.0000
  C   C35       1.0  0.09565  0.61902  0.20036  1.0000
  C   C36       1.0  0.15339  0.57516  0.09198  1.0000
  H   H59       1.0  0.14950  0.58743  0.10310  1.0000
  H   H60       1.0  0.14522  0.55876  0.15357  1.0000
  C   C37       1.0  0.08677  0.60717  0.23802  1.0000
  C   C38       1.0  0.15094  0.55887  0.12056  1.0000
  H   H61       1.0  0.09422  0.59857  0.25331  1.0000
  S   S14       1.0  0.11978  0.62075  0.18125  1.0000
  C   C39       1.0  0.06842  0.60648  0.25639  1.0000
  Fe  Fe7       1.0  0.15638  0.62112  0.04152  1.0000
  C   C40       1.0  0.16100  0.57563  0.04945  1.0000
  H   H62       1.0  0.11859  0.52915  0.04399  1.0000
  S   S15       1.0  0.16411  0.59594  0.01298  1.0000
  C   C41       1.0  0.10757  0.51179  0.04281  1.0000
  H   H63       1.0  0.09182  0.50947  0.05397  1.0000
  C   C42       1.0  0.15584  0.54277  0.10679  1.0000
  S   S16       1.0  0.15222  0.52254  0.14387  1.0000
  C   C43       1.0  0.16597  0.55956  0.03559  1.0000
  C   C44       1.0  0.16335  0.54312  0.06413  1.0000
  H   H64       1.0  0.16749  0.53097  0.05349  1.0000
  H   H65       1.0  0.06075  0.63896  0.18560  1.0000
  C   C45       1.0  0.06788  0.62992  0.20005  1.0000
  C   C46       1.0  0.08596  0.63015  0.18093  1.0000
  Fe  Fe8       1.0  0.13082  0.64371  0.01879  1.0000
  Fe  Fe9       1.0  0.13355  0.63217  0.11405  1.0000
  S   S17       1.0  0.13948  0.66277  0.08323  1.0000
  C   C47       1.0  0.22531  0.72364  0.03539  1.0000
  Fe  Fe10      1.0  0.17302  0.66799  0.07315  1.0000
  S   S18       1.0  0.20086  0.69833  0.10364  1.0000
  S   S19       1.0  0.16732  0.63798  0.10736  1.0000
  H   H66       1.0  0.09264  0.63930  0.15184  1.0000
  C   C48       1.0  0.22242  0.72105  0.08099  1.0000
  N   N5        1.0  0.15921  0.68606  0.21583  1.0000
  C   C49       1.0  0.13567  0.67523  0.21329  1.0000
  C   C50       1.0  0.16703  0.67086  0.20310  1.0000
  C   C51       1.0  0.23715  0.73704  0.11009  1.0000
  H   H67       1.0  0.18473  0.67845  0.20364  1.0000
  H   H68       1.0  0.16151  0.66444  0.16900  1.0000
  H   H69       1.0  0.12959  0.66881  0.17922  1.0000
  H   H70       1.0  0.23507  0.73534  0.14542  1.0000
  C   C52       1.0  0.16754  0.70395  0.18524  1.0000
  H   H71       1.0  0.18528  0.71228  0.18582  1.0000
  H   H72       1.0  0.16238  0.69838  0.15034  1.0000
  H   H73       1.0  0.12906  0.68611  0.22262  1.0000
  H   H74       1.0  0.16200  0.71580  0.19362  1.0000
  C   C53       1.0  0.24261  0.74197  0.01929  1.0000
  H   H75       1.0  0.12887  0.66146  0.23557  1.0000
  H   H76       1.0  0.16099  0.65700  0.22513  1.0000
  H   H77       1.0  0.21415  0.71160  0.01247  1.0000
  C   C54       1.0  0.25445  0.75536  0.09400  1.0000
  S   S20       1.0  0.16481  0.65144  0.00583  1.0000
  S   S21       1.0  0.03680  0.61845  0.26218  1.0000
  S   S22       1.0  0.02561  0.58568  0.37746  1.0000
  Fe  Fe11      1.0  0.01628  0.55283  0.35092  1.0000
  H   H78       1.0  0.01913  0.59422  0.48468  1.0000
  H   H79       1.0  0.01414  0.53852  0.44595  1.0000
  Fe  Fe12      1.0  0.01803  0.59142  0.30767  1.0000
  H   H80       1.0  0.01717  0.55186  0.49849  1.0000
  S   S23       1.0  0.01173  0.55953  0.28094  1.0000
  H   H81       1.0  0.06842  0.51872  0.28752  1.0000
  C   C55       1.0  0.01582  0.50805  0.36921  1.0000
  H   H82       1.0  0.06184  0.59738  0.28561  1.0000
  S   S24       1.0  0.03404  0.53502  0.37021  1.0000
  C   C56       1.0  0.16659  0.69411  0.26158  1.0000
  H   H83       1.0  0.18429  0.70228  0.26457  1.0000
  H   H84       1.0  0.16096  0.70563  0.27230  1.0000
  H   H85       1.0  0.16056  0.68093  0.28535  1.0000
  C   C57       1.0  0.00899  0.58858  0.51290  1.0000
  S   S25       1.0  0.01726  0.59177  0.64689  1.0000
  S   S26       1.0  0.01560  0.55092  0.73142  1.0000
  C   C58       1.0  0.01804  0.59219  0.55606  1.0000
  H   H86       1.0  0.03517  0.60068  0.56073  1.0000
  H   H87       1.0  0.01542  0.52007  0.53517  1.0000
  H   H88       1.0  0.01580  0.62411  0.70470  1.0000
  H   H89       1.0  0.01688  0.64961  0.71216  1.0000
  Fe  Fe13      1.0  0.01856  0.56539  0.79972  1.0000
  H   H90       1.0  0.05686  0.61272  0.84379  1.0000
  S   S27       1.0  0.00911  0.58970  0.77657  1.0000
  S   S28       1.0  0.04409  0.56727  0.84872  1.0000
  H   H91       1.0  0.17357  0.62589  0.87804  1.0000
  C   C59       1.0  0.06481  0.61024  0.87224  1.0000
  H   H92       1.0  0.16757  0.62443  0.93573  1.0000
  H   H93       1.0  0.08295  0.51157  0.97392  1.0000
  H   H94       1.0  0.13905  0.52202  0.98388  1.0000
  C   C60       1.0  0.06082  0.58967  0.88246  1.0000
  C   C61       1.0  0.16349  0.61516  0.90385  1.0000
  H   H95       1.0  0.13052  0.60146  0.95959  1.0000
  C   C62       1.0  0.09037  0.62477  0.93476  1.0000
  H   H96       1.0  0.13964  0.58043  0.85284  1.0000
  H   H97       1.0  0.13262  0.57967  0.93427  1.0000
  H   H98       1.0  0.11019  0.53061  0.96552  1.0000
  C   C63       1.0  0.13573  0.59380  0.85019  1.0000
  C   C64       1.0  0.07963  0.62773  0.89821  1.0000
  H   H99       1.0  0.06819  0.57084  0.92770  1.0000
  H   H100      1.0  0.11851  0.58692  0.84059  1.0000
  H   H101      1.0  0.14496  0.60383  0.82262  1.0000
  C   C65       1.0  0.07133  0.58672  0.91938  1.0000
  C   C66       1.0  0.12799  0.59233  0.92783  1.0000
  H   H102      1.0  0.11066  0.58453  0.91939  1.0000
  N   N6        1.0  0.14056  0.60626  0.89229  1.0000
  H   H103      1.0  0.09372  0.60159  0.97401  1.0000
  C   C67       1.0  0.08586  0.60414  0.94564  1.0000
  H   H104      1.0  0.16821  0.60242  0.90827  1.0000
  C   C68       1.0  0.09891  0.51333  0.96580  1.0000
  H   H105      1.0  0.13788  0.63314  0.91881  1.0000
  H   H106      1.0  0.14449  0.63487  0.86153  1.0000
  C   C69       1.0  0.13499  0.62370  0.88733  1.0000
  H   H107      1.0  0.11787  0.61756  0.87782  1.0000
  H   H108      1.0  0.17212  0.55996  0.00292  1.0000
  H   H109      1.0  0.24459  0.74376  0.98393  1.0000
  H   H110      1.0  0.08299  0.64364  0.88957  1.0000
  S   S29       1.0  0.11027  0.64714  0.96429  1.0000
  C   C70       1.0  0.25734  0.75796  0.04837  1.0000
  H   H111      1.0  0.41127  0.03442  0.18128  1.0000
  Fe  Fe14      1.0  0.47788  0.11008  0.13080  1.0000
  S   S30       1.0  0.47777  0.10133  0.20235  1.0000
  S   S31       1.0  0.47590  0.08804  0.07555  1.0000
  C   C71       1.0  0.45825  0.07583  0.21734  1.0000
  C   C72       1.0  0.44075  0.06349  0.18926  1.0000
  C   C73       1.0  0.42500  0.04363  0.20277  1.0000
  H   H112      1.0  0.43906  0.06943  0.15752  1.0000
  Fe  Fe15      1.0  0.45710  0.10109  0.03904  1.0000
  C   C74       1.0  0.42685  0.03574  0.24399  1.0000
  H   H113      1.0  0.50755  0.08565  0.23335  1.0000
  S   S32       1.0  0.45678  0.12138  0.09708  1.0000
  C   C75       1.0  0.46016  0.06792  0.25848  1.0000
  S   S33       1.0  0.40647  0.01099  0.26051  1.0000
  Fe  Fe16      1.0  0.50445  0.11550  0.04902  1.0000
  H   H114      1.0  0.50129  0.07875  0.15270  1.0000
  H   H115      1.0  0.39182  0.24312  0.04461  1.0000
  C   C76       1.0  0.45819  0.20747  0.04987  1.0000
  C   C77       1.0  0.47079  0.22926  0.06017  1.0000
  S   S34       1.0  0.45928  0.24665  0.05436  1.0000
  H   H116      1.0  0.44185  0.20171  0.03858  1.0000
  H   H117      1.0  0.47623  0.20300  0.19237  1.0000
  H   H118      1.0  0.44502  0.17328  0.15799  1.0000
  H   H119      1.0  0.41966  0.25053  0.04926  1.0000
  C   C78       1.0  0.40762  0.25346  0.03072  1.0000
  C   C79       1.0  0.45868  0.16645  0.23772  1.0000
  C   C80       1.0  0.45367  0.16366  0.15827  1.0000
  H   H120      1.0  0.44170  0.14665  0.16019  1.0000
  H   H121      1.0  0.44732  0.14931  0.24109  1.0000
  H   H122      1.0  0.44950  0.17550  0.24071  1.0000
  H   H123      1.0  0.45672  0.17642  0.04519  1.0000
  C   C81       1.0  0.46658  0.19305  0.05366  1.0000
  S   S35       1.0  0.49917  0.18284  0.07495  1.0000
  C   C82       1.0  0.48463  0.19314  0.19206  1.0000
  H   H124      1.0  0.49356  0.19647  0.16081  1.0000
  H   H125      1.0  0.46131  0.16560  0.12570  1.0000
  C   C83       1.0  0.49191  0.23643  0.07459  1.0000
  H   H126      1.0  0.49665  0.19884  0.21982  1.0000
  H   H127      1.0  0.47065  0.14053  0.19406  1.0000
  H   H128      1.0  0.49355  0.16232  0.21983  1.0000
  N   N7        1.0  0.46962  0.17030  0.19513  1.0000
  Fe  Fe17      1.0  0.48675  0.14684  0.06854  1.0000
  C   C84       1.0  0.48774  0.20026  0.06788  1.0000
  C   C85       1.0  0.48146  0.15790  0.19241  1.0000
  H   H129      1.0  0.49006  0.16065  0.16078  1.0000
  C   C86       1.0  0.50030  0.22201  0.07836  1.0000
  H   H130      1.0  0.50183  0.25311  0.08256  1.0000
  S   S36       1.0  0.50796  0.13686  0.10715  1.0000
  S   S37       1.0  0.42549  0.00917  0.38687  1.0000
  C   C87       1.0  0.44466  0.04784  0.27156  1.0000
  H   H131      1.0  0.47357  0.07738  0.28053  1.0000
  H   H132      1.0  0.44622  0.04194  0.30342  1.0000
  S   S38       1.0  0.48258  0.01789  0.40017  1.0000
  H   H133      1.0  0.42476  0.01997  0.48527  1.0000
  H   H134      1.0  0.45928  0.03939  0.44685  1.0000
  H   H135      1.0  0.46757  0.06132  0.48575  1.0000
  C   C88       1.0  0.46716  0.04568  0.47983  1.0000
  H   H136      1.0  0.48387  0.04839  0.47715  1.0000
  C   C89       1.0  0.45597  0.01032  0.50569  1.0000
  H   H137      1.0  0.47243  0.01250  0.50198  1.0000
  H   H138      1.0  0.47024  0.17131  0.26629  1.0000
  H   H139      1.0  0.42502  0.01635  0.54362  1.0000
  C   C90       1.0  0.43379  0.02727  0.51683  1.0000
  H   H140      1.0  0.48373  0.04233  0.55820  1.0000
  H   H141      1.0  0.43309  0.04237  0.52295  1.0000
  H   H142      1.0  0.45886  0.02867  0.58560  1.0000
  H   H143      1.0  0.46728  0.05505  0.56656  1.0000
  C   C91       1.0  0.46697  0.03963  0.55828  1.0000
  N   N8        1.0  0.45597  0.03074  0.51513  1.0000
  S   S39       1.0  0.48557  0.12719  0.00765  1.0000
  S   S40       1.0  0.42669  0.07564  0.00736  1.0000
  H   H144      1.0  0.49301  0.02523  0.90349  1.0000
  H   H145      1.0  0.47345  0.06002  0.85030  1.0000
  H   H146      1.0  0.44757  0.08144  0.85203  1.0000
  H   H147      1.0  0.48226  0.02985  0.85331  1.0000
  C   C92       1.0  0.49272  0.03791  0.88293  1.0000
  H   H148      1.0  0.45198  0.02918  0.89372  1.0000
  H   H149      1.0  0.40499  0.03350  0.96918  1.0000
  H   H150      1.0  0.49336  0.07072  0.96701  1.0000
  C   C93       1.0  0.48467  0.06723  0.87930  1.0000
  H   H151      1.0  0.45672  0.04601  0.94196  1.0000
  H   H152      1.0  0.47952  0.07765  0.89773  1.0000
  H   H153      1.0  0.40479  0.01882  0.89381  1.0000
  H   H154      1.0  0.44889  0.09587  0.92819  1.0000
  C   C94       1.0  0.46310  0.03688  0.92257  1.0000
  H   H155      1.0  0.46251  0.02399  0.94363  1.0000
  C   C95       1.0  0.41465  0.04391  0.94386  1.0000
  S   S41       1.0  0.42682  0.03925  0.81425  1.0000
  N   N9        1.0  0.48491  0.05077  0.90802  1.0000
  C   C96       1.0  0.42638  0.04909  0.86797  1.0000
  C   C97       1.0  0.43858  0.07087  0.87778  1.0000
  C   C98       1.0  0.43944  0.07906  0.92090  1.0000
  C   C99       1.0  0.42729  0.06562  0.95396  1.0000
  C   C100      1.0  0.41448  0.03559  0.90120  1.0000
  C   C101      1.0  0.49900  0.06104  0.94722  1.0000
  H   H156      1.0  0.50070  0.07758  0.86641  1.0000
  H   H157      1.0  0.49966  0.04911  0.96958  1.0000
  H   H158      1.0  0.37569  0.24373  0.97132  1.0000
  H   H159      1.0  0.41478  0.22333  0.99207  1.0000
  C   C102      1.0  0.40289  0.22695  0.97472  1.0000
  H   H160      1.0  0.40311  0.22330  0.93883  1.0000
  N   N10       1.0  0.40790  0.24935  0.98269  1.0000
  C   C103      1.0  0.39201  0.25383  0.95943  1.0000
  H   H161      1.0  0.39182  0.25101  0.92305  1.0000
  H   H162      1.0  0.38691  0.21592  0.98699  1.0000
  H   H163      1.0  0.35793  0.33919  0.15972  1.0000
  H   H164      1.0  0.38321  0.34971  0.18843  1.0000
  C   C104      1.0  0.37278  0.35409  0.16787  1.0000
  H   H165      1.0  0.38101  0.36035  0.13637  1.0000
  N   N11       1.0  0.36818  0.36981  0.19141  1.0000
  H   H166      1.0  0.36763  0.35670  0.25527  1.0000
  C   C105      1.0  0.35747  0.36082  0.23312  1.0000
  H   H167      1.0  0.34220  0.34612  0.22683  1.0000
  H   H168      1.0  0.35387  0.37226  0.25193  1.0000
  H   H169      1.0  0.41490  0.34031  0.18251  1.0000
  H   H170      1.0  0.33874  0.36079  0.15500  1.0000
  C   C106      1.0  0.42558  0.34506  0.25100  1.0000
  C   C107      1.0  0.35419  0.37504  0.16301  1.0000
  C   C108      1.0  0.42602  0.33950  0.20632  1.0000
  S   S42       1.0  0.48075  0.34098  0.07979  1.0000
  Fe  Fe18      1.0  0.47299  0.28260  0.06745  1.0000
  Fe  Fe19      1.0  0.47679  0.31803  0.13305  1.0000
  S   S43       1.0  0.47634  0.32692  0.20525  1.0000
  C   C109      1.0  0.45568  0.33232  0.22245  1.0000
  C   C110      1.0  0.44114  0.33333  0.19198  1.0000
  H   H171      1.0  0.44171  0.32959  0.15732  1.0000
  S   S44       1.0  0.44912  0.29089  0.09877  1.0000
  Fe  Fe20      1.0  0.45512  0.31298  0.04283  1.0000
  H   H172      1.0  0.46998  0.37597  0.22187  1.0000
  S   S45       1.0  0.50078  0.30847  0.10640  1.0000
  H   H173      1.0  0.41125  0.27022  0.03790  1.0000
  Fe  Fe21      1.0  0.50277  0.32993  0.05050  1.0000
  S   S46       1.0  0.42737  0.31485  0.00981  1.0000
  Fe  Fe22      1.0  0.31666  0.47348  0.09917  1.0000
  S   S47       1.0  0.29188  0.48506  0.08711  1.0000
  S   S48       1.0  0.31290  0.44175  0.07535  1.0000
  Fe  Fe23      1.0  0.33503  0.44507  0.13316  1.0000
  S   S49       1.0  0.33663  0.47548  0.16001  1.0000
  S   S50       1.0  0.34578  0.49189  0.05891  1.0000
  Fe  Fe24      1.0  0.36508  0.49086  0.11693  1.0000
  Fe  Fe25      1.0  0.34297  0.46028  0.03852  1.0000
  S   S51       1.0  0.33122  0.41840  0.17770  1.0000
  C   C111      1.0  0.26449  0.47455  0.09997  1.0000
  H   H174      1.0  0.26196  0.44721  0.13382  1.0000
  H   H175      1.0  0.26149  0.49994  0.06821  1.0000
  H   H176      1.0  0.27463  0.44262  0.03354  1.0000
  H   H177      1.0  0.36176  0.38183  0.13122  1.0000
  H   H178      1.0  0.39908  0.38594  0.22372  1.0000
  C   C112      1.0  0.38833  0.38927  0.20162  1.0000
  H   H179      1.0  0.39704  0.39632  0.17104  1.0000
  H   H180      1.0  0.35046  0.38696  0.17942  1.0000
  H   H181      1.0  0.38543  0.40159  0.21879  1.0000
  H   H182      1.0  0.33575  0.39583  0.25181  1.0000
  S   S52       1.0  0.36455  0.46057  0.09361  1.0000
  C   C113      1.0  0.36972  0.44527  0.21863  1.0000
  H   H183      1.0  0.37100  0.45673  0.19433  1.0000
  C   C114      1.0  0.35158  0.42551  0.21872  1.0000
  C   C115      1.0  0.35000  0.41092  0.25093  1.0000
  C   C116      1.0  0.38631  0.45026  0.25003  1.0000
  H   H184      1.0  0.40021  0.46560  0.24958  1.0000
  H   H185      1.0  0.43601  0.49603  0.05469  1.0000
  H   H186      1.0  0.41042  0.49182  0.07301  1.0000
  H   H187      1.0  0.38471  0.49374  0.02132  1.0000
  C   C117      1.0  0.42333  0.50085  0.04966  1.0000
  H   H188      1.0  0.39340  0.46415  0.01146  1.0000
  H   H189      1.0  0.45921  0.39241  0.24349  1.0000
  H   H190      1.0  0.50239  0.43417  0.23727  1.0000
  N   N12       1.0  0.49213  0.40274  0.26145  1.0000
  H   H191      1.0  0.47710  0.40106  0.19798  1.0000
  C   C118      1.0  0.47380  0.39267  0.22982  1.0000
  H   H192      1.0  0.50600  0.37933  0.01688  1.0000
  H   H193      1.0  0.50662  0.38403  0.23743  1.0000
  S   S53       1.0  0.40726  0.35397  0.26741  1.0000
  Fe  Fe26      1.0  0.41503  0.37589  0.32786  1.0000
  S   S54       1.0  0.39587  0.37273  0.48990  1.0000
  S   S55       1.0  0.43286  0.37748  0.39109  1.0000
  C   C119      1.0  0.45465  0.33704  0.26736  1.0000
  H   H194      1.0  0.48369  0.37527  0.30085  1.0000
  C   C120      1.0  0.43986  0.34368  0.28155  1.0000
  H   H195      1.0  0.43937  0.34752  0.31617  1.0000
  H   H196      1.0  0.46559  0.33588  0.29116  1.0000
  H   H197      1.0  0.44722  0.50567  0.26728  1.0000
  C   C121      1.0  0.36675  0.41581  0.28202  1.0000
  H   H198      1.0  0.42725  0.49114  0.30672  1.0000
  C   C122      1.0  0.44280  0.49371  0.29349  1.0000
  H   H199      1.0  0.44003  0.47839  0.27748  1.0000
  S   S56       1.0  0.39047  0.38242  0.36135  1.0000
  C   C123      1.0  0.47945  0.50284  0.31029  1.0000
  C   C124      1.0  0.38502  0.43547  0.28144  1.0000
  Fe  Fe27      1.0  0.41034  0.38723  0.42425  1.0000
  S   S57       1.0  0.43050  0.42222  0.41505  1.0000
  S   S58       1.0  0.43572  0.40988  0.31257  1.0000
  Fe  Fe28      1.0  0.45158  0.41214  0.37826  1.0000
  Fe  Fe29      1.0  0.41260  0.41673  0.34987  1.0000
  S   S59       1.0  0.40642  0.44228  0.31968  1.0000
  H   H200      1.0  0.48570  0.48863  0.45940  1.0000
  H   H201      1.0  0.36540  0.40454  0.30687  1.0000
  N   N13       1.0  0.45939  0.50043  0.32906  1.0000
  C   C125      1.0  0.45240  0.48424  0.36345  1.0000
  H   H202      1.0  0.43646  0.48077  0.37589  1.0000
  H   H203      1.0  0.45112  0.46892  0.35060  1.0000
  H   H204      1.0  0.46366  0.48955  0.39236  1.0000
  H   H205      1.0  0.47769  0.48746  0.29669  1.0000
  H   H206      1.0  0.47406  0.45044  0.44436  1.0000
  H   H207      1.0  0.25920  0.45455  0.01277  1.0000
  C   C126      1.0  0.49771  0.42533  0.26852  1.0000
  H   H208      1.0  0.48405  0.42707  0.28187  1.0000
  C   C127      1.0  0.49342  0.48385  0.43428  1.0000
  C   C128      1.0  0.48665  0.46224  0.42545  1.0000
  H   H209      1.0  0.49939  0.40003  0.32981  1.0000
  S   S60       1.0  0.48724  0.42909  0.37937  1.0000
  C   C129      1.0  0.49639  0.45596  0.39267  1.0000
  H   H210      1.0  0.47182  0.39160  0.31744  1.0000
  C   C130      1.0  0.48650  0.39191  0.30415  1.0000
  H   H211      1.0  0.38013  0.36006  0.57700  1.0000
  H   H212      1.0  0.43219  0.38356  0.67675  1.0000
  C   C131      1.0  0.44318  0.37967  0.65748  1.0000
  C   C132      1.0  0.39332  0.37591  0.58031  1.0000
  H   H213      1.0  0.39107  0.37789  0.65152  1.0000
  H   H214      1.0  0.40265  0.34888  0.64861  1.0000
  H   H215      1.0  0.41580  0.35191  0.59708  1.0000
  H   H216      1.0  0.42164  0.35153  0.71930  1.0000
  C   C133      1.0  0.41479  0.34596  0.63130  1.0000
  H   H217      1.0  0.40866  0.32848  0.62858  1.0000
  C   C134      1.0  0.43339  0.34851  0.70056  1.0000
  N   N14       1.0  0.43565  0.35654  0.65517  1.0000
  H   H218      1.0  0.42786  0.33112  0.70057  1.0000
  H   H219      1.0  0.44872  0.35639  0.71996  1.0000
  C   C135      1.0  0.45121  0.35208  0.63142  1.0000
  H   H220      1.0  0.46710  0.35982  0.64868  1.0000
  H   H221      1.0  0.44600  0.33474  0.62897  1.0000
  H   H222      1.0  0.45328  0.35809  0.59711  1.0000
  H   H223      1.0  0.44419  0.38629  0.62396  1.0000
  H   H224      1.0  0.42897  0.41513  0.51788  1.0000
  C   C136      1.0  0.39953  0.38594  0.62259  1.0000
  C   C137      1.0  0.40391  0.38629  0.54222  1.0000
  Fe  Fe30      1.0  0.42246  0.40605  0.74830  1.0000
  S   S61       1.0  0.42510  0.41984  0.67961  1.0000
  C   C138      1.0  0.42071  0.40692  0.54684  1.0000
  C   C139      1.0  0.41637  0.40654  0.62717  1.0000
  C   C140      1.0  0.42679  0.41701  0.58904  1.0000
  H   H225      1.0  0.43974  0.43300  0.59217  1.0000
  H   H226      1.0  0.47271  0.48227  0.75589  1.0000
  H   H227      1.0  0.45917  0.38833  0.67408  1.0000
  H   H228      1.0  0.50130  0.46589  0.70549  1.0000
  C   C141      1.0  0.50746  0.46716  0.73902  1.0000
  S   S62       1.0  0.39832  0.37671  0.78166  1.0000
  Fe  Fe31      1.0  0.42661  0.37367  0.80819  1.0000
  C   C142      1.0  0.41748  0.33912  0.89712  1.0000
  H   H229      1.0  0.40746  0.34600  0.88651  1.0000
  H   H230      1.0  0.40572  0.33398  0.96338  1.0000
  C   C143      1.0  0.41646  0.33224  0.94065  1.0000
  H   H231      1.0  0.39562  0.27074  0.96495  1.0000
  H   H232      1.0  0.47165  0.38896  0.97709  1.0000
  H   H233      1.0  0.48751  0.35641  0.90326  1.0000
  S   S63       1.0  0.43222  0.34506  0.81241  1.0000
  C   C144      1.0  0.42925  0.26328  0.96603  1.0000
  H   H234      1.0  0.43006  0.26083  0.92981  1.0000
  H   H235      1.0  0.44167  0.26031  0.98271  1.0000
  H   H236      1.0  0.43359  0.28026  0.97210  1.0000
  S   S64       1.0  0.47720  0.30344  0.00920  1.0000
  C   C145      1.0  0.43094  0.33656  0.86716  1.0000
  H   H237      1.0  0.46822  0.36288  0.98862  1.0000
  C   C146      1.0  0.42935  0.32336  0.95496  1.0000
  C   C147      1.0  0.44359  0.32730  0.88115  1.0000
  C   C148      1.0  0.44310  0.32107  0.92523  1.0000
  H   H238      1.0  0.45399  0.32525  0.85802  1.0000
  H   H239      1.0  0.45316  0.31428  0.93589  1.0000
  H   H240      1.0  0.49267  0.35075  0.95861  1.0000
  C   C149      1.0  0.49763  0.36340  0.93368  1.0000
  N   N15       1.0  0.49580  0.38203  0.95093  1.0000
  H   H241      1.0  0.46243  0.36881  0.93411  1.0000
  C   C150      1.0  0.47358  0.37539  0.96332  1.0000
  H   H242      1.0  0.26167  0.46492  0.93478  1.0000
  C   C151      1.0  0.26823  0.45378  0.92713  1.0000
  C   C152      1.0  0.26599  0.44377  0.00348  1.0000
  H   H243      1.0  0.29230  0.48450  0.98712  1.0000
  H   H244      1.0  0.30936  0.47952  0.95029  1.0000
  C   C153      1.0  0.29808  0.47291  0.97775  1.0000
  H   H245      1.0  0.27853  0.45986  0.89798  1.0000
  H   H246      1.0  0.29995  0.44289  0.92618  1.0000
  H   H247      1.0  0.29801  0.43527  0.98245  1.0000
  N   N16       1.0  0.28026  0.45186  0.96562  1.0000
  C   C154      1.0  0.28881  0.43707  0.95414  1.0000
  H   H248      1.0  0.30732  0.47194  0.00681  1.0000
  S   S65       1.0  0.34806  0.45794  0.96530  1.0000
  H   H249      1.0  0.27589  0.42099  0.94460  1.0000
  C   C155      1.0  0.39786  0.50296  0.99877  1.0000
  H   H250      1.0  0.44601  0.50629  0.97638  1.0000
  H   H251      1.0  0.48363  0.50408  0.87116  1.0000
  S   S66       1.0  0.45004  0.40076  0.76979  1.0000
  S   S67       1.0  0.38027  0.39370  0.89429  1.0000
  H   H252      1.0  0.36314  0.39746  0.97664  1.0000
  H   H253      1.0  0.35038  0.42228  0.00543  1.0000
  H   H254      1.0  0.41947  0.46924  0.99466  1.0000
  H   H255      1.0  0.45317  0.48407  0.79020  1.0000
  C   C156      1.0  0.46995  0.48692  0.78960  1.0000
  H   H256      1.0  0.39079  0.49964  0.96454  1.0000
  H   H257      1.0  0.36639  0.45513  0.88292  1.0000
  H   H258      1.0  0.47154  0.47585  0.81317  1.0000
  N   N17       1.0  0.41522  0.49713  0.00327  1.0000
  C   C157      1.0  0.40702  0.47446  0.99077  1.0000
  C   C158      1.0  0.37272  0.41263  0.91405  1.0000
  C   C159      1.0  0.37386  0.42911  0.88792  1.0000
  Fe  Fe32      1.0  0.40442  0.39861  0.84157  1.0000
  S   S68       1.0  0.42635  0.42815  0.80654  1.0000
  C   C160      1.0  0.35748  0.44036  0.94616  1.0000
  S   S69       1.0  0.43108  0.39338  0.86942  1.0000
  C   C161      1.0  0.35693  0.42429  0.97275  1.0000
  C   C162      1.0  0.36423  0.41031  0.95646  1.0000
  Fe  Fe33      1.0  0.45226  0.42075  0.82933  1.0000
  H   H259      1.0  0.38010  0.43084  0.85499  1.0000
  C   C163      1.0  0.36596  0.44275  0.90372  1.0000
  H   H260      1.0  0.40120  0.47119  0.95566  1.0000
  H   H261      1.0  0.42697  0.50790  0.93865  1.0000
  C   C164      1.0  0.50187  0.39812  0.91639  1.0000
  C   C165      1.0  0.50152  0.45733  0.81595  1.0000
  H   H262      1.0  0.50057  0.41238  0.92813  1.0000
  H   H263      1.0  0.49135  0.39175  0.88619  1.0000
  H   H264      1.0  0.47740  0.44460  0.76383  1.0000
  S   S70       1.0  0.48402  0.44427  0.85828  1.0000
  C   C166      1.0  0.49393  0.45500  0.77209  1.0000
  H   H265      1.0  0.38299  0.53562  0.07379  1.0000
  H   H266      1.0  0.40269  0.56827  0.03109  1.0000
  C   C167      1.0  0.40007  0.54478  0.07814  1.0000
  H   H267      1.0  0.42488  0.60992  0.16560  1.0000
  H   H268      1.0  0.41946  0.60017  0.24510  1.0000
  C   C168      1.0  0.41123  0.56328  0.05406  1.0000
  H   H269      1.0  0.42290  0.58436  0.15256  1.0000
  C   C169      1.0  0.43415  0.60096  0.16336  1.0000
  S   S71       1.0  0.39772  0.51594  0.14030  1.0000
  H   H270      1.0  0.41782  0.57486  0.23091  1.0000
  C   C170      1.0  0.41100  0.53857  0.10854  1.0000
  H   H271      1.0  0.44702  0.57277  0.19417  1.0000
  H   H272      1.0  0.46742  0.59164  0.23113  1.0000
  C   C171      1.0  0.45752  0.58996  0.20087  1.0000
  N   N18       1.0  0.44507  0.60165  0.20595  1.0000
  C   C172      1.0  0.43331  0.57561  0.06041  1.0000
  C   C173      1.0  0.43310  0.55066  0.11418  1.0000
  C   C174      1.0  0.44424  0.56910  0.09013  1.0000
  H   H273      1.0  0.44166  0.54567  0.13707  1.0000
  H   H274      1.0  0.46125  0.57833  0.09483  1.0000
  S   S72       1.0  0.44671  0.59943  0.03219  1.0000
  H   H275      1.0  0.46868  0.59607  0.17299  1.0000
  S   S73       1.0  0.50369  0.61088  0.08063  1.0000
  H   H276      1.0  0.44571  0.60798  0.13641  1.0000
  H   H277      1.0  0.43016  0.51789  0.05969  1.0000
  C   C175      1.0  0.45954  0.62395  0.21937  1.0000
  Fe  Fe34      1.0  0.48060  0.62151  0.05441  1.0000
  C   C176      1.0  0.42908  0.59169  0.24024  1.0000
  H   H278      1.0  0.46823  0.62506  0.25117  1.0000
  H   H279      1.0  0.27803  0.73341  0.04568  1.0000
  N   N19       1.0  0.30834  0.74267  0.07815  1.0000
  C   C177      1.0  0.32024  0.73261  0.09890  1.0000
  H   H280      1.0  0.31179  0.72324  0.12788  1.0000
  H   H281      1.0  0.33638  0.74479  0.11091  1.0000
  H   H282      1.0  0.32242  0.72175  0.07507  1.0000
  C   C178      1.0  0.28707  0.72621  0.06250  1.0000
  H   H283      1.0  0.27730  0.71697  0.09037  1.0000
  H   H284      1.0  0.32242  0.74496  0.01467  1.0000
  H   H285      1.0  0.28823  0.71487  0.03828  1.0000
  H   H286      1.0  0.29612  0.74807  0.13916  1.0000
  C   C179      1.0  0.32020  0.75512  0.04022  1.0000
  C   C180      1.0  0.30594  0.75694  0.11104  1.0000
  C   C181      1.0  0.45484  0.72899  0.06680  1.0000
  N   N20       1.0  0.45107  0.74651  0.05104  1.0000
  H   H287      1.0  0.44204  0.71842  0.08880  1.0000
  H   H288      1.0  0.47016  0.73518  0.08610  1.0000
  C   C182      1.0  0.43044  0.73784  0.02645  1.0000
  H   H289      1.0  0.41703  0.72770  0.04769  1.0000
  H   H290      1.0  0.42726  0.75085  0.01437  1.0000
  H   H291      1.0  0.43793  0.75014  0.11234  1.0000
  H   H292      1.0  0.45574  0.71911  0.03875  1.0000
  H   H293      1.0  0.47195  0.63181  0.19447  1.0000
  H   H294      1.0  0.50755  0.74230  0.15922  1.0000
  H   H295      1.0  0.45083  0.63339  0.22329  1.0000
  S   S74       1.0  0.48706  0.64615  0.10789  1.0000
  H   H296      1.0  0.48484  0.51446  0.28329  1.0000
  C   C183      1.0  0.46289  0.52093  0.34909  1.0000
  H   H297      1.0  0.47548  0.52646  0.37591  1.0000
  H   H298      1.0  0.43679  0.59177  0.27268  1.0000
  H   H299      1.0  0.44810  0.51960  0.36396  1.0000
  H   H300      1.0  0.46814  0.53355  0.32414  1.0000
  H   H301      1.0  0.48529  0.52005  0.73528  1.0000
  H   H302      1.0  0.40353  0.52008  0.00696  1.0000
  H   H303      1.0  0.43914  0.52750  0.98258  1.0000
  C   C184      1.0  0.50709  0.51223  0.79892  1.0000
  C   C185      1.0  0.43263  0.51027  0.97389  1.0000
  H   H304      1.0  0.50463  0.58116  0.89088  1.0000
  H   H305      1.0  0.49366  0.54043  0.77787  1.0000
  C   C186      1.0  0.48232  0.52346  0.76982  1.0000
  C   C187      1.0  0.48142  0.51447  0.84675  1.0000
  H   H306      1.0  0.46503  0.51251  0.84981  1.0000
  H   H307      1.0  0.49281  0.53121  0.85658  1.0000
  N   N21       1.0  0.48514  0.50925  0.80125  1.0000
  H   H308      1.0  0.46593  0.52171  0.77053  1.0000
  H   H309      1.0  0.46958  0.75047  0.99300  1.0000
  H   H310      1.0  0.43015  0.72807  0.99704  1.0000
  S   S75       1.0  0.50386  0.64491  0.00865  1.0000
  H   H311      1.0  0.49250  0.50869  0.33587  1.0000
  S   S76       1.0  0.27942  0.78023  0.02576  1.0000
  H   H312      1.0  0.32167  0.76900  0.12496  1.0000
  Fe  Fe35      1.0  0.33656  0.84629  0.11813  1.0000
  S   S77       1.0  0.32199  0.84360  0.04964  1.0000
  S   S78       1.0  0.32228  0.81088  0.12519  1.0000
  Fe  Fe36      1.0  0.31017  0.80807  0.05490  1.0000
  S   S79       1.0  0.36870  0.79621  0.12126  1.0000
  S   S80       1.0  0.36762  0.84988  0.09405  1.0000
  C   C188      1.0  0.38971  0.79712  0.08989  1.0000
  Fe  Fe37      1.0  0.35233  0.81443  0.09464  1.0000
  C   C189      1.0  0.38934  0.79827  0.04376  1.0000
  Fe  Fe38      1.0  0.35274  0.84559  0.02593  1.0000
  S   S81       1.0  0.33997  0.81016  0.02487  1.0000
  S   S82       1.0  0.33536  0.86876  0.17118  1.0000
  H   H313      1.0  0.37576  0.79810  0.02666  1.0000
  H   H314      1.0  0.41135  0.86797  0.03353  1.0000
  H   H315      1.0  0.40559  0.84042  0.08740  1.0000
  C   C190      1.0  0.42067  0.85167  0.10500  1.0000
  H   H316      1.0  0.41636  0.86000  0.13131  1.0000
  H   H317      1.0  0.33626  0.76783  0.05099  1.0000
  H   H318      1.0  0.29807  0.76567  0.09582  1.0000
  H   H319      1.0  0.31159  0.76294  0.02385  1.0000
  H   H320      1.0  0.37862  0.87382  0.17834  1.0000
  H   H321      1.0  0.26536  0.76757  0.11693  1.0000
  C   C191      1.0  0.40658  0.79953  0.01954  1.0000
  N   N22       1.0  0.43592  0.86670  0.07409  1.0000
  H   H322      1.0  0.40779  0.79656  0.14736  1.0000
  C   C192      1.0  0.40741  0.79737  0.11164  1.0000
  H   H323      1.0  0.42729  0.84212  0.12161  1.0000
  H   H324      1.0  0.44831  0.77309  0.07847  1.0000
  H   H325      1.0  0.42658  0.84369  0.02035  1.0000
  C   C193      1.0  0.44107  0.85485  0.03988  1.0000
  H   H326      1.0  0.44819  0.84535  0.05487  1.0000
  H   H327      1.0  0.45265  0.86566  0.01609  1.0000
  Fe  Fe39      1.0  0.47909  0.81959  0.04439  1.0000
  S   S83       1.0  0.48387  0.81491  0.11569  1.0000
  C   C194      1.0  0.42466  0.80066  0.04142  1.0000
  C   C195      1.0  0.42505  0.79965  0.08759  1.0000
  H   H328      1.0  0.43886  0.80055  0.10492  1.0000
  S   S84       1.0  0.49950  0.85485  0.04902  1.0000
  Fe  Fe40      1.0  0.50664  0.84977  0.11911  1.0000
  S   S85       1.0  0.50535  0.81312  0.02027  1.0000
  S   S86       1.0  0.50404  0.87323  0.16724  1.0000
  H   H329      1.0  0.46327  0.87267  0.11535  1.0000
  H   H330      1.0  0.46616  0.76632  0.10881  1.0000
  C   C196      1.0  0.45082  0.75956  0.08938  1.0000
  H   H331      1.0  0.48396  0.76732  0.03957  1.0000
  C   C197      1.0  0.46828  0.75985  0.02152  1.0000
  H   H332      1.0  0.35716  0.97286  0.16887  1.0000
  H   H333      1.0  0.34075  0.94458  0.16472  1.0000
  C   C198      1.0  0.42622  0.87875  0.05261  1.0000
  H   H334      1.0  0.43716  0.89029  0.02893  1.0000
  H   H335      1.0  0.42178  0.88766  0.07734  1.0000
  H   H336      1.0  0.35696  0.94039  0.23535  1.0000
  C   C199      1.0  0.37684  0.88378  0.20349  1.0000
  C   C200      1.0  0.37212  0.95400  0.22543  1.0000
  H   H337      1.0  0.38544  0.95240  0.24181  1.0000
  H   H338      1.0  0.35702  0.92080  0.16617  1.0000
  H   H339      1.0  0.38515  0.93125  0.17559  1.0000
  H   H340      1.0  0.37251  0.96877  0.23936  1.0000
  C   C201      1.0  0.35660  0.95775  0.15665  1.0000
  H   H341      1.0  0.35754  0.95831  0.11992  1.0000
  C   C202      1.0  0.37277  0.93454  0.15968  1.0000
  H   H342      1.0  0.39603  0.98805  0.17729  1.0000
  C   C203      1.0  0.35726  0.88379  0.20775  1.0000
  H   H343      1.0  0.37484  0.93470  0.12325  1.0000
  H   H344      1.0  0.40827  0.97111  0.18136  1.0000
  H   H345      1.0  0.39699  0.97343  0.12914  1.0000
  C   C204      1.0  0.39475  0.97257  0.16553  1.0000
  N   N23       1.0  0.37406  0.95470  0.17679  1.0000
  H   H346      1.0  0.40922  0.89649  0.22856  1.0000
  C   C205      1.0  0.39417  0.89667  0.23201  1.0000
  C   C206      1.0  0.35516  0.89668  0.24100  1.0000
  H   H347      1.0  0.33999  0.89658  0.24487  1.0000
  C   C207      1.0  0.45562  0.88141  0.09885  1.0000
  H   H348      1.0  0.45234  0.89056  0.12510  1.0000
  H   H349      1.0  0.46754  0.89296  0.07656  1.0000
  H   H350      1.0  0.47889  0.93430  0.25287  1.0000
  C   C208      1.0  0.39214  0.90982  0.26471  1.0000
  C   C209      1.0  0.37253  0.90970  0.26927  1.0000
  H   H351      1.0  0.45830  0.94016  0.27208  1.0000
  Fe  Fe41      1.0  0.41577  0.95475  0.33608  1.0000
  S   S87       1.0  0.38961  0.96385  0.34354  1.0000
  Fe  Fe42      1.0  0.40446  0.97658  0.41174  1.0000
  S   S88       1.0  0.43889  0.98572  0.30800  1.0000
  S   S89       1.0  0.42867  0.96482  0.40609  1.0000
  C   C210      1.0  0.48465  0.98500  0.44128  1.0000
  H   H352      1.0  0.46960  0.98160  0.45556  1.0000
  H   H353      1.0  0.37064  0.91937  0.29503  1.0000
  Fe  Fe43      1.0  0.41363  0.99552  0.31861  1.0000
  S   S90       1.0  0.41438  0.92600  0.29942  1.0000
  S   S91       1.0  0.38818  0.97614  0.47638  1.0000
  Fe  Fe44      1.0  0.44884  0.99674  0.37825  1.0000
  H   H354      1.0  0.41534  0.95725  0.50214  1.0000
  H   H355      1.0  0.45215  0.94074  0.35287  1.0000
  H   H356      1.0  0.46951  0.93705  0.39153  1.0000
  C   C211      1.0  0.46868  0.94321  0.35836  1.0000
  H   H357      1.0  0.47932  0.96063  0.35955  1.0000
  H   H358      1.0  0.44310  0.90693  0.31362  1.0000
  C   C212      1.0  0.49476  0.00233  0.41386  1.0000
  H   H359      1.0  0.44693  0.00267  0.47437  1.0000
  H   H360      1.0  0.48576  0.95928  0.28075  1.0000
  H   H361      1.0  0.46386  0.90111  0.29538  1.0000
  C   C213      1.0  0.45962  0.90969  0.32129  1.0000
  H   H362      1.0  0.45933  0.90222  0.35349  1.0000
  H   H363      1.0  0.49728  0.92835  0.36515  1.0000
  C   C214      1.0  0.47445  0.94199  0.28025  1.0000
  H   H364      1.0  0.50197  0.92816  0.30701  1.0000
  H   H365      1.0  0.48603  0.95834  0.47086  1.0000
  C   C215      1.0  0.49396  0.97188  0.45005  1.0000
  C   C216      1.0  0.49652  0.93556  0.33319  1.0000
  N   N24       1.0  0.47482  0.93259  0.32324  1.0000
  H   H366      1.0  0.50829  0.95270  0.33632  1.0000
  H   H367      1.0  0.33707  0.87839  0.71957  1.0000
  H   H368      1.0  0.32410  0.89435  0.70816  1.0000
  H   H369      1.0  0.34567  0.93276  0.69483  1.0000
  C   C217      1.0  0.33848  0.89454  0.72384  1.0000
  H   H370      1.0  0.44853  0.99899  0.53264  1.0000
  H   H371      1.0  0.34463  0.90656  0.63873  1.0000
  H   H372      1.0  0.37317  0.91858  0.64158  1.0000
  C   C218      1.0  0.35837  0.90639  0.65667  1.0000
  H   H373      1.0  0.35763  0.89063  0.65023  1.0000
  C   C219      1.0  0.35936  0.93191  0.71133  1.0000
  N   N25       1.0  0.35822  0.91082  0.70463  1.0000
  H   H374      1.0  0.38013  0.98496  0.56540  1.0000
  S   S92       1.0  0.42080  0.96140  0.66427  1.0000
  C   C220      1.0  0.41153  0.96593  0.61271  1.0000
  C   C221      1.0  0.41760  0.95941  0.57367  1.0000
  C   C222      1.0  0.39066  0.97787  0.56761  1.0000
  H   H375      1.0  0.42787  0.95202  0.57578  1.0000
  H   H376      1.0  0.39315  0.98022  0.63930  1.0000
  C   C223      1.0  0.41053  0.96237  0.53181  1.0000
  C   C224      1.0  0.39804  0.97522  0.60954  1.0000
  C   C225      1.0  0.39706  0.97168  0.52851  1.0000
  Fe  Fe45      1.0  0.41926  0.97330  0.73406  1.0000
  H   H377      1.0  0.37644  0.89490  0.72280  1.0000
  H   H378      1.0  0.35916  0.93570  0.74723  1.0000
  C   C226      1.0  0.37680  0.91060  0.72688  1.0000
  H   H379      1.0  0.37418  0.94459  0.69750  1.0000
  H   H380      1.0  0.39199  0.92271  0.71316  1.0000
  H   H381      1.0  0.50799  0.00084  0.71618  1.0000
  H   H382      1.0  0.47832  0.93205  0.75452  1.0000
  S   S93       1.0  0.37710  0.86674  0.97706  1.0000
  H   H383      1.0  0.33993  0.87210  0.95098  1.0000
  H   H384      1.0  0.40618  0.80033  0.98381  1.0000
  C   C227      1.0  0.37360  0.88461  0.94195  1.0000
  C   C228      1.0  0.35370  0.88373  0.93443  1.0000
  S   S94       1.0  0.44666  0.80390  0.01029  1.0000
  H   H385      1.0  0.46557  0.77286  0.00793  1.0000
  H   H386      1.0  0.33814  0.89764  0.76013  1.0000
  H   H387      1.0  0.33606  0.89676  0.89867  1.0000
  Fe  Fe46      1.0  0.41997  0.00510  0.80527  1.0000
  S   S95       1.0  0.39349  0.97819  0.76620  1.0000
  H   H388      1.0  0.37726  0.91406  0.76313  1.0000
  S   S96       1.0  0.44560  0.00202  0.76839  1.0000
  H   H389      1.0  0.47676  0.98869  0.76384  1.0000
  C   C229      1.0  0.49237  0.99400  0.77878  1.0000
  C   C230      1.0  0.49486  0.99310  0.82459  1.0000
  H   H390      1.0  0.45996  0.92388  0.84912  1.0000
  H   H391      1.0  0.40674  0.90055  0.92567  1.0000
  C   C231      1.0  0.39131  0.89976  0.92006  1.0000
  S   S97       1.0  0.36601  0.92974  0.84457  1.0000
  Fe  Fe47      1.0  0.39565  0.95755  0.81994  1.0000
  H   H392      1.0  0.40301  0.92556  0.87451  1.0000
  C   C232      1.0  0.36929  0.91286  0.88287  1.0000
  C   C233      1.0  0.38923  0.91394  0.89098  1.0000
  C   C234      1.0  0.35154  0.89769  0.90469  1.0000
  S   S98       1.0  0.41993  0.95126  0.78586  1.0000
  S   S99       1.0  0.41967  0.98496  0.86169  1.0000
  Fe  Fe48      1.0  0.44374  0.98035  0.82257  1.0000
  S   S100      1.0  0.47274  0.98287  0.85840  1.0000
  H   H393      1.0  0.47682  0.95057  0.79340  1.0000
  H   H394      1.0  0.50209  0.95562  0.77167  1.0000
  C   C235      1.0  0.46923  0.91588  0.83686  1.0000
  H   H395      1.0  0.47124  0.90692  0.86478  1.0000
  H   H396      1.0  0.50554  0.93875  0.88478  1.0000
  C   C236      1.0  0.48668  0.94290  0.78328  1.0000
  H   H397      1.0  0.49323  0.90865  0.77744  1.0000
  H   H398      1.0  0.49377  0.95531  0.86934  1.0000
  C   C237      1.0  0.50236  0.94676  0.85650  1.0000
  N   N26       1.0  0.49005  0.93145  0.82034  1.0000
  H   H399      1.0  0.45942  0.90416  0.81037  1.0000
  C   C238      1.0  0.50194  0.92032  0.80481  1.0000
  H   H400      1.0  0.50493  0.91162  0.83204  1.0000
  S   S101      1.0  0.52910  0.10643  0.02411  1.0000
  N   N27       1.0  0.53178  0.09061  0.18653  1.0000
  C   C239      1.0  0.51843  0.08982  0.14776  1.0000
  H   H401      1.0  0.52333  0.08468  0.11693  1.0000
  C   C240      1.0  0.52433  0.09718  0.22644  1.0000
  C   C241      1.0  0.55419  0.10607  0.17910  1.0000
  H   H402      1.0  0.51963  0.10568  0.14171  1.0000
  C   C242      1.0  0.55400  0.11733  0.05230  1.0000
  H   H403      1.0  0.55603  0.12230  0.17457  1.0000
  C   C243      1.0  0.53011  0.06937  0.19281  1.0000
  H   H404      1.0  0.52474  0.11287  0.22229  1.0000
  H   H405      1.0  0.51335  0.05734  0.19839  1.0000
  H   H406      1.0  0.53566  0.06396  0.16330  1.0000
  H   H407      1.0  0.53425  0.09838  0.25630  1.0000
  H   H408      1.0  0.62631  0.01050  0.06032  1.0000
  H   H409      1.0  0.53994  0.06937  0.22195  1.0000
  H   H410      1.0  0.56025  0.10174  0.14890  1.0000
  H   H411      1.0  0.63140  0.08871  0.20248  1.0000
  S   S102      1.0  0.63363  0.10223  0.07419  1.0000
  C   C244      1.0  0.56700  0.10754  0.04707  1.0000
  H   H412      1.0  0.59704  0.10848  0.06386  1.0000
  C   C245      1.0  0.63810  0.06234  0.19497  1.0000
  C   C246      1.0  0.62837  0.07339  0.21463  1.0000
  C   C247      1.0  0.63409  0.04249  0.21125  1.0000
  Fe  Fe49      1.0  0.66019  0.10295  0.11650  1.0000
  S   S103      1.0  0.65546  0.07279  0.15035  1.0000
  H   H413      1.0  0.56146  0.09326  0.02652  1.0000
  C   C248      1.0  0.58720  0.11617  0.06812  1.0000
  N   N28       1.0  0.63376  0.04042  0.03143  1.0000
  Fe  Fe50      1.0  0.65819  0.11816  0.02314  1.0000
  H   H414      1.0  0.64800  0.07299  0.01256  1.0000
  H   H415      1.0  0.61170  0.05317  0.03555  1.0000
  C   C249      1.0  0.61665  0.04275  0.05413  1.0000
  H   H416      1.0  0.62198  0.05005  0.08791  1.0000
  H   H417      1.0  0.64158  0.03386  0.19624  1.0000
  H   H418      1.0  0.60234  0.02716  0.05771  1.0000
  C   C250      1.0  0.65244  0.06150  0.02790  1.0000
  H   H419      1.0  0.65981  0.06833  0.06089  1.0000
  S   S104      1.0  0.68432  0.11634  0.06283  1.0000
  C   C251      1.0  0.63994  0.02661  0.05716  1.0000
  H   H420      1.0  0.64567  0.03337  0.09130  1.0000
  H   H421      1.0  0.56484  0.10700  0.20744  1.0000
  C   C252      1.0  0.62051  0.03378  0.24700  1.0000
  C   C253      1.0  0.61499  0.06478  0.25068  1.0000
  H   H422      1.0  0.61753  0.01849  0.25921  1.0000
  H   H423      1.0  0.65306  0.02485  0.04117  1.0000
  H   H424      1.0  0.51670  0.22782  0.08934  1.0000
  C   C254      1.0  0.56119  0.13568  0.07917  1.0000
  H   H425      1.0  0.55141  0.14351  0.08301  1.0000
  H   H426      1.0  0.58708  0.15873  0.12037  1.0000
  Fe  Fe51      1.0  0.64400  0.13510  0.10129  1.0000
  S   S105      1.0  0.62006  0.14631  0.12032  1.0000
  S   S106      1.0  0.66716  0.15138  0.04781  1.0000
  C   C255      1.0  0.59456  0.13468  0.09451  1.0000
  C   C256      1.0  0.58144  0.14434  0.10014  1.0000
  S   S107      1.0  0.66899  0.13488  0.14800  1.0000
  Fe  Fe52      1.0  0.69163  0.14867  0.09169  1.0000
  H   H427      1.0  0.62903  0.15720  0.02424  1.0000
  H   H428      1.0  0.60408  0.15664  0.01145  1.0000
  H   H429      1.0  0.72087  0.20203  0.04545  1.0000
  H   H430      1.0  0.74510  0.23935  0.02624  1.0000
  C   C257      1.0  0.73637  0.21050  0.06168  1.0000
  C   C258      1.0  0.75019  0.23170  0.05085  1.0000
  S   S108      1.0  0.72642  0.17328  0.10727  1.0000
  C   C259      1.0  0.74272  0.20029  0.09327  1.0000
  H   H431      1.0  0.52208  0.02002  0.37431  1.0000
  H   H432      1.0  0.60777  0.07359  0.26611  1.0000
  C   C260      1.0  0.61103  0.04499  0.26708  1.0000
  S   S109      1.0  0.59488  0.03534  0.31373  1.0000
  H   H433      1.0  0.64288  0.03537  0.33049  1.0000
  H   H434      1.0  0.64917  0.06266  0.32652  1.0000
  H   H435      1.0  0.62105  0.03259  0.39432  1.0000
  C   C261      1.0  0.63289  0.04877  0.40580  1.0000
  H   H436      1.0  0.62750  0.05989  0.39181  1.0000
  H   H437      1.0  0.63212  0.04936  0.44255  1.0000
  C   C262      1.0  0.65423  0.05170  0.34255  1.0000
  N   N29       1.0  0.65441  0.05364  0.39138  1.0000
  H   H438      1.0  0.66526  0.08727  0.39150  1.0000
  H   H439      1.0  0.67021  0.05536  0.33019  1.0000
  H   H440      1.0  0.64950  0.02184  0.40129  1.0000
  H   H441      1.0  0.67692  0.04162  0.40105  1.0000
  H   H442      1.0  0.68608  0.07972  0.39568  1.0000
  C   C263      1.0  0.66079  0.03855  0.41123  1.0000
  H   H443      1.0  0.66088  0.03943  0.44811  1.0000
  C   C264      1.0  0.66965  0.07552  0.40598  1.0000
  H   H444      1.0  0.67006  0.07750  0.44268  1.0000
  H   H445      1.0  0.54494  0.01044  0.59375  1.0000
  H   H446      1.0  0.56237  0.01052  0.63774  1.0000
  H   H447      1.0  0.63344  0.01780  0.57331  1.0000
  S   S110      1.0  0.60528  0.00880  0.74357  1.0000
  S   S111      1.0  0.55153  0.01154  0.73607  1.0000
  H   H448      1.0  0.51556  0.07192  0.93763  1.0000
  H   H449      1.0  0.50911  0.04776  0.87113  1.0000
  H   H450      1.0  0.66503  0.06068  0.00776  1.0000
  H   H451      1.0  0.54819  0.01017  0.83088  1.0000
  C   C265      1.0  0.62608  0.03095  0.98659  1.0000
  H   H452      1.0  0.62145  0.04113  0.96635  1.0000
  H   H453      1.0  0.61616  0.12239  0.98888  1.0000
  H   H454      1.0  0.61197  0.01503  0.98771  1.0000
  H   H455      1.0  0.63858  0.02902  0.96822  1.0000
  H   H456      1.0  0.60791  0.11777  0.93172  1.0000
  C   C266      1.0  0.64283  0.05015  0.88023  1.0000
  C   C267      1.0  0.62610  0.05522  0.87538  1.0000
  C   C268      1.0  0.62722  0.07333  0.89730  1.0000
  C   C269      1.0  0.64490  0.08633  0.92465  1.0000
  H   H457      1.0  0.61423  0.07713  0.89331  1.0000
  H   H458      1.0  0.61232  0.04518  0.85474  1.0000
  S   S112      1.0  0.64557  0.10872  0.95228  1.0000
  C   C270      1.0  0.66182  0.08154  0.92871  1.0000
  S   S113      1.0  0.64147  0.02683  0.85581  1.0000
  C   C271      1.0  0.66076  0.06349  0.90665  1.0000
  H   H459      1.0  0.67580  0.09182  0.94864  1.0000
  C   C272      1.0  0.60795  0.12674  0.96232  1.0000
  H   H460      1.0  0.59117  0.12099  0.97190  1.0000
  H   H461      1.0  0.67387  0.05981  0.91007  1.0000
  H   H462      1.0  0.60479  0.14678  0.89066  1.0000
  H   H463      1.0  0.64990  0.15228  0.96289  1.0000
  H   H464      1.0  0.64913  0.17386  0.93475  1.0000
  C   C273      1.0  0.60634  0.15516  0.92304  1.0000
  H   H465      1.0  0.63982  0.14825  0.90734  1.0000
  C   C274      1.0  0.62014  0.16110  0.99839  1.0000
  H   H466      1.0  0.62848  0.17862  0.99511  1.0000
  H   H467      1.0  0.58997  0.15052  0.93457  1.0000
  H   H468      1.0  0.61409  0.17251  0.91715  1.0000
  N   N30       1.0  0.61870  0.14988  0.95581  1.0000
  C   C275      1.0  0.64032  0.15645  0.93942  1.0000
  H   H469      1.0  0.53538  0.36819  0.10574  1.0000
  S   S114      1.0  0.53091  0.35391  0.01354  1.0000
  C   C276      1.0  0.54985  0.37700  0.04234  1.0000
  C   C277      1.0  0.54829  0.38014  0.08766  1.0000
  H   H470      1.0  0.58328  0.50048  0.18900  1.0000
  H   H471      1.0  0.56259  0.40075  0.14502  1.0000
  C   C278      1.0  0.56372  0.39859  0.10984  1.0000
  H   H472      1.0  0.51522  0.40898  0.21114  1.0000
  C   C279      1.0  0.51048  0.40098  0.24335  1.0000
  H   H473      1.0  0.52453  0.40825  0.26659  1.0000
  H   H474      1.0  0.58645  0.44716  0.20700  1.0000
  H   H475      1.0  0.59088  0.47311  0.22511  1.0000
  C   C280      1.0  0.56670  0.39260  0.01924  1.0000
  H   H476      1.0  0.60426  0.46996  0.17784  1.0000
  C   C281      1.0  0.58071  0.41409  0.08685  1.0000
  C   C282      1.0  0.59875  0.46403  0.21151  1.0000
  H   H477      1.0  0.61341  0.50732  0.14055  1.0000
  C   C283      1.0  0.58207  0.41113  0.04138  1.0000
  H   H478      1.0  0.59510  0.42297  0.02339  1.0000
  S   S115      1.0  0.59995  0.43678  0.11637  1.0000
  S   S116      1.0  0.62365  0.49195  0.06033  1.0000
  Fe  Fe53      1.0  0.62698  0.46360  0.08168  1.0000
  S   S117      1.0  0.65674  0.48245  0.12319  1.0000
  C   C284      1.0  0.72918  0.48645  0.05059  1.0000
  S   S118      1.0  0.70148  0.47431  0.06156  1.0000
  Fe  Fe54      1.0  0.67532  0.48468  0.06217  1.0000
  H   H479      1.0  0.61243  0.43505  0.22302  1.0000
  N   N31       1.0  0.61665  0.46623  0.24063  1.0000
  C   C285      1.0  0.62494  0.45193  0.22406  1.0000
  H   H480      1.0  0.63049  0.45564  0.18963  1.0000
  H   H481      1.0  0.63966  0.49338  0.20689  1.0000
  H   H482      1.0  0.63860  0.45325  0.24484  1.0000
  C   C286      1.0  0.63374  0.48843  0.24082  1.0000
  S   S119      1.0  0.64547  0.46337  0.02270  1.0000
  H   H483      1.0  0.62803  0.49962  0.25336  1.0000
  C   C287      1.0  0.74036  0.50725  0.03604  1.0000
  H   H484      1.0  0.73166  0.45829  0.06650  1.0000
  C   C288      1.0  0.74012  0.47440  0.05532  1.0000
  C   C289      1.0  0.51302  0.47127  0.36902  1.0000
  H   H485      1.0  0.52059  0.46650  0.34360  1.0000
  C   C290      1.0  0.51943  0.49283  0.37710  1.0000
  H   H486      1.0  0.53159  0.50448  0.35719  1.0000
  H   H487      1.0  0.60288  0.47118  0.29966  1.0000
  H   H488      1.0  0.59608  0.44395  0.28704  1.0000
  C   C291      1.0  0.50962  0.49915  0.40968  1.0000
  H   H489      1.0  0.51116  0.43332  0.29307  1.0000
  H   H490      1.0  0.64765  0.49073  0.26202  1.0000
  C   C292      1.0  0.60912  0.46055  0.28612  1.0000
  H   H491      1.0  0.62221  0.46196  0.30895  1.0000
  H   H492      1.0  0.55223  0.50662  0.59615  1.0000
  H   H493      1.0  0.55589  0.50659  0.51397  1.0000
  S   S120      1.0  0.54361  0.50042  0.71091  1.0000
  C   C293      1.0  0.52847  0.48198  0.74996  1.0000
  H   H494      1.0  0.52010  0.49230  0.54572  1.0000
  H   H495      1.0  0.51435  0.36767  0.92551  1.0000
  H   H496      1.0  0.51856  0.40355  0.90620  1.0000
  C   C294      1.0  0.52285  0.47136  0.82644  1.0000
  H   H497      1.0  0.52701  0.39605  0.98219  1.0000
  H   H498      1.0  0.56801  0.39025  0.98418  1.0000
  C   C295      1.0  0.53630  0.48379  0.79348  1.0000
  H   H499      1.0  0.55263  0.49504  0.80192  1.0000
  H   H500      1.0  0.52880  0.47318  0.86030  1.0000
  H   H501      1.0  0.61362  0.49653  0.85601  1.0000
  C   C296      1.0  0.51013  0.39113  0.99030  1.0000
  H   H502      1.0  0.50992  0.50196  0.82248  1.0000
  H   H503      1.0  0.50934  0.40529  0.00427  1.0000
  H   H504      1.0  0.68116  0.50225  0.94961  1.0000
  H   H505      1.0  0.67566  0.48956  0.87240  1.0000
  C   C297      1.0  0.69564  0.49997  0.95166  1.0000
  H   H506      1.0  0.67325  0.44910  0.91146  1.0000
  H   H507      1.0  0.71589  0.47623  0.95896  1.0000
  H   H508      1.0  0.68860  0.47484  0.85158  1.0000
  C   C298      1.0  0.67528  0.46259  0.93361  1.0000
  C   C299      1.0  0.69037  0.48765  0.87550  1.0000
  H   H509      1.0  0.71255  0.46759  0.90191  1.0000
  C   C300      1.0  0.71331  0.48036  0.92475  1.0000
  Fe  Fe55      1.0  0.64482  0.49358  0.00446  1.0000
  H   H510      1.0  0.67725  0.45838  0.96817  1.0000
  N   N32       1.0  0.69368  0.48264  0.92131  1.0000
  H   H511      1.0  0.72764  0.49536  0.91688  1.0000
  H   H512      1.0  0.66019  0.46381  0.93156  1.0000
  H   H513      1.0  0.69775  0.49652  0.98660  1.0000
  S   S121      1.0  0.63803  0.49508  0.93133  1.0000
  H   H514      1.0  0.70393  0.50272  0.86515  1.0000
  C   C301      1.0  0.53054  0.62084  0.22421  1.0000
  S   S122      1.0  0.51062  0.62696  0.20358  1.0000
  H   H515      1.0  0.63625  0.60445  0.21053  1.0000
  C   C302      1.0  0.60244  0.52412  0.23861  1.0000
  C   C303      1.0  0.63997  0.54412  0.22238  1.0000
  C   C304      1.0  0.63673  0.53209  0.18299  1.0000
  H   H516      1.0  0.57186  0.55811  0.18132  1.0000
  H   H517      1.0  0.61597  0.60036  0.24939  1.0000
  H   H518      1.0  0.62422  0.58037  0.24074  1.0000
  H   H519      1.0  0.61464  0.55923  0.16977  1.0000
  H   H520      1.0  0.59982  0.56432  0.12729  1.0000
  N   N33       1.0  0.60447  0.58233  0.18815  1.0000
  C   C305      1.0  0.60055  0.59876  0.16692  1.0000
  C   C306      1.0  0.58454  0.56635  0.20725  1.0000
  C   C307      1.0  0.62097  0.59231  0.22370  1.0000
  C   C308      1.0  0.61179  0.57189  0.15484  1.0000
  H   H521      1.0  0.61520  0.61108  0.15197  1.0000
  H   H522      1.0  0.58702  0.55407  0.22480  1.0000
  H   H523      1.0  0.57831  0.57378  0.23172  1.0000
  H   H524      1.0  0.58796  0.59180  0.14031  1.0000
  H   H525      1.0  0.62698  0.58339  0.14014  1.0000
  C   C309      1.0  0.62288  0.54009  0.25028  1.0000
  C   C310      1.0  0.61618  0.51649  0.17101  1.0000
  C   C311      1.0  0.59912  0.51263  0.19857  1.0000
  H   H526      1.0  0.65585  0.55622  0.23189  1.0000
  C   C312      1.0  0.56669  0.62550  0.22464  1.0000
  H   H527      1.0  0.59516  0.60698  0.19145  1.0000
  S   S123      1.0  0.65860  0.53638  0.15009  1.0000
  S   S124      1.0  0.67556  0.51499  0.04121  1.0000
  H   H528      1.0  0.73229  0.51681  0.03251  1.0000
  Fe  Fe56      1.0  0.65426  0.51080  0.09908  1.0000
  H   H529      1.0  0.50968  0.71089  0.12749  1.0000
  C   C313      1.0  0.55062  0.62931  0.20555  1.0000
  H   H530      1.0  0.55400  0.63943  0.17737  1.0000
  S   S125      1.0  0.53786  0.66187  0.09368  1.0000
  Fe  Fe57      1.0  0.52768  0.63653  0.03968  1.0000
  S   S126      1.0  0.51901  0.70144  0.03763  1.0000
  C   C314      1.0  0.51992  0.74050  0.03557  1.0000
  C   C315      1.0  0.51670  0.72323  0.06201  1.0000
  Fe  Fe58      1.0  0.51255  0.66915  0.06459  1.0000
  Fe  Fe59      1.0  0.51169  0.63673  0.13220  1.0000
  C   C316      1.0  0.51092  0.74183  0.12455  1.0000
  C   C317      1.0  0.51206  0.72395  0.10662  1.0000
  H   H531      1.0  0.58241  0.63287  0.21105  1.0000
  C   C318      1.0  0.52646  0.60796  0.26120  1.0000
  C   C319      1.0  0.54236  0.60360  0.27947  1.0000
  H   H532      1.0  0.53915  0.59386  0.30822  1.0000
  S   S127      1.0  0.51681  0.52608  0.41781  1.0000
  H   H533      1.0  0.51103  0.60150  0.27605  1.0000
  C   C320      1.0  0.56265  0.61265  0.26163  1.0000
  H   H534      1.0  0.54952  0.52375  0.48126  1.0000
  S   S128      1.0  0.58361  0.60896  0.28539  1.0000
  S   S129      1.0  0.58082  0.51721  0.27387  1.0000
  H   H535      1.0  0.62563  0.54893  0.28131  1.0000
  Fe  Fe60      1.0  0.59457  0.56758  0.41117  1.0000
  S   S130      1.0  0.56994  0.57885  0.40477  1.0000
  S   S131      1.0  0.61454  0.57092  0.47310  1.0000
  Fe  Fe61      1.0  0.57982  0.54085  0.32388  1.0000
  S   S132      1.0  0.55334  0.54924  0.31247  1.0000
  Fe  Fe62      1.0  0.57771  0.58233  0.33218  1.0000
  Fe  Fe63      1.0  0.54807  0.54489  0.38528  1.0000
  S   S133      1.0  0.60472  0.57414  0.34013  1.0000
  S   S134      1.0  0.57220  0.53344  0.39509  1.0000
  H   H536      1.0  0.59816  0.60021  0.49787  1.0000
  H   H537      1.0  0.51211  0.50977  0.57384  1.0000
  H   H538      1.0  0.57323  0.53471  0.51566  1.0000
  C   C321      1.0  0.54539  0.54620  0.54936  1.0000
  H   H539      1.0  0.53893  0.54858  0.51724  1.0000
  H   H540      1.0  0.56212  0.55887  0.55306  1.0000
  C   C322      1.0  0.55623  0.52235  0.51389  1.0000
  H   H541      1.0  0.53638  0.54878  0.57651  1.0000
  C   C323      1.0  0.52164  0.50859  0.54609  1.0000
  H   H542      1.0  0.62846  0.60070  0.71715  1.0000
  C   C324      1.0  0.55324  0.52263  0.59350  1.0000
  H   H543      1.0  0.54473  0.52485  0.62215  1.0000
  C   C325      1.0  0.60793  0.57820  0.52454  1.0000
  C   C326      1.0  0.60036  0.59310  0.52756  1.0000
  Fe  Fe64      1.0  0.58498  0.57791  0.71868  1.0000
  S   S135      1.0  0.55044  0.55599  0.72777  1.0000
  S   S136      1.0  0.59486  0.59941  0.66000  1.0000
  C   C327      1.0  0.59932  0.59050  0.60815  1.0000
  C   C328      1.0  0.59643  0.59949  0.56929  1.0000
  C   C329      1.0  0.60645  0.57525  0.60507  1.0000
  H   H544      1.0  0.59112  0.61146  0.57143  1.0000
  H   H545      1.0  0.60891  0.56835  0.63475  1.0000
  C   C330      1.0  0.61106  0.56939  0.56348  1.0000
  H   H546      1.0  0.61709  0.55798  0.56138  1.0000
  S   S137      1.0  0.59571  0.55345  0.73109  1.0000
  Fe  Fe65      1.0  0.56151  0.53230  0.74504  1.0000
  N   N34       1.0  0.54414  0.52493  0.55078  1.0000
  H   H547      1.0  0.65728  0.60857  0.66452  1.0000
  C   C331      1.0  0.66897  0.61414  0.69305  1.0000
  H   H548      1.0  0.68261  0.61139  0.68381  1.0000
  N   N35       1.0  0.65905  0.60305  0.73382  1.0000
  H   H549      1.0  0.57029  0.53453  0.59780  1.0000
  H   H550      1.0  0.66481  0.57644  0.72004  1.0000
  C   C332      1.0  0.65147  0.58002  0.72700  1.0000
  H   H551      1.0  0.63981  0.57348  0.69863  1.0000
  H   H552      1.0  0.67496  0.63158  0.69713  1.0000
  C   C333      1.0  0.64089  0.60693  0.74413  1.0000
  H   H553      1.0  0.64587  0.62416  0.74871  1.0000
  H   H554      1.0  0.64348  0.57112  0.75693  1.0000
  H   H555      1.0  0.51425  0.51030  0.51463  1.0000
  H   H556      1.0  0.51306  0.60576  0.95619  1.0000
  H   H557      1.0  0.51895  0.52884  0.80751  1.0000
  S   S138      1.0  0.53061  0.57053  0.83451  1.0000
  C   C334      1.0  0.53723  0.58825  0.88077  1.0000
  C   C335      1.0  0.54679  0.61629  0.95484  1.0000
  C   C336      1.0  0.52570  0.60429  0.93958  1.0000
  C   C337      1.0  0.52096  0.59035  0.90260  1.0000
  C   C338      1.0  0.56305  0.61428  0.93286  1.0000
  C   C339      1.0  0.55830  0.60026  0.89607  1.0000
  S   S139      1.0  0.55352  0.63440  0.00039  1.0000
  H   H558      1.0  0.51061  0.50854  0.76508  1.0000
  H   H559      1.0  0.68060  0.62830  0.77781  1.0000
  C   C340      1.0  0.67473  0.61103  0.77124  1.0000
  H   H560      1.0  0.66753  0.60276  0.80234  1.0000
  H   H561      1.0  0.63336  0.59916  0.77522  1.0000
  H   H562      1.0  0.57940  0.62351  0.94450  1.0000
  S   S140      1.0  0.59021  0.59022  0.78944  1.0000
  Fe  Fe66      1.0  0.59814  0.56357  0.80280  1.0000
  S   S141      1.0  0.56460  0.54011  0.81810  1.0000
  S   S142      1.0  0.62697  0.57059  0.84672  1.0000
  H   H563      1.0  0.64884  0.56852  0.92611  1.0000
  Fe  Fe67      1.0  0.55642  0.56598  0.79980  1.0000
  C   C341      1.0  0.64321  0.53611  0.93067  1.0000
  H   H564      1.0  0.57095  0.59874  0.87959  1.0000
  C   C342      1.0  0.62842  0.54909  0.87214  1.0000
  C   C343      1.0  0.61827  0.52865  0.85288  1.0000
  C   C344      1.0  0.64091  0.55275  0.91104  1.0000
  H   H565      1.0  0.60865  0.52562  0.82287  1.0000
  C   C345      1.0  0.63354  0.51580  0.91070  1.0000
  C   C346      1.0  0.62111  0.51217  0.87171  1.0000
  H   H566      1.0  0.65292  0.53914  0.96054  1.0000
  H   H567      1.0  0.68872  0.60842  0.76476  1.0000
  H   H568      1.0  0.70952  0.51533  0.94395  1.0000
  H   H569      1.0  0.52362  0.74019  0.00108  1.0000
  H   H570      1.0  0.54530  0.71057  0.95449  1.0000
  C   C347      1.0  0.54091  0.69504  0.93737  1.0000
  C   C348      1.0  0.55134  0.66801  0.91984  1.0000
  H   H571      1.0  0.58300  0.72102  0.93663  1.0000
  H   H572      1.0  0.57447  0.70622  0.88489  1.0000
  H   H573      1.0  0.54754  0.66808  0.88401  1.0000
  H   H574      1.0  0.59075  0.70090  0.92366  1.0000
  C   C349      1.0  0.57746  0.70502  0.92074  1.0000
  H   H575      1.0  0.56391  0.66287  0.92287  1.0000
  H   H576      1.0  0.57571  0.68327  0.99395  1.0000
  C   C350      1.0  0.56291  0.68799  0.98913  1.0000
  N   N36       1.0  0.55815  0.68901  0.94172  1.0000
  H   H577      1.0  0.56780  0.70342  0.00707  1.0000
  H   H578      1.0  0.54871  0.67601  0.00569  1.0000
  H   H579      1.0  0.53691  0.65550  0.93520  1.0000
  H   H580      1.0  0.52608  0.68321  0.95273  1.0000
  H   H581      1.0  0.53697  0.69621  0.90210  1.0000
  S   S143      1.0  0.53472  0.84472  0.10270  1.0000
  Fe  Fe68      1.0  0.52641  0.84821  0.03191  1.0000
  H   H582      1.0  0.54400  0.87316  0.19105  1.0000
  Fe  Fe69      1.0  0.51123  0.80988  0.09229  1.0000
  S   S144      1.0  0.51187  0.78090  0.12249  1.0000
  H   H583      1.0  0.52145  0.77154  0.03273  1.0000
  C   C351      1.0  0.51421  0.75913  0.09815  1.0000
  C   C352      1.0  0.51865  0.75832  0.05343  1.0000
  C   C353      1.0  0.54342  0.88623  0.20860  1.0000
  C   C354      1.0  0.52548  0.88938  0.20378  1.0000
  C   C355      1.0  0.52467  0.90605  0.22776  1.0000
  H   H584      1.0  0.54591  0.89189  0.05702  1.0000
  H   H585      1.0  0.54270  0.89582  0.11448  1.0000
  C   C356      1.0  0.55139  0.90394  0.08459  1.0000
  H   H586      1.0  0.54629  0.91602  0.07593  1.0000
  H   H587      1.0  0.57739  0.94269  0.12034  1.0000
  H   H588      1.0  0.58075  0.93566  0.03986  1.0000
  H   H589      1.0  0.57303  0.92267  0.15961  1.0000
  N   N37       1.0  0.57469  0.91357  0.09210  1.0000
  C   C357      1.0  0.58127  0.92970  0.12852  1.0000
  C   C358      1.0  0.58550  0.92366  0.05118  1.0000
  C   C359      1.0  0.56056  0.89989  0.23672  1.0000
  H   H590      1.0  0.57441  0.89738  0.24035  1.0000
  C   C360      1.0  0.54178  0.91966  0.25597  1.0000
  C   C361      1.0  0.55988  0.91673  0.26035  1.0000
  H   H591      1.0  0.51082  0.90852  0.22429  1.0000
  H   H592      1.0  0.57272  0.88893  0.13483  1.0000
  H   H593      1.0  0.58144  0.91172  0.02358  1.0000
  H   H594      1.0  0.59868  0.93692  0.13603  1.0000
  C   C362      1.0  0.58056  0.89690  0.10406  1.0000
  H   H595      1.0  0.57571  0.88442  0.07725  1.0000
  H   H596      1.0  0.59804  0.90354  0.10979  1.0000
  H   H597      1.0  0.60312  0.93160  0.05596  1.0000
  C   C363      1.0  0.51427  0.00666  0.39563  1.0000
  H   H598      1.0  0.54108  0.93252  0.27400  1.0000
  Fe  Fe70      1.0  0.58073  0.95878  0.34010  1.0000
  S   S145      1.0  0.55841  0.97255  0.32782  1.0000
  S   S146      1.0  0.58224  0.93421  0.29339  1.0000
  Fe  Fe71      1.0  0.60059  0.98632  0.42462  1.0000
  Fe  Fe72      1.0  0.55385  0.96930  0.40125  1.0000
  S   S147      1.0  0.57404  0.95328  0.41278  1.0000
  S   S148      1.0  0.60977  0.99049  0.35292  1.0000
  S   S149      1.0  0.52315  0.95780  0.43681  1.0000
  C   C364      1.0  0.52326  0.99317  0.40329  1.0000
  S   S150      1.0  0.57975  0.00186  0.41738  1.0000
  C   C365      1.0  0.51303  0.97571  0.43024  1.0000
  Fe  Fe73      1.0  0.58697  0.00386  0.34501  1.0000
  S   S151      1.0  0.62339  0.00063  0.48373  1.0000
  H   H599      1.0  0.53788  0.99611  0.38755  1.0000
  H   H600      1.0  0.59658  0.95695  0.50842  1.0000
  H   H601      1.0  0.57015  0.98034  0.64494  1.0000
  H   H602      1.0  0.53452  0.99278  0.63915  1.0000
  H   H603      1.0  0.51807  0.96209  0.58475  1.0000
  H   H604      1.0  0.53449  0.95791  0.54519  1.0000
  H   H605      1.0  0.55828  0.95810  0.60670  1.0000
  C   C366      1.0  0.60217  0.96674  0.53837  1.0000
  C   C367      1.0  0.61559  0.98854  0.53566  1.0000
  C   C368      1.0  0.53235  0.97031  0.56426  1.0000
  C   C369      1.0  0.59646  0.95742  0.57997  1.0000
  N   N38       1.0  0.55150  0.98384  0.59191  1.0000
  C   C370      1.0  0.60351  0.96983  0.61931  1.0000
  S   S152      1.0  0.59534  0.95726  0.67071  1.0000
  H   H606      1.0  0.58645  0.94047  0.58168  1.0000
  H   H607      1.0  0.52886  0.97974  0.53945  1.0000
  H   H608      1.0  0.54224  0.96263  0.64654  1.0000
  C   C371      1.0  0.55567  0.97063  0.62382  1.0000
  H   H609      1.0  0.57275  0.98247  0.54374  1.0000
  C   C372      1.0  0.62294  0.00095  0.57500  1.0000
  C   C373      1.0  0.61662  0.99172  0.61665  1.0000
  H   H610      1.0  0.62232  0.00143  0.64669  1.0000
  C   C374      1.0  0.56992  0.99433  0.56305  1.0000
  C   C375      1.0  0.54814  0.00011  0.61653  1.0000
  Fe  Fe74      1.0  0.59409  0.97384  0.73489  1.0000
  H   H611      1.0  0.56743  0.00454  0.53869  1.0000
  C   C376      1.0  0.51003  0.00062  0.75170  1.0000
  S   S153      1.0  0.56057  0.96436  0.75430  1.0000
  H   H612      1.0  0.58476  0.00444  0.58271  1.0000
  S   S154      1.0  0.55304  0.86930  0.98730  1.0000
  H   H613      1.0  0.51978  0.88203  0.97478  1.0000
  C   C377      1.0  0.55105  0.88864  0.95420  1.0000
  C   C378      1.0  0.53010  0.00596  0.77038  1.0000
  C   C379      1.0  0.56815  0.90153  0.92778  1.0000
  H   H614      1.0  0.51816  0.90998  0.92976  1.0000
  C   C380      1.0  0.53264  0.00552  0.81625  1.0000
  C   C381      1.0  0.53218  0.90770  0.92915  1.0000
  Fe  Fe75      1.0  0.61220  0.00447  0.81481  1.0000
  S   S155      1.0  0.58000  0.99764  0.83848  1.0000
  C   C382      1.0  0.54921  0.92052  0.90254  1.0000
  C   C383      1.0  0.56726  0.91742  0.90199  1.0000
  H   H615      1.0  0.51708  0.99860  0.87881  1.0000
  C   C384      1.0  0.51506  0.99920  0.84338  1.0000
  Fe  Fe76      1.0  0.57230  0.99900  0.76668  1.0000
  Fe  Fe77      1.0  0.57109  0.96341  0.82435  1.0000
  H   H616      1.0  0.58045  0.92715  0.88152  1.0000
  H   H617      1.0  0.51815  0.95888  0.84515  1.0000
  H   H618      1.0  0.51783  0.93171  0.79256  1.0000
  S   S156      1.0  0.54693  0.94008  0.87091  1.0000
  S   S157      1.0  0.60390  0.96990  0.80452  1.0000
  C   C385      1.0  0.53308  0.89185  0.95484  1.0000
  H   H619      1.0  0.58212  0.89916  0.92700  1.0000
  C   C386      1.0  0.77672  0.23295  0.10353  1.0000
  H   H620      1.0  0.79211  0.24145  0.12022  1.0000
  H   H621      1.0  0.76808  0.20401  0.13858  1.0000
  C   C387      1.0  0.77046  0.24307  0.07158  1.0000
  C   C388      1.0  0.81329  0.23580  0.02865  1.0000
  H   H622      1.0  0.79638  0.22364  0.03192  1.0000
  C   C389      1.0  0.76300  0.21168  0.11396  1.0000
  H   H623      1.0  0.82350  0.22951  0.04392  1.0000
  H   H624      1.0  0.81562  0.24998  0.04882  1.0000
  H   H625      1.0  0.85189  0.25096  0.99263  1.0000
  H   H626      1.0  0.78774  0.23935  0.96843  1.0000
  C   C390      1.0  0.80497  0.25013  0.96377  1.0000
  C   C391      1.0  0.81443  0.22179  0.95609  1.0000
  H   H627      1.0  0.80750  0.25323  0.92787  1.0000
  H   H628      1.0  0.81836  0.22528  0.92070  1.0000
  N   N39       1.0  0.81845  0.24117  0.98190  1.0000
  H   H629      1.0  0.79739  0.20962  0.95726  1.0000
  H   H630      1.0  0.82421  0.21454  0.96928  1.0000
  C   C392      1.0  0.84109  0.25700  0.97923  1.0000
  Fe  Fe78      1.0  0.85891  0.31857  0.13997  1.0000
  S   S158      1.0  0.88104  0.33797  0.08804  1.0000
  S   S159      1.0  0.86900  0.32803  0.21196  1.0000
  Fe  Fe79      1.0  0.82211  0.29378  0.07314  1.0000
  Fe  Fe80      1.0  0.85325  0.34133  0.06075  1.0000
  S   S160      1.0  0.84804  0.28746  0.10208  1.0000
  S   S161      1.0  0.83149  0.32357  0.11511  1.0000
  H   H631      1.0  0.90205  0.31878  0.17751  1.0000
  S   S162      1.0  0.78748  0.26953  0.05506  1.0000
  Fe  Fe81      1.0  0.86812  0.30786  0.04751  1.0000
  C   C393      1.0  0.90810  0.32840  0.20761  1.0000
  C   C394      1.0  0.89530  0.33521  0.23039  1.0000
  S   S163      1.0  0.84179  0.31234  0.01599  1.0000
  H   H632      1.0  0.82307  0.36547  0.07553  1.0000
  S   S164      1.0  0.86427  0.37500  0.03866  1.0000
  H   H633      1.0  0.88254  0.37462  0.24238  1.0000
  H   H634      1.0  0.85531  0.35794  0.18421  1.0000
  H   H635      1.0  0.89329  0.36797  0.16881  1.0000
  C   C395      1.0  0.85865  0.37387  0.17242  1.0000
  H   H636      1.0  0.84716  0.37823  0.18832  1.0000
  H   H637      1.0  0.85513  0.37219  0.13615  1.0000
  C   C396      1.0  0.92848  0.33328  0.22485  1.0000
  H   H638      1.0  0.93803  0.32738  0.20785  1.0000
  C   C397      1.0  0.95576  0.34295  0.01010  1.0000
  H   H639      1.0  0.95746  0.34653  0.04638  1.0000
  H   H640      1.0  0.99354  0.34873  0.04373  1.0000
  Fe  Fe82      1.0  0.83551  0.46679  0.05269  1.0000
  S   S165      1.0  0.83080  0.49151  0.09113  1.0000
  S   S166      1.0  0.81983  0.43266  0.07382  1.0000
  H   H641      1.0  0.80623  0.38870  0.08987  1.0000
  H   H642      1.0  0.77002  0.47340  0.04961  1.0000
  C   C398      1.0  0.77302  0.50362  0.03076  1.0000
  C   C399      1.0  0.76190  0.48292  0.04573  1.0000
  C   C400      1.0  0.82233  0.39550  0.07815  1.0000
  C   C401      1.0  0.83328  0.41726  0.06962  1.0000
  Fe  Fe83      1.0  0.82392  0.50157  0.02550  1.0000
  C   C402      1.0  0.88523  0.39044  0.23090  1.0000
  H   H643      1.0  0.87463  0.39497  0.24997  1.0000
  H   H644      1.0  0.91242  0.39538  0.16595  1.0000
  H   H645      1.0  0.90201  0.40201  0.23996  1.0000
  C   C403      1.0  0.89545  0.38381  0.15889  1.0000
  H   H646      1.0  0.92615  0.50136  0.17518  1.0000
  C   C404      1.0  0.83181  0.38232  0.06997  1.0000
  S   S167      1.0  0.87060  0.48725  0.04534  1.0000
  H   H647      1.0  0.87341  0.41573  0.18541  1.0000
  C   C405      1.0  0.88431  0.41083  0.16853  1.0000
  H   H648      1.0  0.86282  0.44271  0.04876  1.0000
  C   C406      1.0  0.85224  0.39089  0.05296  1.0000
  C   C407      1.0  0.85408  0.42593  0.05461  1.0000
  N   N40       1.0  0.88092  0.38976  0.18271  1.0000
  C   C408      1.0  0.86340  0.41274  0.04575  1.0000
  H   H649      1.0  0.87929  0.41946  0.03295  1.0000
  H   H650      1.0  0.88126  0.41073  0.13221  1.0000
  H   H651      1.0  0.90092  0.42326  0.17604  1.0000
  H   H652      1.0  0.89909  0.50551  0.12936  1.0000
  H   H653      1.0  0.89254  0.38301  0.12237  1.0000
  H   H654      1.0  0.98925  0.38083  0.03155  1.0000
  C   C409      1.0  0.90332  0.34756  0.26957  1.0000
  H   H655      1.0  0.89347  0.35273  0.28765  1.0000
  H   H656      1.0  0.91130  0.31955  0.45440  1.0000
  H   H657      1.0  0.90985  0.31313  0.37224  1.0000
  C   C410      1.0  0.92397  0.35312  0.28584  1.0000
  H   H658      1.0  0.92998  0.36278  0.31583  1.0000
  H   H659      1.0  0.93486  0.34435  0.44828  1.0000
  H   H660      1.0  0.90973  0.28626  0.42371  1.0000
  C   C411      1.0  0.92893  0.32704  0.45278  1.0000
  H   H661      1.0  0.93542  0.32550  0.48559  1.0000
  C   C412      1.0  0.93648  0.34561  0.26407  1.0000
  H   H662      1.0  0.96515  0.32159  0.38888  1.0000
  H   H663      1.0  0.96592  0.34514  0.41248  1.0000
  H   H664      1.0  0.93356  0.33783  0.36751  1.0000
  H   H665      1.0  0.93270  0.31405  0.34546  1.0000
  C   C413      1.0  0.92753  0.32068  0.37369  1.0000
  H   H666      1.0  0.93244  0.28698  0.39688  1.0000
  C   C414      1.0  0.92744  0.29456  0.42358  1.0000
  H   H667      1.0  0.96613  0.32569  0.44830  1.0000
  C   C415      1.0  0.95926  0.32780  0.41652  1.0000
  S   S168      1.0  0.96144  0.35010  0.28663  1.0000
  N   N41       1.0  0.93576  0.31750  0.41664  1.0000
  H   H668      1.0  0.93338  0.29165  0.45575  1.0000
  Fe  Fe84      1.0  0.97837  0.37651  0.33811  1.0000
  S   S169      1.0  0.97594  0.36944  0.50142  1.0000
  S   S170      1.0  0.00477  0.37779  0.38275  1.0000
  H   H669      1.0  0.96694  0.47355  0.32607  1.0000
  H   H670      1.0  0.96401  0.49066  0.47260  1.0000
  C   C416      1.0  0.98169  0.47923  0.34524  1.0000
  S   S171      1.0  0.96659  0.43852  0.37110  1.0000
  C   C417      1.0  0.99691  0.50059  0.34403  1.0000
  C   C418      1.0  0.97497  0.50638  0.45929  1.0000
  H   H671      1.0  0.98281  0.50344  0.43035  1.0000
  C   C419      1.0  0.00489  0.47250  0.39475  1.0000
  S   S172      1.0  0.96148  0.38315  0.39299  1.0000
  Fe  Fe85      1.0  0.98887  0.38686  0.43739  1.0000
  S   S173      1.0  0.99635  0.41048  0.31920  1.0000
  Fe  Fe86      1.0  0.98164  0.41722  0.37821  1.0000
  C   C420      1.0  0.98568  0.46517  0.37052  1.0000
  H   H672      1.0  0.00796  0.46171  0.41451  1.0000
  S   S174      1.0  0.00780  0.42185  0.42655  1.0000
  H   H673      1.0  0.95778  0.36030  0.58760  1.0000
  C   C421      1.0  0.97474  0.37023  0.59245  1.0000
  H   H674      1.0  0.97354  0.36932  0.66405  1.0000
  C   C422      1.0  0.98364  0.37530  0.63586  1.0000
  C   C423      1.0  0.98765  0.37769  0.55535  1.0000
  S   S175      1.0  0.96512  0.49472  0.73399  1.0000
  H   H675      1.0  0.95418  0.45149  0.75269  1.0000
  H   H676      1.0  0.99298  0.49439  0.52398  1.0000
  H   H677      1.0  0.00611  0.47166  0.65484  1.0000
  C   C424      1.0  0.00565  0.38742  0.64253  1.0000
  H   H678      1.0  0.98532  0.43217  0.65148  1.0000
  H   H679      1.0  0.98365  0.43319  0.71067  1.0000
  C   C425      1.0  0.99354  0.43237  0.68328  1.0000
  H   H680      1.0  0.99370  0.41686  0.68520  1.0000
  H   H681      1.0  0.00545  0.47212  0.71411  1.0000
  H   H682      1.0  0.81213  0.38454  0.93592  1.0000
  S   S176      1.0  0.88963  0.29946  0.00642  1.0000
  H   H683      1.0  0.80864  0.26551  0.98071  1.0000
  H   H684      1.0  0.84460  0.27169  0.99879  1.0000
  H   H685      1.0  0.89062  0.33871  0.97776  1.0000
  C   C426      1.0  0.90205  0.31624  0.96209  1.0000
  C   C427      1.0  0.90006  0.33463  0.95560  1.0000
  C   C428      1.0  0.91007  0.34771  0.91991  1.0000
  H   H686      1.0  0.90807  0.36166  0.91452  1.0000
  C   C429      1.0  0.92233  0.34264  0.89081  1.0000
  S   S177      1.0  0.93286  0.35803  0.84366  1.0000
  C   C430      1.0  0.91425  0.31111  0.93294  1.0000
  H   H687      1.0  0.84565  0.26178  0.94459  1.0000
  H   H688      1.0  0.94780  0.32537  0.00530  1.0000
  C   C431      1.0  0.99077  0.34515  0.00750  1.0000
  H   H689      1.0  0.98396  0.32768  0.00222  1.0000
  H   H690      1.0  0.94468  0.34853  0.99614  1.0000
  H   H691      1.0  0.96506  0.33041  0.93379  1.0000
  C   C432      1.0  0.97338  0.34785  0.94050  1.0000
  H   H692      1.0  0.96383  0.35469  0.92456  1.0000
  H   H693      1.0  0.98875  0.35429  0.92330  1.0000
  N   N42       1.0  0.97657  0.35306  0.98849  1.0000
  C   C433      1.0  0.92424  0.32418  0.89726  1.0000
  H   H694      1.0  0.91569  0.29681  0.93749  1.0000
  H   H695      1.0  0.93303  0.31975  0.87408  1.0000
  H   H696      1.0  0.97607  0.38281  0.98181  1.0000
  H   H697      1.0  0.00202  0.38446  0.97939  1.0000
  C   C434      1.0  0.98639  0.37631  0.99571  1.0000
  S   S178      1.0  0.99129  0.36372  0.81287  1.0000
  Fe  Fe87      1.0  0.96833  0.37594  0.83228  1.0000
  H   H698      1.0  0.00663  0.35264  0.99181  1.0000
  H   H699      1.0  0.82433  0.39995  0.98516  1.0000
  C   C435      1.0  0.82542  0.39981  0.94858  1.0000
  H   H700      1.0  0.80397  0.41963  0.98014  1.0000
  H   H701      1.0  0.79013  0.40368  0.93204  1.0000
  H   H702      1.0  0.80316  0.43220  0.92981  1.0000
  S   S179      1.0  0.82586  0.47505  0.98758  1.0000
  Fe  Fe88      1.0  0.86101  0.49708  0.98197  1.0000
  N   N43       1.0  0.82430  0.41825  0.92956  1.0000
  C   C436      1.0  0.80449  0.41842  0.94333  1.0000
  H   H703      1.0  0.82371  0.43049  0.86533  1.0000
  C   C437      1.0  0.82446  0.41675  0.88073  1.0000
  H   H704      1.0  0.81066  0.40201  0.86736  1.0000
  H   H705      1.0  0.83925  0.41662  0.86945  1.0000
  H   H706      1.0  0.84317  0.45219  0.92952  1.0000
  C   C438      1.0  0.84281  0.43810  0.94559  1.0000
  H   H707      1.0  0.84232  0.44062  0.98185  1.0000
  H   H708      1.0  0.97221  0.43621  0.79991  1.0000
  C   C439      1.0  0.97813  0.48379  0.76568  1.0000
  H   H709      1.0  0.97795  0.49392  0.92248  1.0000
  H   H710      1.0  0.84065  0.39967  0.94101  1.0000
  C   C440      1.0  0.94721  0.50549  0.91061  1.0000
  C   C441      1.0  0.96916  0.46180  0.76959  1.0000
  C   C442      1.0  0.97085  0.49148  0.88843  1.0000
  C   C443      1.0  0.97944  0.45314  0.79596  1.0000
  H   H711      1.0  0.85814  0.43809  0.93870  1.0000
  H   H712      1.0  0.93042  0.50247  0.91332  1.0000
  H   H713      1.0  0.94093  0.47116  0.82504  1.0000
  H   H714      1.0  0.94177  0.46945  0.94818  1.0000
  S   S180      1.0  0.87685  0.49463  0.91877  1.0000
  N   N44       1.0  0.94844  0.48735  0.88880  1.0000
  H   H715      1.0  0.94892  0.49891  0.82327  1.0000
  C   C444      1.0  0.93991  0.48447  0.84280  1.0000
  H   H716      1.0  0.92297  0.48104  0.84173  1.0000
  H   H717      1.0  0.90029  0.49759  0.84108  1.0000
  H   H718      1.0  0.91873  0.46430  0.91431  1.0000
  H   H719      1.0  0.93632  0.45387  0.89765  1.0000
  H   H720      1.0  0.97229  0.47798  0.87259  1.0000
  C   C445      1.0  0.99732  0.49709  0.78799  1.0000
  C   C446      1.0  0.93574  0.46787  0.91334  1.0000
  H   H721      1.0  0.98090  0.50589  0.86965  1.0000
  Fe  Fe89      1.0  0.00234  0.42190  0.83346  1.0000
  Fe  Fe90      1.0  0.00375  0.39063  0.76468  1.0000
  S   S181      1.0  0.97921  0.40102  0.78053  1.0000
  S   S182      1.0  0.98962  0.39799  0.88606  1.0000
  C   C447      1.0  0.99875  0.46648  0.81788  1.0000
  C   C448      1.0  0.00763  0.48844  0.81403  1.0000
  C   C449      1.0  0.76211  0.51572  0.02605  1.0000
  H   H722      1.0  0.81831  0.56105  0.19095  1.0000
  H   H723      1.0  0.81920  0.57016  0.13556  1.0000
  C   C450      1.0  0.82713  0.56424  0.15957  1.0000
  H   H724      1.0  0.84353  0.57727  0.16657  1.0000
  C   C451      1.0  0.83939  0.54997  0.10029  1.0000
  C   C452      1.0  0.80556  0.52810  0.13298  1.0000
  H   H725      1.0  0.79614  0.52375  0.16356  1.0000
  H   H726      1.0  0.83172  0.55537  0.07456  1.0000
  N   N45       1.0  0.82759  0.54498  0.14188  1.0000
  S   S183      1.0  0.88487  0.53779  0.13081  1.0000
  H   H727      1.0  0.85621  0.56240  0.10565  1.0000
  H   H728      1.0  0.79704  0.53308  0.10831  1.0000
  C   C453      1.0  0.83833  0.53770  0.17456  1.0000
  H   H729      1.0  0.82997  0.53382  0.20649  1.0000
  H   H730      1.0  0.83990  0.53577  0.08611  1.0000
  H   H731      1.0  0.85512  0.54993  0.18147  1.0000
  H   H732      1.0  0.83904  0.52323  0.16221  1.0000
  H   H733      1.0  0.80530  0.51342  0.11893  1.0000
  Fe  Fe91      1.0  0.86525  0.51292  0.07803  1.0000
  H   H734      1.0  0.77057  0.53178  0.01465  1.0000
  S   S184      1.0  0.80047  0.51517  0.01781  1.0000
  S   S185      1.0  0.85842  0.52444  0.01387  1.0000
  H   H735      1.0  0.99213  0.60948  0.13389  1.0000
  H   H736      1.0  0.91241  0.56251  0.20360  1.0000
  H   H737      1.0  0.99575  0.59690  0.22586  1.0000
  C   C454      1.0  0.98309  0.58465  0.20399  1.0000
  C   C455      1.0  0.90395  0.53433  0.16315  1.0000
  C   C456      1.0  0.91545  0.54919  0.19724  1.0000
  C   C457      1.0  0.93069  0.54676  0.22357  1.0000
  C   C458      1.0  0.93467  0.52954  0.21559  1.0000
  H   H738      1.0  0.97057  0.58968  0.19872  1.0000
  H   H739      1.0  0.97596  0.56972  0.22253  1.0000
  C   C459      1.0  0.97394  0.56666  0.13251  1.0000
  H   H740      1.0  0.96205  0.57240  0.12582  1.0000
  S   S186      1.0  0.95425  0.52611  0.24610  1.0000
  N   N46       1.0  0.99167  0.58174  0.16173  1.0000
  H   H741      1.0  0.93918  0.55808  0.25024  1.0000
  H   H742      1.0  0.96527  0.55090  0.14799  1.0000
  H   H743      1.0  0.97974  0.56410  0.10014  1.0000
  H   H744      1.0  0.99862  0.55737  0.18584  1.0000
  C   C460      1.0  0.00672  0.57317  0.17037  1.0000
  C   C461      1.0  0.00294  0.60243  0.14037  1.0000
  C   C462      1.0  0.90788  0.51709  0.15539  1.0000
  C   C463      1.0  0.92319  0.51474  0.18146  1.0000
  H   H745      1.0  0.96507  0.51361  0.44663  1.0000
  S   S187      1.0  0.98173  0.53961  0.36559  1.0000
  Fe  Fe92      1.0  0.97772  0.54930  0.29731  1.0000
  S   S188      1.0  0.98351  0.58168  0.32075  1.0000
  S   S189      1.0  0.97472  0.57425  0.45289  1.0000
  Fe  Fe93      1.0  0.99053  0.57287  0.38856  1.0000
  C   C464      1.0  0.98687  0.57839  0.50647  1.0000
  C   C465      1.0  0.00336  0.50999  0.50941  1.0000
  C   C466      1.0  0.00525  0.54074  0.47368  1.0000
  N   N47       1.0  0.99081  0.52031  0.49324  1.0000
  H   H746      1.0  0.99630  0.54875  0.46017  1.0000
  H   H747      1.0  0.99397  0.51121  0.32330  1.0000
  H   H748      1.0  0.96965  0.53144  0.51872  1.0000
  H   H749      1.0  0.99778  0.61973  0.63200  1.0000
  H   H750      1.0  0.97343  0.62141  0.62735  1.0000
  H   H751      1.0  0.97171  0.63289  0.74783  1.0000
  Fe  Fe94      1.0  0.00341  0.57328  0.70912  1.0000
  H   H752      1.0  0.97086  0.59791  0.73738  1.0000
  H   H753      1.0  0.98123  0.59243  0.68770  1.0000
  S   S190      1.0  0.96896  0.55083  0.72025  1.0000
  C   C467      1.0  0.97394  0.57143  0.54361  1.0000
  C   C468      1.0  0.98301  0.57444  0.58670  1.0000
  H   H754      1.0  0.95681  0.56359  0.53894  1.0000
  N   N48       1.0  0.98584  0.62426  0.69407  1.0000
  H   H755      1.0  0.97285  0.56901  0.61490  1.0000
  C   C469      1.0  0.00681  0.63236  0.71714  1.0000
  C   C470      1.0  0.97319  0.60132  0.70143  1.0000
  Fe  Fe95      1.0  0.98164  0.52980  0.74749  1.0000
  H   H756      1.0  0.95715  0.59463  0.68500  1.0000
  C   C471      1.0  0.98892  0.62779  0.64606  1.0000
  H   H757      1.0  0.95858  0.62981  0.69489  1.0000
  C   C472      1.0  0.00514  0.58512  0.59316  1.0000
  H   H758      1.0  0.00512  0.62987  0.75344  1.0000
  H   H759      1.0  0.96910  0.50923  0.54693  1.0000
  C   C473      1.0  0.97971  0.52420  0.53044  1.0000
  H   H760      1.0  0.99117  0.53534  0.55596  1.0000
  C   C474      1.0  0.97444  0.63550  0.71173  1.0000
  H   H761      1.0  0.99821  0.64495  0.63910  1.0000
  H   H762      1.0  0.98360  0.65291  0.70716  1.0000
  H   H763      1.0  0.89877  0.54024  0.94139  1.0000
  H   H764      1.0  0.00433  0.51409  0.78530  1.0000
  C   C475      1.0  0.89768  0.51678  0.89408  1.0000
  C   C476      1.0  0.90671  0.51339  0.85572  1.0000
  C   C477      1.0  0.92246  0.55447  0.89142  1.0000
  S   S191      1.0  0.98530  0.54216  0.81726  1.0000
  C   C478      1.0  0.93178  0.55098  0.85358  1.0000
  Fe  Fe96      1.0  0.97544  0.56509  0.78935  1.0000
  C   C479      1.0  0.90565  0.53740  0.91198  1.0000
  H   H765      1.0  0.92836  0.57042  0.90509  1.0000
  C   C480      1.0  0.92393  0.53031  0.83602  1.0000
  H   H766      1.0  0.95573  0.52029  0.89177  1.0000
  S   S192      1.0  0.95275  0.57266  0.82800  1.0000
  H   H767      1.0  0.93074  0.52747  0.80649  1.0000
  H   H768      1.0  0.95436  0.50874  0.94471  1.0000
