data_image0
_chemical_formula_structural       SFeSHFeS2FeS2FeSFeS3H2CHCHC3H3CH2C6H5C8H7C2HFeNH2C2H2CHFeHNH2CHC2HSFeC2H3CH2SHSHCH2CH2SHSH3C2SCFeHSNHC2S2FeSCFeSHFeSCFeSFeS2H5SNFeSH2CHFeSHFeS2FeSFeS2HC2H5C6H4C7H3C6H4CSH2CH3C3SC2HCSHCH3SHCHCH3C2H2CSCHNH4SHN2HCHC2HCHCHNCH2CHCHCFeHCHCH4FeSH4CH3NC4H3SH5FeSH9CH2C2H3SH3SH2CHCH2FeCHC2H2SH2CH3CH2C3HCHFeSHFeS2FeSFeS3FeS2FeS2FeSFeS3HSNH2CHCHFeHSHNH2C2H2CHC3H2C2HCHCHC6H4C6H3CHNHC2H2CHC7H4C6H4SNC4H15CH2C2H2C2H4NC3H2SH4CHCH4CHNCNCH2CHFeH4FeH2CH2CHNHC2H2SCH3CS2H8CSCH6CH6SHCFeH6SH2NH3SHCHSFeC2HFeH3C3HCHCH4C2HCFeHSFeS2FeHFeCS2H2SHNHCH3CH4C6H4CHCHC2H7CHNHSH2SC2H4CH2CSCHC2NCHCHC2HCH2CSCH2NCH2CFeSHC2HSHFeS2FeS2FeS2FeSFeS3FeS2FeS2Fe2S3HC2H2FeS2FeS2FeS2Fe2S3H3SC4FeH2NC6H8C6H4C6H4C6H4C6H4C5SCHC4H2C6H4C6H4SCH2FeHSH2NC4H12NH2CH2S2H2FeH5C3H2FeHC2H9CH3NCH2C2HNCH2NCH4C3H5FeHNC2H4CH4C3H2CH2CH5NH3CHSHCHFeC3H2SHSHC2H3CFe2HC2HSHCHC3SFeH2CH5CSHCHC2H3CSCNHCH2SH2CFeSH2SCHNCHSH2SH4CSHFeCHC2H5FeSH3CHSC3H2CH2SCFeCH3C2SCNHCH2CH5SNH2CHSH11FeS2HSFeS2FeS2FeSFeS3FeS2FeSFeCHS2FeSHFeS2FeSFeS3FeS2FeS2FeSFeHS2FeHSFeS2CHSHS2C2H2C2HC2SC6H4C6H4CFeC4SH2C5H2C6H4C6H7CH2NH3C5H4C5H3C6H5NC4H12NC4H12C2H2S2HSCFeH2C2H2CH5CSH7CSHCH6NCNC2H3CH2C2H3NCSHNH3CH4CHCH3CSCH3FeCH5FeH2CNHCHCHCH2CH5NH2CSHC2H3CHCHNHCH2C2H3CH3CHC2H3CH2CFeH2C5HC2H4FeHC2H6NHCH3SH2SH4FeS2FeS2FeSFeS4FeS2HCFeSHSHCSFeS2FeS2FeSFeS3FeS2FeS2FeSFeS3CSHC2Fe2S2HC2FeH4C2H8C6H4C2SHC2HCH2C6H3C7H4C6H7SC6H6C2H2C7H4C6H4CH2SFeH3NC4H13NHC4HSH4CH4NCNHSH2CH2CH2CFeCH2C2H2NCHC2SH3CH2FeH2SH2SFeCH3CH3CH2CHFeH2CHSCNHC2HCHNH7CH8SHC2NH3CHCH2C2HCH3FeH3CHFeCHCHSHCS2HC2H4CSFeH4CNCH4CH3CNH3CHCSHC2HSH2C2SH2C2HCHSH4CH2NCHCHCH5CSFeSHFeS2FeSFeS3FeS2FeS2FeSFeS3FeS2FeHFeHFeS3FeS2FeS2FeSFeS3FeSNFeS2FeSFeS4HS2FeS2FeSFeS2C6H4C6H4C3H2C6H4C6HCH2C6H4C6H4C6H3C6H5C6H4C6H4C6HCH2CHCH5CH4NC5H3FeH4CHNC4H12NC2H10FeH2NCNH3C2NC4H12SC2H3C2H2NHCSH3CHCFeHS2CH3SHCSHC3H3CHSH2FeH2C2H3CFeNCH3NH3CHCH2CH3CHC2HCH2CH6CH3NCHC2H6C2HNHC2H4SH2CH3CHCH2CH5CNH5SCH2CHCH5SH2CH3SHCH4CH2SHSCH2NSH5CH2NH3CH3CSCH2C2HFeSFeH3CHNC2SHCH2FeSCHC2H5SH2CH2C2H2CHSH3FeHC2FeSHFeSCFeSFeS2NHCH3SCNCH3C6H4C5H7CH3C2H2C2NHC2H2CSH3SC2HSCSH2CHCH5SCH10CNHFeHSFeS2FeCFeCS2H3CH2CH2CHCHCH5NC2H2C3NH4C2HCH2SH2CH3NH2C3HCHSCSH2CH2CHC2HC2H3FeS2FeS2FeSFeS4FeSCFeSFeCH2FeCS2H4C2S2HCHCHCSHFeCHCH3SHCH3SHNHCH4FeH2CHSH2CHC6H4C6H4CSCH4C3HNC2H4C2HCH4NC2HCHC2H3NC3H5CH8CNCHCHCH5CH2FeS2FeS2FeSFeS3FeS2FeS2FeSFeS3FeSFeS2FeS3FeS2FeS2FeSFeS3CSFeS2FeSFeSHSFeS2FeS2FeS3C6H4C6H4C6H4C6H4C6H4C6H4C6H4C6H4C6H6CHNH8C3HNH3NCH2CH4CH2C2HNC4H10CH5CHCHCH2SHNH3NC4H10NC4H12NC4H12C2H5NC4H11SFe2H3NHCH2CH2CH3FeH2CH4CHSH2CHNH3CH3CH2NHCHCH2C3H2C2H3CH9CHCHS
_chemical_formula_sum              "S384 Fe192 H1536 C960 N96"
_cell_length_a       116.556
_cell_length_b       114.986
_cell_length_c       30.7614
_cell_angle_alpha    77.6022
_cell_angle_beta     77.8013
_cell_angle_gamma    103.15

_space_group_name_H-M_alt    "P 1"
_space_group_IT_number       1

loop_
  _space_group_symop_operation_xyz
  'x, y, z'

loop_
  _atom_site_type_symbol
  _atom_site_label
  _atom_site_symmetry_multiplicity
  _atom_site_fract_x
  _atom_site_fract_y
  _atom_site_fract_z
  _atom_site_occupancy
  S   S1        1.0  0.13414  0.49160  0.27289  1.0000
  Fe  Fe1       1.0  0.12755  0.50474  0.22449  1.0000
  S   S2        1.0  0.11380  0.50301  0.18083  1.0000
  H   H1        1.0  0.03530  0.51139  0.94520  1.0000
  Fe  Fe2       1.0  0.06687  0.46219  0.07625  1.0000
  S   S3        1.0  0.07677  0.47711  0.01093  1.0000
  S   S4        1.0  0.07510  0.46076  0.13785  1.0000
  Fe  Fe3       1.0  0.04635  0.45079  0.03266  1.0000
  S   S5        1.0  0.05542  0.46501  0.96355  1.0000
  S   S6        1.0  0.02708  0.43689  0.05373  1.0000
  Fe  Fe4       1.0  0.07323  0.46221  0.97511  1.0000
  S   S7        1.0  0.09009  0.46124  0.92547  1.0000
  Fe  Fe5       1.0  0.05827  0.47851  0.00580  1.0000
  S   S8        1.0  0.05432  0.49688  0.99185  1.0000
  S   S9        1.0  0.06405  0.44683  0.04119  1.0000
  S   S10       1.0  0.04839  0.46475  0.07449  1.0000
  H   H2        1.0  0.11936  0.46517  0.07213  1.0000
  H   H3        1.0  0.06697  0.48410  0.18888  1.0000
  C   C1        1.0  0.01681  0.43027  0.02370  1.0000
  H   H4        1.0  0.02835  0.51292  0.15559  1.0000
  C   C2        1.0  0.09489  0.44862  0.04601  1.0000
  H   H5        1.0  0.09695  0.47198  0.04969  1.0000
  C   C3        1.0  0.11074  0.45771  0.07813  1.0000
  C   C4        1.0  0.02008  0.43228  0.97560  1.0000
  C   C5        1.0  0.05047  0.49845  0.12791  1.0000
  H   H6        1.0  0.02460  0.47776  0.02319  1.0000
  H   H7        1.0  0.01757  0.45465  0.99446  1.0000
  H   H8        1.0  0.02927  0.43769  0.95538  1.0000
  C   C6        1.0  0.10413  0.47082  0.02212  1.0000
  H   H9        1.0  0.11255  0.44861  0.08977  1.0000
  H   H10       1.0  0.08027  0.50107  0.95213  1.0000
  C   C7        1.0  0.11037  0.49587  0.80358  1.0000
  C   C8        1.0  0.11573  0.48625  0.81340  1.0000
  C   C9        1.0  0.10947  0.47564  0.85094  1.0000
  C   C10       1.0  0.09792  0.47470  0.87917  1.0000
  C   C11       1.0  0.09273  0.48447  0.87001  1.0000
  C   C12       1.0  0.09888  0.49495  0.83213  1.0000
  H   H11       1.0  0.12456  0.48686  0.79153  1.0000
  H   H12       1.0  0.11352  0.46810  0.85774  1.0000
  H   H13       1.0  0.08383  0.48382  0.89143  1.0000
  H   H14       1.0  0.05270  0.49511  0.09660  1.0000
  H   H15       1.0  0.04722  0.49690  0.21832  1.0000
  C   C13       1.0  0.01884  0.46910  0.05033  1.0000
  C   C14       1.0  0.13801  0.51052  0.51024  1.0000
  C   C15       1.0  0.10375  0.49084  0.16794  1.0000
  C   C16       1.0  0.09906  0.49383  0.12967  1.0000
  C   C17       1.0  0.09054  0.48471  0.11932  1.0000
  C   C18       1.0  0.08641  0.47248  0.14765  1.0000
  C   C19       1.0  0.09119  0.46945  0.18557  1.0000
  C   C20       1.0  0.09987  0.47854  0.19551  1.0000
  H   H16       1.0  0.10201  0.50331  0.10793  1.0000
  H   H17       1.0  0.08704  0.48720  0.08981  1.0000
  H   H18       1.0  0.08807  0.46002  0.20780  1.0000
  H   H19       1.0  0.10333  0.47608  0.22519  1.0000
  H   H20       1.0  0.11763  0.44819  0.00708  1.0000
  H   H21       1.0  0.04114  0.49268  0.14930  1.0000
  H   H22       1.0  0.11254  0.47860  0.01516  1.0000
  C   C21       1.0  0.13172  0.50696  0.47833  1.0000
  C   C22       1.0  0.01118  0.46050  0.99359  1.0000
  H   H23       1.0  0.07189  0.51554  0.11293  1.0000
  Fe  Fe6       1.0  0.13563  0.50571  0.31507  1.0000
  N   N1        1.0  0.10639  0.45861  0.03607  1.0000
  H   H24       1.0  0.09133  0.44901  0.01504  1.0000
  H   H25       1.0  0.02458  0.46262  0.05410  1.0000
  C   C23       1.0  0.13794  0.50902  0.43151  1.0000
  C   C24       1.0  0.06000  0.48487  0.16942  1.0000
  H   H26       1.0  0.09466  0.50233  0.82462  1.0000
  H   H27       1.0  0.04231  0.51652  0.98679  1.0000
  C   C25       1.0  0.06729  0.50794  0.99275  1.0000
  H   H28       1.0  0.12450  0.46475  0.98927  1.0000
  Fe  Fe7       1.0  0.13689  0.51471  0.70930  1.0000
  H   H29       1.0  0.07905  0.50543  0.14299  1.0000
  N   N2        1.0  0.05967  0.49786  0.15422  1.0000
  H   H30       1.0  0.11414  0.51512  0.85393  1.0000
  H   H31       1.0  0.09848  0.51590  0.95901  1.0000
  C   C26       1.0  0.07185  0.50569  0.12441  1.0000
  H   H32       1.0  0.08760  0.44934  0.07438  1.0000
  C   C27       1.0  0.11571  0.45732  0.99796  1.0000
  C   C28       1.0  0.07908  0.50773  0.97148  1.0000
  H   H33       1.0  0.11257  0.45798  0.96586  1.0000
  S   S11       1.0  0.15136  0.50597  0.68101  1.0000
  Fe  Fe8       1.0  0.15313  0.50333  0.22889  1.0000
  C   C29       1.0  0.15055  0.51502  0.41685  1.0000
  C   C30       1.0  0.05638  0.50254  0.19496  1.0000
  H   H34       1.0  0.10381  0.45863  0.10735  1.0000
  H   H35       1.0  0.06319  0.50235  0.21542  1.0000
  H   H36       1.0  0.06241  0.48109  0.13936  1.0000
  C   C31       1.0  0.01785  0.51493  0.10563  1.0000
  H   H37       1.0  0.10101  0.47190  0.99004  1.0000
  H   H38       1.0  0.09623  0.43926  0.05672  1.0000
  S   S12       1.0  0.11753  0.50926  0.75636  1.0000
  H   H39       1.0  0.12199  0.50235  0.49029  1.0000
  S   S13       1.0  0.12948  0.50409  0.39300  1.0000
  H   H40       1.0  0.13308  0.50861  0.54618  1.0000
  C   C32       1.0  0.01146  0.42715  0.95355  1.0000
  H   H41       1.0  0.05100  0.47867  0.19226  1.0000
  H   H42       1.0  0.01595  0.46908  0.96472  1.0000
  C   C33       1.0  0.15067  0.51620  0.49587  1.0000
  H   H43       1.0  0.15551  0.51674  0.38110  1.0000
  H   H44       1.0  0.01418  0.42867  0.91645  1.0000
  S   S14       1.0  0.14655  0.51564  0.17944  1.0000
  H   H45       1.0  0.04999  0.50815  0.11613  1.0000
  S   S15       1.0  0.16949  0.49664  0.20413  1.0000
  H   H46       1.0  0.05603  0.51235  0.18436  1.0000
  H   H47       1.0  0.07459  0.50262  0.09279  1.0000
  H   H48       1.0  0.01655  0.47150  0.08368  1.0000
  C   C34       1.0  0.08939  0.51626  0.97467  1.0000
  C   C35       1.0  0.06581  0.51693  0.01578  1.0000
  S   S16       1.0  0.15499  0.51578  0.27522  1.0000
  C   C36       1.0  0.07608  0.52537  0.01915  1.0000
  Fe  Fe9       1.0  0.14686  0.52724  0.22902  1.0000
  H   H49       1.0  0.13850  0.54256  0.14704  1.0000
  S   S17       1.0  0.15441  0.54797  0.20457  1.0000
  N   N3        1.0  0.15946  0.56026  0.50272  1.0000
  H   H50       1.0  0.04762  0.54280  0.85760  1.0000
  C   C37       1.0  0.16379  0.55856  0.72240  1.0000
  C   C38       1.0  0.16856  0.57206  0.47387  1.0000
  S   S18       1.0  0.14995  0.52835  0.73080  1.0000
  S   S19       1.0  0.13945  0.52779  0.63978  1.0000
  Fe  Fe10      1.0  0.15356  0.54056  0.65963  1.0000
  S   S20       1.0  0.16927  0.53418  0.62864  1.0000
  C   C39       1.0  0.12849  0.53882  0.15208  1.0000
  Fe  Fe11      1.0  0.16468  0.61228  0.31711  1.0000
  S   S21       1.0  0.14633  0.60956  0.36654  1.0000
  H   H51       1.0  0.17298  0.55850  0.77638  1.0000
  Fe  Fe12      1.0  0.16409  0.58577  0.35460  1.0000
  S   S22       1.0  0.14560  0.58103  0.40444  1.0000
  C   C40       1.0  0.08789  0.52512  0.99858  1.0000
  Fe  Fe13      1.0  0.14047  0.59194  0.34523  1.0000
  S   S23       1.0  0.12264  0.58688  0.32346  1.0000
  Fe  Fe14      1.0  0.15345  0.59894  0.42112  1.0000
  S   S24       1.0  0.15051  0.59650  0.49986  1.0000
  S   S25       1.0  0.15844  0.59520  0.29446  1.0000
  H   H52       1.0  0.17117  0.58759  0.65991  1.0000
  H   H53       1.0  0.14056  0.62716  0.13563  1.0000
  H   H54       1.0  0.06417  0.53336  0.86843  1.0000
  H   H55       1.0  0.13371  0.53921  0.30290  1.0000
  H   H56       1.0  0.12328  0.63291  0.69325  1.0000
  S   S26       1.0  0.15599  0.60466  0.76063  1.0000
  N   N4        1.0  0.12449  0.53423  0.83895  1.0000
  Fe  Fe15      1.0  0.15678  0.61764  0.80526  1.0000
  S   S27       1.0  0.13967  0.62338  0.82725  1.0000
  H   H57       1.0  0.05668  0.53677  0.96778  1.0000
  H   H58       1.0  0.04512  0.54395  0.95620  1.0000
  C   C41       1.0  0.15316  0.63945  0.69385  1.0000
  H   H59       1.0  0.16307  0.54525  0.35493  1.0000
  Fe  Fe16      1.0  0.09348  0.54829  0.04249  1.0000
  S   S28       1.0  0.08365  0.54031  0.11757  1.0000
  H   H60       1.0  0.14212  0.53625  0.07441  1.0000
  Fe  Fe17      1.0  0.08900  0.57303  0.04108  1.0000
  S   S29       1.0  0.07797  0.56650  0.11649  1.0000
  S   S30       1.0  0.09253  0.59231  0.99462  1.0000
  Fe  Fe18      1.0  0.09350  0.55847  0.12785  1.0000
  S   S31       1.0  0.10606  0.55881  0.17723  1.0000
  Fe  Fe19      1.0  0.06903  0.54881  0.09923  1.0000
  S   S32       1.0  0.10453  0.56558  0.05298  1.0000
  S   S33       1.0  0.07887  0.55640  0.02349  1.0000
  H   H61       1.0  0.04349  0.54592  0.04197  1.0000
  C   C42       1.0  0.11884  0.55260  0.37619  1.0000
  C   C43       1.0  0.17286  0.62065  0.54954  1.0000
  H   H62       1.0  0.17168  0.57810  0.49542  1.0000
  H   H63       1.0  0.13741  0.61685  0.73789  1.0000
  H   H64       1.0  0.16342  0.55032  0.45224  1.0000
  H   H65       1.0  0.15135  0.55737  0.44786  1.0000
  H   H66       1.0  0.14875  0.54349  0.49371  1.0000
  C   C44       1.0  0.12698  0.61408  0.87448  1.0000
  C   C45       1.0  0.11713  0.61894  0.88584  1.0000
  C   C46       1.0  0.10678  0.61210  0.92259  1.0000
  C   C47       1.0  0.10601  0.60023  0.94870  1.0000
  C   C48       1.0  0.11582  0.59522  0.93746  1.0000
  C   C49       1.0  0.12632  0.60215  0.90034  1.0000
  H   H67       1.0  0.11753  0.62811  0.86631  1.0000
  H   H68       1.0  0.09929  0.61606  0.93095  1.0000
  H   H69       1.0  0.11533  0.58606  0.95734  1.0000
  H   H70       1.0  0.13387  0.59829  0.89185  1.0000
  C   C50       1.0  0.15788  0.60398  0.53647  1.0000
  C   C51       1.0  0.16754  0.61499  0.51908  1.0000
  C   C52       1.0  0.13202  0.53258  0.08144  1.0000
  C   C53       1.0  0.16870  0.61541  0.59790  1.0000
  C   C54       1.0  0.15911  0.60434  0.61533  1.0000
  C   C55       1.0  0.15377  0.59870  0.58488  1.0000
  C   C56       1.0  0.12964  0.54635  0.31346  1.0000
  H   H71       1.0  0.17665  0.52411  0.19721  1.0000
  H   H72       1.0  0.15578  0.60006  0.65226  1.0000
  H   H73       1.0  0.14638  0.59014  0.59901  1.0000
  C   C57       1.0  0.11855  0.57966  0.28055  1.0000
  C   C58       1.0  0.10709  0.57923  0.27185  1.0000
  C   C59       1.0  0.10333  0.57343  0.23897  1.0000
  C   C60       1.0  0.11090  0.56771  0.21476  1.0000
  C   C61       1.0  0.12244  0.56826  0.22312  1.0000
  C   C62       1.0  0.12631  0.57433  0.25521  1.0000
  H   H74       1.0  0.10098  0.58335  0.29097  1.0000
  H   H75       1.0  0.09440  0.57304  0.23343  1.0000
  H   H76       1.0  0.12844  0.56392  0.20473  1.0000
  H   H77       1.0  0.13524  0.57475  0.26063  1.0000
  C   C63       1.0  0.14876  0.56295  0.52968  1.0000
  S   S34       1.0  0.17222  0.60308  0.37266  1.0000
  H   H78       1.0  0.17085  0.61924  0.48211  1.0000
  H   H79       1.0  0.05951  0.54801  0.91342  1.0000
  C   C64       1.0  0.11402  0.53094  0.37694  1.0000
  H   H80       1.0  0.03007  0.52215  0.97284  1.0000
  H   H81       1.0  0.14324  0.57464  0.70504  1.0000
  H   H82       1.0  0.16795  0.55883  0.55850  1.0000
  C   C65       1.0  0.16056  0.55404  0.24506  1.0000
  C   C66       1.0  0.16624  0.56678  0.23445  1.0000
  C   C67       1.0  0.02632  0.53355  0.04212  1.0000
  S   S35       1.0  0.17389  0.63184  0.75609  1.0000
  C   C68       1.0  0.16417  0.55125  0.32104  1.0000
  C   C69       1.0  0.15957  0.54631  0.28838  1.0000
  H   H83       1.0  0.15146  0.56887  0.55227  1.0000
  C   C70       1.0  0.12197  0.53784  0.79356  1.0000
  S   S36       1.0  0.16688  0.60825  0.84967  1.0000
  H   H84       1.0  0.15468  0.53664  0.29800  1.0000
  C   C71       1.0  0.16937  0.56403  0.31110  1.0000
  H   H85       1.0  0.17479  0.58168  0.25962  1.0000
  H   H86       1.0  0.16464  0.57745  0.44944  1.0000
  H   H87       1.0  0.13739  0.53364  0.37935  1.0000
  S   S37       1.0  0.17287  0.57039  0.35497  1.0000
  H   H88       1.0  0.12284  0.54758  0.29362  1.0000
  C   C72       1.0  0.13172  0.63740  0.70175  1.0000
  H   H89       1.0  0.15563  0.64973  0.68065  1.0000
  C   C73       1.0  0.16635  0.56187  0.76132  1.0000
  H   H90       1.0  0.11188  0.55428  0.35762  1.0000
  H   H91       1.0  0.12938  0.52261  0.10127  1.0000
  H   H92       1.0  0.12455  0.55844  0.09892  1.0000
  C   C74       1.0  0.13938  0.61969  0.69942  1.0000
  C   C75       1.0  0.14969  0.57108  0.72067  1.0000
  H   H93       1.0  0.16258  0.63203  0.17639  1.0000
  H   H94       1.0  0.10900  0.52447  0.13571  1.0000
  C   C76       1.0  0.16079  0.57004  0.77915  1.0000
  S   S38       1.0  0.15353  0.56027  0.65033  1.0000
  C   C77       1.0  0.11552  0.53686  0.87457  1.0000
  H   H95       1.0  0.16701  0.57283  0.20107  1.0000
  N   N5        1.0  0.14225  0.63331  0.68127  1.0000
  H   H96       1.0  0.14202  0.59974  0.22171  1.0000
  H   H97       1.0  0.14083  0.54966  0.37990  1.0000
  H   H98       1.0  0.11714  0.53427  0.90933  1.0000
  H   H99       1.0  0.10681  0.53190  0.35892  1.0000
  S   S39       1.0  0.10065  0.53583  0.00320  1.0000
  H   H100      1.0  0.15840  0.54445  0.55647  1.0000
  N   N6        1.0  0.04735  0.53009  0.92058  1.0000
  N   N7        1.0  0.12550  0.53967  0.10737  1.0000
  H   H101      1.0  0.14717  0.61632  0.68482  1.0000
  C   C78       1.0  0.13700  0.54142  0.83619  1.0000
  H   H102      1.0  0.10957  0.52779  0.41487  1.0000
  C   C79       1.0  0.03839  0.51961  0.95789  1.0000
  C   C80       1.0  0.03648  0.53722  0.05963  1.0000
  H   H103      1.0  0.17312  0.55118  0.51578  1.0000
  C   C81       1.0  0.01698  0.52231  0.06448  1.0000
  H   H104      1.0  0.14401  0.53987  0.80902  1.0000
  C   C82       1.0  0.15212  0.57423  0.75995  1.0000
  H   H105      1.0  0.12970  0.63494  0.74029  1.0000
  N   N8        1.0  0.12393  0.54271  0.36386  1.0000
  C   C83       1.0  0.13326  0.54093  0.38859  1.0000
  H   H106      1.0  0.11439  0.55020  0.41395  1.0000
  H   H107      1.0  0.02562  0.53952  0.01105  1.0000
  C   C84       1.0  0.12929  0.55284  0.08010  1.0000
  H   H108      1.0  0.12701  0.55384  0.04634  1.0000
  C   C85       1.0  0.15572  0.56344  0.70140  1.0000
  H   H109      1.0  0.12268  0.54791  0.78279  1.0000
  C   C86       1.0  0.05238  0.54014  0.94029  1.0000
  Fe  Fe20      1.0  0.16765  0.59653  0.80035  1.0000
  H   H110      1.0  0.10699  0.53936  0.13654  1.0000
  C   C87       1.0  0.03740  0.52982  0.10060  1.0000
  H   H111      1.0  0.13933  0.53881  0.86953  1.0000
  C   C88       1.0  0.11217  0.53444  0.11594  1.0000
  H   H112      1.0  0.13356  0.64764  0.68910  1.0000
  H   H113      1.0  0.16842  0.55260  0.70753  1.0000
  H   H114      1.0  0.14697  0.64685  0.61531  1.0000
  H   H115      1.0  0.14718  0.57981  0.77565  1.0000
  Fe  Fe21      1.0  0.16469  0.52082  0.69915  1.0000
  S   S40       1.0  0.04998  0.53401  0.12500  1.0000
  H   H116      1.0  0.14426  0.56806  0.50671  1.0000
  H   H117      1.0  0.13931  0.55709  0.07300  1.0000
  H   H118      1.0  0.12610  0.56161  0.36664  1.0000
  H   H119      1.0  0.14180  0.55427  0.55263  1.0000
  C   C89       1.0  0.14476  0.63664  0.63031  1.0000
  H   H120      1.0  0.13714  0.55522  0.30224  1.0000
  H   H121      1.0  0.13677  0.63208  0.61945  1.0000
  H   H122      1.0  0.13238  0.61830  0.26453  1.0000
  N   N9        1.0  0.14440  0.61937  0.19915  1.0000
  C   C90       1.0  0.15770  0.62239  0.17752  1.0000
  C   C91       1.0  0.13919  0.62794  0.17172  1.0000
  C   C92       1.0  0.14232  0.62067  0.24673  1.0000
  C   C93       1.0  0.13837  0.60644  0.20081  1.0000
  H   H123      1.0  0.15965  0.62157  0.14150  1.0000
  H   H124      1.0  0.16192  0.61609  0.19749  1.0000
  H   H125      1.0  0.11605  0.54692  0.86634  1.0000
  S   S41       1.0  0.16564  0.57610  0.82177  1.0000
  H   H126      1.0  0.12916  0.62591  0.18724  1.0000
  H   H127      1.0  0.14357  0.63778  0.16983  1.0000
  H   H128      1.0  0.12831  0.60384  0.21703  1.0000
  H   H129      1.0  0.14684  0.63029  0.24710  1.0000
  H   H130      1.0  0.14620  0.61437  0.26813  1.0000
  Fe  Fe22      1.0  0.17345  0.61795  0.71354  1.0000
  S   S42       1.0  0.17303  0.62975  0.25747  1.0000
  H   H131      1.0  0.13973  0.60501  0.16564  1.0000
  H   H132      1.0  0.16127  0.63651  0.67934  1.0000
  H   H133      1.0  0.13122  0.61473  0.69049  1.0000
  H   H134      1.0  0.13800  0.55157  0.82765  1.0000
  H   H135      1.0  0.17493  0.53846  0.20730  1.0000
  H   H136      1.0  0.12556  0.52902  0.17374  1.0000
  H   H137      1.0  0.12982  0.53293  0.04775  1.0000
  H   H138      1.0  0.15273  0.63367  0.61422  1.0000
  H   H139      1.0  0.15157  0.63714  0.73209  1.0000
  C   C94       1.0  0.16503  0.55344  0.53474  1.0000
  H   H140      1.0  0.10952  0.53518  0.08304  1.0000
  H   H141      1.0  0.07474  0.53175  0.03929  1.0000
  C   C95       1.0  0.15552  0.55253  0.47284  1.0000
  C   C96       1.0  0.17058  0.57179  0.26759  1.0000
  H   H142      1.0  0.12379  0.54416  0.17238  1.0000
  H   H143      1.0  0.12923  0.53788  0.42678  1.0000
  H   H144      1.0  0.12856  0.53598  0.76585  1.0000
  S   S43       1.0  0.17599  0.62298  0.63445  1.0000
  H   H145      1.0  0.03729  0.52748  0.87069  1.0000
  H   H146      1.0  0.11268  0.53243  0.79413  1.0000
  H   H147      1.0  0.06255  0.52259  0.92235  1.0000
  S   S44       1.0  0.15929  0.52054  0.53475  1.0000
  H   H148      1.0  0.11760  0.52332  0.36781  1.0000
  H   H149      1.0  0.03346  0.53810  0.90243  1.0000
  C   C97       1.0  0.05745  0.52580  0.89776  1.0000
  H   H150      1.0  0.16661  0.52296  0.43704  1.0000
  C   C98       1.0  0.04117  0.53484  0.88622  1.0000
  H   H151      1.0  0.17672  0.57039  0.45268  1.0000
  H   H152      1.0  0.10597  0.53160  0.87761  1.0000
  Fe  Fe23      1.0  0.15475  0.52028  0.61207  1.0000
  C   C99       1.0  0.12348  0.52081  0.85146  1.0000
  H   H153      1.0  0.17479  0.51871  0.12374  1.0000
  C   C100      1.0  0.15683  0.51855  0.44878  1.0000
  C   C101      1.0  0.02792  0.51869  0.12355  1.0000
  H   H154      1.0  0.13000  0.51847  0.82491  1.0000
  H   H155      1.0  0.05400  0.51785  0.88419  1.0000
  S   S45       1.0  0.12746  0.51777  0.26996  1.0000
  H   H156      1.0  0.12543  0.51774  0.88527  1.0000
  H   H157      1.0  0.05675  0.51717  0.03242  1.0000
  C   C102      1.0  0.20306  0.50603  0.11501  1.0000
  H   H158      1.0  0.19208  0.49165  0.17649  1.0000
  H   H159      1.0  0.25407  0.50469  0.01508  1.0000
  H   H160      1.0  0.25687  0.51420  0.05332  1.0000
  C   C103      1.0  0.19239  0.49994  0.15112  1.0000
  H   H161      1.0  0.21084  0.50233  0.11282  1.0000
  H   H162      1.0  0.19214  0.51362  0.80796  1.0000
  C   C104      1.0  0.18218  0.50451  0.15510  1.0000
  C   C105      1.0  0.18271  0.51524  0.12159  1.0000
  C   C106      1.0  0.20376  0.51679  0.08180  1.0000
  H   H163      1.0  0.24210  0.51038  0.04233  1.0000
  C   C107      1.0  0.25217  0.51283  0.02608  1.0000
  H   H164      1.0  0.25134  0.51388  0.93897  1.0000
  Fe  Fe24      1.0  0.22288  0.54128  0.97866  1.0000
  S   S46       1.0  0.23260  0.54058  0.90799  1.0000
  H   H165      1.0  0.18457  0.54469  0.72632  1.0000
  Fe  Fe25      1.0  0.22701  0.56907  0.94605  1.0000
  S   S47       1.0  0.23728  0.57033  0.87407  1.0000
  S   S48       1.0  0.22128  0.58525  0.96449  1.0000
  Fe  Fe26      1.0  0.22209  0.55331  0.88005  1.0000
  S   S49       1.0  0.21214  0.55512  0.82264  1.0000
  Fe  Fe27      1.0  0.24685  0.55755  0.90878  1.0000
  S   S50       1.0  0.26742  0.55914  0.88383  1.0000
  S   S51       1.0  0.21145  0.55271  0.95111  1.0000
  S   S52       1.0  0.23752  0.55761  0.98050  1.0000
  Fe  Fe28      1.0  0.25347  0.64809  0.99160  1.0000
  S   S53       1.0  0.25707  0.66695  0.94343  1.0000
  S   S54       1.0  0.26063  0.63294  0.96883  1.0000
  Fe  Fe29      1.0  0.23805  0.65438  0.07150  1.0000
  S   S55       1.0  0.24012  0.67369  0.02810  1.0000
  S   S56       1.0  0.22923  0.64397  0.14743  1.0000
  Fe  Fe30      1.0  0.23685  0.66405  0.97238  1.0000
  S   S57       1.0  0.22446  0.66612  0.92376  1.0000
  Fe  Fe31      1.0  0.26030  0.67494  0.00283  1.0000
  S   S58       1.0  0.27837  0.69087  0.98802  1.0000
  S   S59       1.0  0.23335  0.64503  0.01829  1.0000
  S   S60       1.0  0.25817  0.65595  0.04844  1.0000
  H   H166      1.0  0.20904  0.66714  0.86173  1.0000
  S   S61       1.0  0.30885  0.73096  0.07244  1.0000
  N   N10       1.0  0.19694  0.58079  0.87564  1.0000
  H   H167      1.0  0.24359  0.53249  0.02032  1.0000
  H   H168      1.0  0.19835  0.60019  0.85145  1.0000
  C   C108      1.0  0.20902  0.63109  0.21982  1.0000
  H   H169      1.0  0.19954  0.65195  0.82368  1.0000
  C   C109      1.0  0.21150  0.63353  0.89211  1.0000
  H   H170      1.0  0.21979  0.61815  0.06038  1.0000
  Fe  Fe32      1.0  0.33346  0.56942  0.95157  1.0000
  H   H171      1.0  0.24695  0.61622  0.10412  1.0000
  S   S62       1.0  0.31251  0.56614  0.97516  1.0000
  H   H172      1.0  0.25590  0.54306  0.97356  1.0000
  N   N11       1.0  0.22738  0.61096  0.11474  1.0000
  H   H173      1.0  0.33178  0.62230  0.92348  1.0000
  H   H174      1.0  0.20981  0.59497  0.60791  1.0000
  C   C110      1.0  0.19320  0.59097  0.84953  1.0000
  C   C111      1.0  0.22721  0.59934  0.10125  1.0000
  H   H175      1.0  0.19713  0.57316  0.94559  1.0000
  H   H176      1.0  0.30009  0.73458  0.93519  1.0000
  C   C112      1.0  0.32221  0.61739  0.94505  1.0000
  H   H177      1.0  0.22943  0.60110  0.06292  1.0000
  C   C113      1.0  0.21343  0.63976  0.17597  1.0000
  C   C114      1.0  0.21808  0.61623  0.09859  1.0000
  C   C115      1.0  0.18172  0.53388  0.19320  1.0000
  H   H178      1.0  0.33177  0.75222  0.92493  1.0000
  H   H179      1.0  0.33793  0.60383  0.95628  1.0000
  C   C116      1.0  0.21609  0.65434  0.90314  1.0000
  C   C117      1.0  0.21663  0.64205  0.91467  1.0000
  H   H180      1.0  0.25279  0.53017  0.92073  1.0000
  C   C118      1.0  0.20959  0.65769  0.87097  1.0000
  H   H181      1.0  0.22129  0.63918  0.94005  1.0000
  C   C119      1.0  0.18033  0.59105  0.66529  1.0000
  H   H182      1.0  0.21804  0.59239  0.11620  1.0000
  C   C120      1.0  0.28674  0.70136  0.01426  1.0000
  C   C121      1.0  0.29943  0.70698  0.99411  1.0000
  C   C122      1.0  0.30640  0.71560  0.01226  1.0000
  C   C123      1.0  0.30077  0.71914  0.05033  1.0000
  C   C124      1.0  0.28808  0.71352  0.07052  1.0000
  C   C125      1.0  0.28116  0.70467  0.05304  1.0000
  H   H183      1.0  0.30396  0.70450  0.96444  1.0000
  H   H184      1.0  0.31616  0.71944  0.99681  1.0000
  H   H185      1.0  0.28351  0.71605  0.09999  1.0000
  H   H186      1.0  0.27144  0.70056  0.06917  1.0000
  C   C126      1.0  0.18730  0.52812  0.76497  1.0000
  C   C127      1.0  0.18603  0.52772  0.26678  1.0000
  C   C128      1.0  0.20065  0.53152  0.81612  1.0000
  C   C129      1.0  0.20240  0.54436  0.80218  1.0000
  C   C130      1.0  0.19643  0.54900  0.76986  1.0000
  C   C131      1.0  0.18891  0.54096  0.75156  1.0000
  H   H187      1.0  0.32746  0.60169  0.01114  1.0000
  H   H188      1.0  0.30015  0.60053  0.96526  1.0000
  H   H189      1.0  0.19771  0.55889  0.75856  1.0000
  C   C132      1.0  0.19004  0.56878  0.87136  1.0000
  H   H190      1.0  0.32652  0.58920  0.98459  1.0000
  N   N12       1.0  0.19147  0.53444  0.21719  1.0000
  H   H191      1.0  0.18033  0.58549  0.69966  1.0000
  C   C133      1.0  0.30692  0.59761  0.98250  1.0000
  C   C134      1.0  0.30071  0.74277  0.94940  1.0000
  H   H192      1.0  0.17998  0.56700  0.88503  1.0000
  H   H193      1.0  0.23409  0.59508  0.11295  1.0000
  C   C135      1.0  0.20414  0.64906  0.84935  1.0000
  H   H194      1.0  0.19606  0.51853  0.20079  1.0000
  C   C136      1.0  0.18850  0.63313  0.22579  1.0000
  C   C137      1.0  0.27995  0.56177  0.90919  1.0000
  C   C138      1.0  0.27849  0.56295  0.95429  1.0000
  C   C139      1.0  0.28853  0.56424  0.97368  1.0000
  C   C140      1.0  0.30025  0.56460  0.94822  1.0000
  C   C141      1.0  0.30177  0.56365  0.90286  1.0000
  C   C142      1.0  0.29168  0.56217  0.88370  1.0000
  H   H195      1.0  0.26962  0.56283  0.97433  1.0000
  H   H196      1.0  0.28720  0.56498  0.00876  1.0000
  H   H197      1.0  0.31067  0.56388  0.88269  1.0000
  H   H198      1.0  0.29297  0.56128  0.84881  1.0000
  C   C143      1.0  0.23258  0.59855  0.96280  1.0000
  C   C144      1.0  0.22916  0.60931  0.96627  1.0000
  C   C145      1.0  0.23778  0.61993  0.96704  1.0000
  C   C146      1.0  0.24986  0.61988  0.96496  1.0000
  C   C147      1.0  0.25335  0.60918  0.96073  1.0000
  C   C148      1.0  0.24473  0.59853  0.95956  1.0000
  H   H199      1.0  0.21981  0.60943  0.96828  1.0000
  H   H200      1.0  0.23505  0.62816  0.96884  1.0000
  H   H201      1.0  0.26270  0.60908  0.95878  1.0000
  H   H202      1.0  0.24745  0.59027  0.95670  1.0000
  S   S63       1.0  0.33942  0.74723  0.11084  1.0000
  N   N13       1.0  0.25121  0.65511  0.82518  1.0000
  C   C149      1.0  0.24064  0.65727  0.80871  1.0000
  C   C150      1.0  0.25770  0.64861  0.79619  1.0000
  C   C151      1.0  0.24688  0.64737  0.87370  1.0000
  C   C152      1.0  0.25962  0.66717  0.82240  1.0000
  H   H203      1.0  0.24348  0.66256  0.77154  1.0000
  H   H204      1.0  0.23597  0.66276  0.82832  1.0000
  H   H205      1.0  0.23366  0.64838  0.81304  1.0000
  H   H206      1.0  0.26563  0.64670  0.80819  1.0000
  H   H207      1.0  0.25150  0.63951  0.79758  1.0000
  H   H208      1.0  0.26122  0.65420  0.75932  1.0000
  H   H209      1.0  0.24204  0.65203  0.89665  1.0000
  H   H210      1.0  0.25461  0.64551  0.88725  1.0000
  H   H211      1.0  0.24041  0.63822  0.87738  1.0000
  H   H212      1.0  0.26320  0.67325  0.78624  1.0000
  H   H213      1.0  0.26759  0.66589  0.83554  1.0000
  H   H214      1.0  0.25488  0.67230  0.84371  1.0000
  H   H215      1.0  0.21530  0.60178  0.18308  1.0000
  H   H216      1.0  0.21530  0.62719  0.23534  1.0000
  H   H217      1.0  0.21571  0.59168  0.85974  1.0000
  C   C153      1.0  0.19353  0.52142  0.08500  1.0000
  H   H218      1.0  0.20859  0.65165  0.12295  1.0000
  H   H219      1.0  0.27284  0.53547  0.93501  1.0000
  C   C154      1.0  0.20527  0.63696  0.85908  1.0000
  C   C155      1.0  0.32237  0.74571  0.93968  1.0000
  H   H220      1.0  0.19099  0.55221  0.22782  1.0000
  H   H221      1.0  0.31935  0.59049  0.91366  1.0000
  C   C156      1.0  0.25351  0.53459  0.00287  1.0000
  C   C157      1.0  0.32115  0.60069  0.90867  1.0000
  H   H222      1.0  0.29848  0.73914  0.98774  1.0000
  H   H223      1.0  0.32203  0.73768  0.92477  1.0000
  H   H224      1.0  0.20518  0.52776  0.84071  1.0000
  H   H225      1.0  0.19575  0.57627  0.59949  1.0000
  N   N14       1.0  0.25626  0.52410  0.98652  1.0000
  C   C158      1.0  0.31352  0.76211  0.95253  1.0000
  C   C159      1.0  0.19433  0.58068  0.92490  1.0000
  C   C160      1.0  0.19286  0.64171  0.18172  1.0000
  H   H226      1.0  0.32465  0.76382  0.86465  1.0000
  H   H227      1.0  0.24198  0.62235  0.05510  1.0000
  S   S64       1.0  0.20089  0.62653  0.82595  1.0000
  H   H228      1.0  0.19945  0.58961  0.92923  1.0000
  H   H229      1.0  0.20868  0.60981  0.11477  1.0000
  H   H230      1.0  0.21327  0.57521  0.87579  1.0000
  H   H231      1.0  0.22480  0.61703  0.17648  1.0000
  C   C161      1.0  0.20527  0.64491  0.15658  1.0000
  H   H232      1.0  0.23138  0.60434  0.17917  1.0000
  C   C162      1.0  0.18846  0.57722  0.62722  1.0000
  H   H233      1.0  0.18440  0.57924  0.94026  1.0000
  H   H234      1.0  0.29340  0.74697  0.94181  1.0000
  H   H235      1.0  0.21250  0.62424  0.89993  1.0000
  H   H236      1.0  0.31592  0.62101  0.92677  1.0000
  C   C163      1.0  0.19658  0.62766  0.24439  1.0000
  H   H237      1.0  0.20179  0.55288  0.17542  1.0000
  N   N15       1.0  0.31963  0.60378  0.95341  1.0000
  C   C164      1.0  0.21020  0.58275  0.85679  1.0000
  N   N16       1.0  0.31299  0.75188  0.93031  1.0000
  C   C165      1.0  0.23966  0.61994  0.09342  1.0000
  H   H238      1.0  0.18053  0.59437  0.57646  1.0000
  H   H239      1.0  0.19271  0.56088  0.89032  1.0000
  C   C166      1.0  0.22458  0.60835  0.16563  1.0000
  H   H240      1.0  0.24023  0.62878  0.10321  1.0000
  Fe  Fe33      1.0  0.32821  0.74466  0.05902  1.0000
  H   H241      1.0  0.19334  0.62113  0.27844  1.0000
  H   H242      1.0  0.20362  0.60518  0.63660  1.0000
  H   H243      1.0  0.21810  0.62514  0.10743  1.0000
  H   H244      1.0  0.19182  0.56855  0.83456  1.0000
  Fe  Fe34      1.0  0.18408  0.62147  0.79808  1.0000
  H   H245      1.0  0.27490  0.52921  0.99044  1.0000
  H   H246      1.0  0.21251  0.58276  0.81976  1.0000
  C   C167      1.0  0.31542  0.75693  0.87980  1.0000
  H   H247      1.0  0.30475  0.58732  0.98970  1.0000
  H   H248      1.0  0.18866  0.57134  0.66079  1.0000
  C   C168      1.0  0.20043  0.52855  0.19631  1.0000
  H   H249      1.0  0.18548  0.53854  0.15545  1.0000
  N   N17       1.0  0.19015  0.59033  0.62773  1.0000
  H   H250      1.0  0.19485  0.59117  0.81239  1.0000
  C   C169      1.0  0.18960  0.59775  0.58296  1.0000
  C   C170      1.0  0.26960  0.52712  0.96552  1.0000
  H   H251      1.0  0.20813  0.52909  0.21253  1.0000
  H   H252      1.0  0.20280  0.58991  0.66933  1.0000
  S   S65       1.0  0.21782  0.52392  0.03830  1.0000
  C   C171      1.0  0.32825  0.59945  0.97740  1.0000
  H   H253      1.0  0.20500  0.54838  0.23036  1.0000
  H   H254      1.0  0.18137  0.60076  0.66699  1.0000
  H   H255      1.0  0.18327  0.58988  0.86327  1.0000
  C   C172      1.0  0.19323  0.52350  0.79741  1.0000
  S   S66       1.0  0.33090  0.76543  0.03478  1.0000
  S   S67       1.0  0.18531  0.60894  0.75062  1.0000
  H   H256      1.0  0.19677  0.59734  0.55354  1.0000
  H   H257      1.0  0.19394  0.52966  0.05923  1.0000
  H   H258      1.0  0.33063  0.60520  0.88577  1.0000
  H   H259      1.0  0.31136  0.75848  0.99087  1.0000
  H   H260      1.0  0.20435  0.53299  0.15840  1.0000
  H   H261      1.0  0.25871  0.53694  0.02775  1.0000
  H   H262      1.0  0.32111  0.62005  0.97811  1.0000
  H   H263      1.0  0.19091  0.60770  0.58223  1.0000
  C   C173      1.0  0.20215  0.59532  0.63569  1.0000
  S   S68       1.0  0.34344  0.57271  0.00581  1.0000
  C   C174      1.0  0.19761  0.54757  0.21247  1.0000
  H   H264      1.0  0.18669  0.64605  0.16722  1.0000
  H   H265      1.0  0.31470  0.60370  0.88981  1.0000
  H   H266      1.0  0.32102  0.74215  0.97749  1.0000
  H   H267      1.0  0.31513  0.74942  0.86207  1.0000
  H   H268      1.0  0.30542  0.59976  0.01649  1.0000
  H   H269      1.0  0.17910  0.53181  0.28361  1.0000
  C   C175      1.0  0.24970  0.52190  0.95151  1.0000
  H   H270      1.0  0.18027  0.62919  0.53535  1.0000
  H   H271      1.0  0.30854  0.76169  0.87131  1.0000
  H   H272      1.0  0.19310  0.52798  0.28608  1.0000
  H   H273      1.0  0.27205  0.51935  0.95329  1.0000
  H   H274      1.0  0.18133  0.51774  0.27151  1.0000
  H   H275      1.0  0.17948  0.57321  0.62127  1.0000
  S   S69       1.0  0.17840  0.51759  0.74110  1.0000
  H   H276      1.0  0.23962  0.51993  0.96585  1.0000
  C   C176      1.0  0.34334  0.83317  0.19461  1.0000
  Fe  Fe35      1.0  0.34358  0.76799  0.08095  1.0000
  H   H277      1.0  0.33410  0.83130  0.21855  1.0000
  H   H278      1.0  0.33991  0.81646  0.27698  1.0000
  H   H279      1.0  0.34252  0.82671  0.17238  1.0000
  H   H280      1.0  0.32283  0.76891  0.94027  1.0000
  H   H281      1.0  0.30682  0.76723  0.94518  1.0000
  H   H282      1.0  0.51032  0.06822  0.98200  1.0000
  S   S70       1.0  0.49348  0.02947  0.02298  1.0000
  H   H283      1.0  0.47933  0.05614  0.06544  1.0000
  H   H284      1.0  0.49140  0.07526  0.86447  1.0000
  N   N18       1.0  0.49709  0.06961  0.03959  1.0000
  H   H285      1.0  0.49301  0.07670  0.97587  1.0000
  H   H286      1.0  0.49191  0.04986  0.06996  1.0000
  H   H287      1.0  0.50166  0.09280  0.79482  1.0000
  S   S71       1.0  0.49922  0.05697  0.91725  1.0000
  H   H288      1.0  0.50296  0.08184  0.07973  1.0000
  C   C177      1.0  0.50109  0.07714  0.84869  1.0000
  H   H289      1.0  0.50803  0.05144  0.19303  1.0000
  S   S72       1.0  0.50871  0.04079  0.11623  1.0000
  Fe  Fe36      1.0  0.50614  0.04198  0.95444  1.0000
  C   C178      1.0  0.50975  0.07026  0.01610  1.0000
  C   C179      1.0  0.48897  0.05699  0.04779  1.0000
  H   H290      1.0  0.48899  0.05452  0.01469  1.0000
  Fe  Fe37      1.0  0.51000  0.03466  0.04972  1.0000
  H   H291      1.0  0.49993  0.06562  0.10742  1.0000
  H   H292      1.0  0.48741  0.07206  0.10321  1.0000
  H   H293      1.0  0.49879  0.08834  0.00283  1.0000
  C   C180      1.0  0.49286  0.07870  0.00993  1.0000
  C   C181      1.0  0.50757  0.06942  0.86736  1.0000
  C   C182      1.0  0.49682  0.07244  0.08442  1.0000
  H   H294      1.0  0.48330  0.07844  0.02639  1.0000
  C   C183      1.0  0.50693  0.08712  0.80911  1.0000
  H   H295      1.0  0.38275  0.50004  0.74416  1.0000
  C   C184      1.0  0.43407  0.51014  0.71000  1.0000
  H   H296      1.0  0.36137  0.51250  0.32923  1.0000
  H   H297      1.0  0.49580  0.40693  0.90753  1.0000
  H   H298      1.0  0.43068  0.50368  0.21246  1.0000
  H   H299      1.0  0.47768  0.50490  0.98801  1.0000
  C   C185      1.0  0.39219  0.50056  0.74740  1.0000
  C   C186      1.0  0.45153  0.50454  0.15376  1.0000
  H   H300      1.0  0.39534  0.49336  0.73302  1.0000
  C   C187      1.0  0.47893  0.39870  0.83555  1.0000
  Fe  Fe38      1.0  0.45596  0.49230  0.94695  1.0000
  H   H301      1.0  0.48276  0.41159  0.89727  1.0000
  S   S73       1.0  0.44008  0.49166  0.00565  1.0000
  Fe  Fe39      1.0  0.46923  0.47865  0.88653  1.0000
  S   S74       1.0  0.48273  0.49657  0.84024  1.0000
  S   S75       1.0  0.47253  0.46167  0.86523  1.0000
  Fe  Fe40      1.0  0.48343  0.50125  0.90674  1.0000
  H   H302      1.0  0.40641  0.49921  0.83331  1.0000
  Fe  Fe41      1.0  0.46647  0.50415  0.84336  1.0000
  C   C188      1.0  0.50975  0.47377  0.85183  1.0000
  S   S76       1.0  0.47085  0.48299  0.95306  1.0000
  S   S77       1.0  0.45279  0.48596  0.88480  1.0000
  H   H303      1.0  0.50131  0.41284  0.78050  1.0000
  H   H304      1.0  0.38873  0.50820  0.84909  1.0000
  S   S78       1.0  0.49779  0.42409  0.96442  1.0000
  H   H305      1.0  0.42080  0.51539  0.40658  1.0000
  N   N19       1.0  0.49034  0.40229  0.84936  1.0000
  H   H306      1.0  0.47213  0.50777  0.06591  1.0000
  C   C189      1.0  0.38488  0.48677  0.82474  1.0000
  H   H307      1.0  0.49916  0.39094  0.81473  1.0000
  H   H308      1.0  0.47407  0.40601  0.83495  1.0000
  H   H309      1.0  0.46299  0.50811  0.21882  1.0000
  C   C190      1.0  0.49856  0.41398  0.81595  1.0000
  H   H310      1.0  0.50718  0.41701  0.82576  1.0000
  H   H311      1.0  0.49056  0.38336  0.87419  1.0000
  H   H312      1.0  0.47251  0.38992  0.86002  1.0000
  H   H313      1.0  0.49419  0.42165  0.81405  1.0000
  C   C191      1.0  0.47975  0.45162  0.89369  1.0000
  C   C192      1.0  0.48737  0.44631  0.86732  1.0000
  C   C193      1.0  0.49323  0.43821  0.88853  1.0000
  C   C194      1.0  0.49109  0.43485  0.93664  1.0000
  C   C195      1.0  0.48327  0.43996  0.96318  1.0000
  C   C196      1.0  0.47783  0.44852  0.94173  1.0000
  H   H314      1.0  0.48882  0.44860  0.83020  1.0000
  H   H315      1.0  0.37886  0.50833  0.81128  1.0000
  H   H316      1.0  0.48148  0.43734  0.00046  1.0000
  H   H317      1.0  0.47184  0.45242  0.96247  1.0000
  C   C197      1.0  0.40557  0.50043  0.79738  1.0000
  H   H318      1.0  0.40923  0.49344  0.78331  1.0000
  C   C198      1.0  0.49710  0.51002  0.98059  1.0000
  H   H319      1.0  0.49913  0.43431  0.86773  1.0000
  C   C199      1.0  0.43693  0.50033  0.73731  1.0000
  C   C200      1.0  0.44573  0.50272  0.76186  1.0000
  H   H320      1.0  0.39824  0.50970  0.72477  1.0000
  H   H321      1.0  0.38793  0.47923  0.81256  1.0000
  H   H322      1.0  0.45220  0.51450  0.24978  1.0000
  H   H323      1.0  0.43243  0.49083  0.73914  1.0000
  H   H324      1.0  0.44800  0.49509  0.78226  1.0000
  H   H325      1.0  0.44740  0.49882  0.24605  1.0000
  H   H326      1.0  0.37518  0.48552  0.82383  1.0000
  C   C201      1.0  0.50625  0.51365  0.00202  1.0000
  H   H327      1.0  0.44547  0.49492  0.17094  1.0000
  N   N20       1.0  0.39276  0.49916  0.79566  1.0000
  H   H328      1.0  0.50161  0.46242  0.94299  1.0000
  S   S79       1.0  0.42293  0.50684  0.67973  1.0000
  H   H329      1.0  0.49982  0.47272  0.86570  1.0000
  H   H330      1.0  0.38507  0.48539  0.86149  1.0000
  S   S80       1.0  0.46878  0.51085  0.90527  1.0000
  C   C202      1.0  0.42987  0.50538  0.05735  1.0000
  C   C203      1.0  0.44052  0.50470  0.02771  1.0000
  H   H331      1.0  0.48085  0.39727  0.80035  1.0000
  H   H332      1.0  0.48126  0.39552  0.92243  1.0000
  H   H333      1.0  0.42160  0.51636  0.09642  1.0000
  H   H334      1.0  0.42153  0.49783  0.06685  1.0000
  C   C204      1.0  0.48739  0.40414  0.89611  1.0000
  H   H335      1.0  0.50510  0.39476  0.86034  1.0000
  H   H336      1.0  0.41172  0.50974  0.77599  1.0000
  C   C205      1.0  0.38845  0.50892  0.81274  1.0000
  S   S81       1.0  0.50100  0.50888  0.92368  1.0000
  C   C206      1.0  0.49650  0.39237  0.84974  1.0000
  H   H337      1.0  0.46113  0.50400  0.14514  1.0000
  C   C207      1.0  0.48165  0.50933  0.04854  1.0000
  C   C208      1.0  0.42990  0.51586  0.07416  1.0000
  N   N21       1.0  0.44995  0.51293  0.18348  1.0000
  C   C209      1.0  0.48481  0.50774  0.00413  1.0000
  H   H338      1.0  0.37189  0.51155  0.39220  1.0000
  C   C210      1.0  0.45327  0.50839  0.22650  1.0000
  H   H339      1.0  0.50488  0.48499  0.91887  1.0000
  C   C211      1.0  0.45128  0.51444  0.01603  1.0000
  C   C212      1.0  0.43704  0.51315  0.19497  1.0000
  H   H340      1.0  0.44936  0.50779  0.12049  1.0000
  C   C213      1.0  0.50310  0.51541  0.04629  1.0000
  H   H341      1.0  0.51052  0.46543  0.83993  1.0000
  H   H342      1.0  0.45963  0.51388  0.99455  1.0000
  C   C214      1.0  0.49079  0.51334  0.06943  1.0000
  S   S82       1.0  0.48683  0.51638  0.12328  1.0000
  C   C215      1.0  0.45187  0.51496  0.75866  1.0000
  H   H343      1.0  0.38326  0.51294  0.31261  1.0000
  H   H344      1.0  0.43440  0.51689  0.16327  1.0000
  N   N22       1.0  0.39203  0.71544  0.11572  1.0000
  C   C216      1.0  0.47506  0.75522  0.90949  1.0000
  H   H345      1.0  0.42574  0.63911  0.86819  1.0000
  H   H346      1.0  0.49044  0.63386  0.64921  1.0000
  C   C217      1.0  0.40045  0.54867  0.87681  1.0000
  Fe  Fe42      1.0  0.44946  0.75454  0.09835  1.0000
  S   S83       1.0  0.45524  0.73709  0.09143  1.0000
  H   H347      1.0  0.39948  0.72060  0.16951  1.0000
  C   C218      1.0  0.40091  0.72379  0.13145  1.0000
  C   C219      1.0  0.44177  0.52425  0.87489  1.0000
  H   H348      1.0  0.40288  0.70267  0.11047  1.0000
  S   S84       1.0  0.36909  0.57831  0.92559  1.0000
  H   H349      1.0  0.36069  0.53152  0.81088  1.0000
  Fe  Fe43      1.0  0.35659  0.58911  0.94969  1.0000
  S   S85       1.0  0.36372  0.60881  0.95474  1.0000
  S   S86       1.0  0.36903  0.57593  0.80577  1.0000
  Fe  Fe44      1.0  0.43661  0.65589  0.97687  1.0000
  S   S87       1.0  0.43089  0.63759  0.02933  1.0000
  S   S88       1.0  0.44310  0.65541  0.90276  1.0000
  Fe  Fe45      1.0  0.42854  0.66912  0.04889  1.0000
  S   S89       1.0  0.42193  0.65123  0.10742  1.0000
  S   S90       1.0  0.42484  0.68766  0.05545  1.0000
  Fe  Fe46      1.0  0.43948  0.64765  0.07457  1.0000
  S   S91       1.0  0.44948  0.63523  0.10953  1.0000
  Fe  Fe47      1.0  0.41381  0.64215  0.05837  1.0000
  S   S92       1.0  0.39737  0.62485  0.08299  1.0000
  S   S93       1.0  0.44673  0.66597  0.01889  1.0000
  S   S94       1.0  0.41888  0.66006  0.00254  1.0000
  Fe  Fe48      1.0  0.47314  0.61950  0.32770  1.0000
  S   S95       1.0  0.47606  0.60365  0.30009  1.0000
  S   S96       1.0  0.47039  0.63667  0.28392  1.0000
  Fe  Fe49      1.0  0.47477  0.60664  0.42508  1.0000
  S   S97       1.0  0.47813  0.58994  0.40305  1.0000
  S   S98       1.0  0.46808  0.60648  0.50049  1.0000
  Fe  Fe50      1.0  0.49062  0.60380  0.33705  1.0000
  Fe  Fe51      1.0  0.46340  0.59155  0.36777  1.0000
  S   S99       1.0  0.44825  0.57495  0.37360  1.0000
  S   S100      1.0  0.48853  0.62055  0.36166  1.0000
  S   S101      1.0  0.45921  0.60730  0.39271  1.0000
  H   H350      1.0  0.38698  0.69624  0.11555  1.0000
  C   C220      1.0  0.39427  0.72010  0.06510  1.0000
  C   C221      1.0  0.50834  0.58947  0.27643  1.0000
  H   H351      1.0  0.43106  0.60539  0.19667  1.0000
  H   H352      1.0  0.49657  0.54763  0.90669  1.0000
  Fe  Fe52      1.0  0.42591  0.56215  0.18248  1.0000
  S   S102      1.0  0.43581  0.58124  0.18233  1.0000
  S   S103      1.0  0.40888  0.55113  0.23823  1.0000
  Fe  Fe53      1.0  0.46944  0.60301  0.83886  1.0000
  S   S104      1.0  0.48578  0.59735  0.80764  1.0000
  S   S105      1.0  0.47283  0.61624  0.88203  1.0000
  Fe  Fe54      1.0  0.45203  0.58344  0.81358  1.0000
  S   S106      1.0  0.46691  0.57598  0.78158  1.0000
  S   S107      1.0  0.43258  0.57401  0.81761  1.0000
  Fe  Fe55      1.0  0.47390  0.57796  0.84304  1.0000
  Fe  Fe56      1.0  0.47728  0.59611  0.74874  1.0000
  S   S108      1.0  0.48974  0.60301  0.67506  1.0000
  S   S109      1.0  0.45806  0.58360  0.87773  1.0000
  S   S110      1.0  0.46188  0.60357  0.77715  1.0000
  H   H353      1.0  0.45453  0.54640  0.92194  1.0000
  H   H354      1.0  0.38779  0.71397  0.05198  1.0000
  H   H355      1.0  0.49886  0.61905  0.21871  1.0000
  S   S111      1.0  0.43452  0.56819  0.61757  1.0000
  C   C222      1.0  0.36410  0.55090  0.80928  1.0000
  C   C223      1.0  0.39347  0.70278  0.12726  1.0000
  C   C224      1.0  0.38346  0.54117  0.10114  1.0000
  C   C225      1.0  0.49742  0.57313  0.99645  1.0000
  Fe  Fe57      1.0  0.35765  0.57404  0.87793  1.0000
  H   H356      1.0  0.39335  0.60888  0.93553  1.0000
  H   H357      1.0  0.40315  0.59192  0.23906  1.0000
  N   N23       1.0  0.40878  0.62446  0.89493  1.0000
  C   C226      1.0  0.43253  0.57324  0.76137  1.0000
  C   C227      1.0  0.42221  0.56614  0.75291  1.0000
  C   C228      1.0  0.42258  0.56495  0.70825  1.0000
  C   C229      1.0  0.43331  0.57076  0.67220  1.0000
  C   C230      1.0  0.44344  0.57819  0.68038  1.0000
  C   C231      1.0  0.44307  0.57943  0.72484  1.0000
  H   H358      1.0  0.41400  0.56146  0.78066  1.0000
  H   H359      1.0  0.41454  0.55959  0.70175  1.0000
  H   H360      1.0  0.45169  0.58274  0.65259  1.0000
  H   H361      1.0  0.45099  0.58514  0.73070  1.0000
  H   H362      1.0  0.38912  0.57334  0.85236  1.0000
  H   H363      1.0  0.49098  0.55355  0.03153  1.0000
  H   H364      1.0  0.50818  0.63062  0.67594  1.0000
  H   H365      1.0  0.40005  0.73341  0.12340  1.0000
  C   C232      1.0  0.47469  0.60616  0.54746  1.0000
  C   C233      1.0  0.46712  0.60514  0.59103  1.0000
  C   C234      1.0  0.47163  0.60420  0.63024  1.0000
  C   C235      1.0  0.48384  0.60440  0.62620  1.0000
  C   C236      1.0  0.49153  0.60573  0.58241  1.0000
  C   C237      1.0  0.48696  0.60648  0.54321  1.0000
  H   H366      1.0  0.45762  0.60490  0.59466  1.0000
  H   H367      1.0  0.46563  0.60330  0.66355  1.0000
  H   H368      1.0  0.50104  0.60601  0.57887  1.0000
  H   H369      1.0  0.49290  0.60734  0.50980  1.0000
  C   C238      1.0  0.44313  0.57722  0.32381  1.0000
  C   C239      1.0  0.44669  0.58896  0.29205  1.0000
  C   C240      1.0  0.44422  0.59027  0.24886  1.0000
  C   C241      1.0  0.43809  0.57988  0.23762  1.0000
  C   C242      1.0  0.43409  0.56825  0.27038  1.0000
  C   C243      1.0  0.43642  0.56696  0.31364  1.0000
  H   H370      1.0  0.45141  0.59703  0.30054  1.0000
  H   H371      1.0  0.44730  0.59928  0.22397  1.0000
  H   H372      1.0  0.42956  0.56010  0.26226  1.0000
  H   H373      1.0  0.43351  0.55789  0.33837  1.0000
  C   C244      1.0  0.45129  0.64446  0.89693  1.0000
  C   C245      1.0  0.45235  0.63991  0.85780  1.0000
  C   C246      1.0  0.45851  0.63084  0.85364  1.0000
  C   C247      1.0  0.46407  0.62670  0.88770  1.0000
  C   C248      1.0  0.46318  0.63139  0.92633  1.0000
  C   C249      1.0  0.45665  0.64010  0.93130  1.0000
  H   H374      1.0  0.44834  0.64336  0.83087  1.0000
  H   H375      1.0  0.45919  0.62727  0.82370  1.0000
  H   H376      1.0  0.46756  0.62833  0.95255  1.0000
  H   H377      1.0  0.45603  0.64368  0.96125  1.0000
  C   C250      1.0  0.45480  0.63587  0.15889  1.0000
  C   C251      1.0  0.45573  0.64610  0.17705  1.0000
  C   C252      1.0  0.46042  0.64620  0.21568  1.0000
  C   C253      1.0  0.46388  0.63597  0.23711  1.0000
  C   C254      1.0  0.46264  0.62564  0.21951  1.0000
  C   C255      1.0  0.45835  0.62572  0.18009  1.0000
  H   H378      1.0  0.45307  0.65401  0.16083  1.0000
  H   H379      1.0  0.46136  0.65424  0.22901  1.0000
  H   H380      1.0  0.46515  0.61766  0.23572  1.0000
  H   H381      1.0  0.45778  0.61787  0.16576  1.0000
  C   C256      1.0  0.37145  0.56303  0.78631  1.0000
  C   C257      1.0  0.36650  0.54086  0.79320  1.0000
  C   C258      1.0  0.37627  0.54287  0.75416  1.0000
  C   C259      1.0  0.38364  0.55500  0.73132  1.0000
  C   C260      1.0  0.38117  0.56503  0.74711  1.0000
  S   S112      1.0  0.46348  0.51850  0.78659  1.0000
  C   C261      1.0  0.41518  0.52955  0.36517  1.0000
  H   H382      1.0  0.41350  0.58819  0.19574  1.0000
  C   C262      1.0  0.37944  0.71510  0.13905  1.0000
  C   C263      1.0  0.46024  0.55076  0.31366  1.0000
  C   C264      1.0  0.36965  0.55240  0.12944  1.0000
  C   C265      1.0  0.36554  0.55332  0.08929  1.0000
  H   H383      1.0  0.36582  0.55635  0.15599  1.0000
  H   H384      1.0  0.35855  0.55791  0.08509  1.0000
  C   C266      1.0  0.37256  0.61295  0.99242  1.0000
  C   C267      1.0  0.37775  0.62561  0.98766  1.0000
  C   C268      1.0  0.38552  0.62937  0.01461  1.0000
  C   C269      1.0  0.38785  0.62049  0.04776  1.0000
  C   C270      1.0  0.38234  0.60781  0.05362  1.0000
  C   C271      1.0  0.37487  0.60404  0.02563  1.0000
  H   H385      1.0  0.37588  0.63257  0.96254  1.0000
  H   H386      1.0  0.38951  0.63915  0.01034  1.0000
  H   H387      1.0  0.38398  0.60086  0.07953  1.0000
  H   H388      1.0  0.37087  0.59426  0.02996  1.0000
  C   C272      1.0  0.44671  0.72345  0.08097  1.0000
  C   C273      1.0  0.45115  0.71296  0.08479  1.0000
  C   C274      1.0  0.44472  0.70199  0.07658  1.0000
  C   C275      1.0  0.43378  0.70140  0.06406  1.0000
  C   C276      1.0  0.42951  0.71200  0.05920  1.0000
  C   C277      1.0  0.43587  0.72293  0.06774  1.0000
  H   H389      1.0  0.45955  0.71325  0.09475  1.0000
  H   H390      1.0  0.44817  0.69396  0.08044  1.0000
  H   H391      1.0  0.42127  0.71178  0.04826  1.0000
  H   H392      1.0  0.43246  0.73098  0.06371  1.0000
  S   S113      1.0  0.37912  0.53004  0.73513  1.0000
  C   C278      1.0  0.50558  0.56726  0.30271  1.0000
  H   H393      1.0  0.37248  0.70907  0.12743  1.0000
  H   H394      1.0  0.40374  0.72070  0.04626  1.0000
  Fe  Fe58      1.0  0.50108  0.53327  0.12213  1.0000
  H   H395      1.0  0.47280  0.74490  0.91851  1.0000
  S   S114      1.0  0.38295  0.54440  0.18755  1.0000
  H   H396      1.0  0.39180  0.69896  0.16521  1.0000
  H   H397      1.0  0.41023  0.55401  0.86931  1.0000
  N   N24       1.0  0.42739  0.58107  0.48769  1.0000
  C   C279      1.0  0.42003  0.58308  0.52935  1.0000
  C   C280      1.0  0.42200  0.56844  0.48450  1.0000
  C   C281      1.0  0.44007  0.58239  0.49090  1.0000
  C   C282      1.0  0.42745  0.59034  0.44605  1.0000
  H   H398      1.0  0.41977  0.57621  0.56135  1.0000
  H   H399      1.0  0.41038  0.58212  0.52827  1.0000
  H   H400      1.0  0.42393  0.59247  0.53313  1.0000
  H   H401      1.0  0.42720  0.56659  0.45323  1.0000
  H   H402      1.0  0.42195  0.56118  0.51498  1.0000
  H   H403      1.0  0.41236  0.56701  0.48270  1.0000
  H   H404      1.0  0.44596  0.58119  0.45968  1.0000
  H   H405      1.0  0.44037  0.57531  0.52115  1.0000
  H   H406      1.0  0.44433  0.59168  0.49480  1.0000
  H   H407      1.0  0.41801  0.58962  0.44275  1.0000
  H   H408      1.0  0.43284  0.58898  0.41398  1.0000
  H   H409      1.0  0.43160  0.59997  0.44705  1.0000
  N   N25       1.0  0.49400  0.63698  0.71234  1.0000
  H   H410      1.0  0.37296  0.55472  0.90137  1.0000
  H   H411      1.0  0.48868  0.75904  0.96844  1.0000
  C   C283      1.0  0.37903  0.54168  0.06191  1.0000
  H   H412      1.0  0.49527  0.62681  0.16810  1.0000
  H   H413      1.0  0.45926  0.56931  0.54278  1.0000
  S   S115      1.0  0.36424  0.54736  0.00755  1.0000
  S   S116      1.0  0.47892  0.56274  0.88787  1.0000
  H   H414      1.0  0.42925  0.62061  0.19196  1.0000
  H   H415      1.0  0.40174  0.61680  0.96849  1.0000
  Fe  Fe59      1.0  0.34745  0.76578  0.98149  1.0000
  H   H416      1.0  0.48463  0.57658  0.26842  1.0000
  H   H417      1.0  0.41052  0.72432  0.11448  1.0000
  H   H418      1.0  0.45419  0.56043  0.64865  1.0000
  H   H419      1.0  0.40802  0.60687  0.93909  1.0000
  H   H420      1.0  0.44745  0.57433  0.09158  1.0000
  C   C284      1.0  0.46557  0.57427  0.55971  1.0000
  C   C285      1.0  0.41344  0.52636  0.44807  1.0000
  C   C286      1.0  0.46585  0.56578  0.23874  1.0000
  H   H421      1.0  0.46068  0.55873  0.22486  1.0000
  H   H422      1.0  0.35651  0.54925  0.83919  1.0000
  Fe  Fe60      1.0  0.35535  0.56161  0.97763  1.0000
  H   H423      1.0  0.45383  0.55532  0.33055  1.0000
  C   C287      1.0  0.40270  0.61376  0.93627  1.0000
  C   C288      1.0  0.45051  0.57671  0.05310  1.0000
  H   H424      1.0  0.44329  0.57995  0.03976  1.0000
  H   H425      1.0  0.45087  0.56794  0.04359  1.0000
  H   H426      1.0  0.50203  0.59204  0.95477  1.0000
  H   H427      1.0  0.44021  0.52394  0.84062  1.0000
  H   H428      1.0  0.39181  0.55266  0.95865  1.0000
  H   H429      1.0  0.42059  0.60815  0.24271  1.0000
  H   H430      1.0  0.40000  0.59168  0.18438  1.0000
  H   H431      1.0  0.45484  0.54371  0.30037  1.0000
  H   H432      1.0  0.45867  0.59571  0.08671  1.0000
  C   C289      1.0  0.45947  0.55613  0.62545  1.0000
  H   H433      1.0  0.46247  0.54908  0.64765  1.0000
  H   H434      1.0  0.50100  0.53372  0.90922  1.0000
  H   H435      1.0  0.47150  0.55400  0.54438  1.0000
  N   N26       1.0  0.47051  0.55994  0.27639  1.0000
  C   C290      1.0  0.47664  0.56964  0.29526  1.0000
  H   H436      1.0  0.38241  0.53715  0.03663  1.0000
  H   H437      1.0  0.48003  0.54814  0.97440  1.0000
  C   C291      1.0  0.42421  0.61053  0.20448  1.0000
  C   C292      1.0  0.40742  0.59424  0.20120  1.0000
  H   H438      1.0  0.42604  0.60438  0.12418  1.0000
  N   N27       1.0  0.46252  0.58627  0.03432  1.0000
  C   C293      1.0  0.46161  0.59763  0.04831  1.0000
  H   H439      1.0  0.45481  0.60159  0.03446  1.0000
  H   H440      1.0  0.46943  0.57928  0.09105  1.0000
  N   N28       1.0  0.47001  0.56560  0.59030  1.0000
  C   C294      1.0  0.47719  0.55939  0.56227  1.0000
  H   H441      1.0  0.42027  0.63416  0.92991  1.0000
  H   H442      1.0  0.37735  0.71160  0.17731  1.0000
  H   H443      1.0  0.37807  0.72452  0.13124  1.0000
  H   H444      1.0  0.42697  0.62455  0.89985  1.0000
  C   C295      1.0  0.42096  0.63080  0.89828  1.0000
  C   C296      1.0  0.37957  0.54092  0.32171  1.0000
  C   C297      1.0  0.47179  0.58147  0.05266  1.0000
  H   H445      1.0  0.47257  0.57280  0.04316  1.0000
  H   H446      1.0  0.48519  0.56627  0.53524  1.0000
  H   H447      1.0  0.47271  0.57754  0.63459  1.0000
  H   H448      1.0  0.45297  0.55114  0.60917  1.0000
  H   H449      1.0  0.38280  0.75411  0.18774  1.0000
  Fe  Fe61      1.0  0.39538  0.53374  0.67352  1.0000
  H   H450      1.0  0.40106  0.61523  0.84954  1.0000
  N   N29       1.0  0.41433  0.60753  0.18194  1.0000
  C   C298      1.0  0.41015  0.62002  0.85298  1.0000
  C   C299      1.0  0.47937  0.55363  0.25793  1.0000
  H   H451      1.0  0.47055  0.60500  0.03511  1.0000
  H   H452      1.0  0.48105  0.58832  0.03866  1.0000
  H   H453      1.0  0.48075  0.55280  0.58414  1.0000
  H   H454      1.0  0.46357  0.54575  0.34138  1.0000
  C   C300      1.0  0.47783  0.57260  0.61366  1.0000
  H   H455      1.0  0.40240  0.55016  0.40736  1.0000
  H   H456      1.0  0.48592  0.57976  0.58820  1.0000
  H   H457      1.0  0.40354  0.56638  0.92154  1.0000
  H   H458      1.0  0.45355  0.53426  0.72936  1.0000
  C   C301      1.0  0.41977  0.61014  0.13170  1.0000
  C   C302      1.0  0.40284  0.75861  0.08369  1.0000
  C   C303      1.0  0.38611  0.75429  0.15195  1.0000
  H   H459      1.0  0.44157  0.53291  0.94853  1.0000
  H   H460      1.0  0.49316  0.63813  0.78199  1.0000
  C   C304      1.0  0.46616  0.58923  0.98325  1.0000
  H   H461      1.0  0.45949  0.59308  0.96803  1.0000
  H   H462      1.0  0.46680  0.58084  0.97145  1.0000
  C   C305      1.0  0.48512  0.56699  0.93147  1.0000
  H   H463      1.0  0.50194  0.57880  0.34791  1.0000
  H   H464      1.0  0.41477  0.62786  0.82113  1.0000
  H   H465      1.0  0.41261  0.60839  0.11308  1.0000
  H   H466      1.0  0.39825  0.61302  0.17432  1.0000
  H   H467      1.0  0.39934  0.54528  0.84621  1.0000
  N   N30       1.0  0.44818  0.53698  0.87438  1.0000
  H   H468      1.0  0.48042  0.62276  0.70068  1.0000
  H   H469      1.0  0.48126  0.56636  0.63747  1.0000
  H   H470      1.0  0.40487  0.57316  0.83809  1.0000
  C   C306      1.0  0.44060  0.52574  0.06120  1.0000
  H   H471      1.0  0.39300  0.72953  0.05534  1.0000
  S   S117      1.0  0.40253  0.54005  0.50036  1.0000
  H   H472      1.0  0.50310  0.55887  0.33082  1.0000
  C   C307      1.0  0.37006  0.54774  0.05585  1.0000
  H   H473      1.0  0.45965  0.53248  0.02271  1.0000
  Fe  Fe62      1.0  0.40685  0.53606  0.57033  1.0000
  C   C308      1.0  0.48483  0.55773  0.97003  1.0000
  C   C309      1.0  0.40596  0.61523  0.19009  1.0000
  C   C310      1.0  0.47861  0.75534  0.98400  1.0000
  H   H474      1.0  0.46516  0.55095  0.83718  1.0000
  H   H475      1.0  0.49129  0.58661  0.89717  1.0000
  S   S118      1.0  0.40277  0.54983  0.60968  1.0000
  H   H476      1.0  0.43161  0.54238  0.88990  1.0000
  S   S119      1.0  0.42572  0.53791  0.58038  1.0000
  H   H477      1.0  0.47526  0.59632  0.96786  1.0000
  C   C311      1.0  0.43998  0.52239  0.70778  1.0000
  C   C312      1.0  0.46007  0.54140  0.83870  1.0000
  H   H478      1.0  0.42527  0.62002  0.11658  1.0000
  H   H479      1.0  0.48692  0.62657  0.22443  1.0000
  H   H480      1.0  0.40542  0.64122  0.86056  1.0000
  C   C313      1.0  0.37459  0.52189  0.38254  1.0000
  Fe  Fe63      1.0  0.41634  0.52273  0.64686  1.0000
  Fe  Fe64      1.0  0.42091  0.55043  0.62344  1.0000
  H   H481      1.0  0.41573  0.61333  0.85383  1.0000
  C   C314      1.0  0.48704  0.63513  0.76066  1.0000
  C   C315      1.0  0.40133  0.63327  0.89232  1.0000
  H   H482      1.0  0.40067  0.63728  0.92233  1.0000
  S   S120      1.0  0.44230  0.75952  0.16428  1.0000
  H   H483      1.0  0.40197  0.61382  0.22766  1.0000
  C   C316      1.0  0.37860  0.54630  0.13548  1.0000
  H   H484      1.0  0.39117  0.55668  0.70118  1.0000
  C   C317      1.0  0.50948  0.56679  0.25689  1.0000
  C   C318      1.0  0.39523  0.56734  0.84630  1.0000
  C   C319      1.0  0.38193  0.74953  0.08260  1.0000
  S   S121      1.0  0.43565  0.76014  0.06427  1.0000
  Fe  Fe65      1.0  0.42701  0.54100  0.13925  1.0000
  H   H485      1.0  0.38831  0.54459  0.32986  1.0000
  H   H486      1.0  0.48016  0.64044  0.76254  1.0000
  C   C320      1.0  0.49103  0.56077  0.00236  1.0000
  H   H487      1.0  0.45960  0.57110  0.25102  1.0000
  H   H488      1.0  0.41080  0.62531  0.17435  1.0000
  H   H489      1.0  0.38687  0.57439  0.72899  1.0000
  H   H490      1.0  0.37663  0.54106  0.92752  1.0000
  H   H491      1.0  0.50590  0.65202  0.65455  1.0000
  C   C321      1.0  0.49717  0.58246  0.95923  1.0000
  S   S122      1.0  0.49637  0.54926  0.14468  1.0000
  H   H492      1.0  0.45299  0.75754  0.95067  1.0000
  C   C322      1.0  0.44065  0.54539  0.86365  1.0000
  H   H493      1.0  0.39182  0.62866  0.89222  1.0000
  C   C323      1.0  0.40645  0.54258  0.40732  1.0000
  C   C324      1.0  0.40807  0.53606  0.44875  1.0000
  H   H494      1.0  0.40900  0.54473  0.33424  1.0000
  H   H495      1.0  0.36802  0.74650  0.14565  1.0000
  H   H496      1.0  0.47347  0.57243  0.20953  1.0000
  C   C325      1.0  0.50488  0.57853  0.31245  1.0000
  S   S123      1.0  0.50970  0.55231  0.24637  1.0000
  C   C326      1.0  0.36433  0.52280  0.32167  1.0000
  N   N31       1.0  0.47179  0.75953  0.95114  1.0000
  H   H497      1.0  0.48723  0.56027  0.22957  1.0000
  C   C327      1.0  0.45026  0.53687  0.92021  1.0000
  H   H498      1.0  0.44526  0.55507  0.86300  1.0000
  H   H499      1.0  0.43786  0.53002  0.68689  1.0000
  S   S124      1.0  0.37190  0.74172  0.05579  1.0000
  H   H500      1.0  0.37247  0.54422  0.34175  1.0000
  H   H501      1.0  0.39025  0.53633  0.10577  1.0000
  C   C328      1.0  0.37771  0.74998  0.12812  1.0000
  Fe  Fe66      1.0  0.41788  0.53589  0.24503  1.0000
  S   S125      1.0  0.41334  0.53555  0.69029  1.0000
  H   H502      1.0  0.37798  0.54521  0.86660  1.0000
  H   H503      1.0  0.49667  0.63916  0.26969  1.0000
  S   S126      1.0  0.41880  0.55688  0.12533  1.0000
  C   C329      1.0  0.50110  0.64968  0.17947  1.0000
  H   H504      1.0  0.35684  0.52562  0.34193  1.0000
  N   N32       1.0  0.39226  0.55643  0.88666  1.0000
  C   C330      1.0  0.41009  0.53944  0.36577  1.0000
  H   H505      1.0  0.47326  0.58135  0.53197  1.0000
  S   S127      1.0  0.34615  0.58650  0.89688  1.0000
  H   H506      1.0  0.47620  0.74500  0.99572  1.0000
  H   H507      1.0  0.50756  0.65868  0.17734  1.0000
  S   S128      1.0  0.44115  0.53926  0.08001  1.0000
  H   H508      1.0  0.48330  0.54934  0.28515  1.0000
  H   H509      1.0  0.43899  0.54580  0.82907  1.0000
  H   H510      1.0  0.50964  0.63267  0.73125  1.0000
  H   H511      1.0  0.39845  0.54040  0.90675  1.0000
  C   C331      1.0  0.39873  0.75840  0.13007  1.0000
  S   S129      1.0  0.43543  0.54741  0.19229  1.0000
  H   H512      1.0  0.48000  0.56556  0.32457  1.0000
  Fe  Fe67      1.0  0.35568  0.74916  0.05234  1.0000
  C   C332      1.0  0.49106  0.57940  0.92670  1.0000
  H   H513      1.0  0.45655  0.53124  0.92796  1.0000
  C   C333      1.0  0.50568  0.63932  0.24791  1.0000
  C   C334      1.0  0.44889  0.52477  0.73180  1.0000
  H   H514      1.0  0.47030  0.57478  0.30855  1.0000
  H   H515      1.0  0.39401  0.56448  0.81487  1.0000
  H   H516      1.0  0.46045  0.57946  0.57927  1.0000
  H   H517      1.0  0.47506  0.54615  0.24381  1.0000
  H   H518      1.0  0.49404  0.65606  0.69081  1.0000
  Fe  Fe68      1.0  0.40247  0.54422  0.18228  1.0000
  S   S130      1.0  0.50804  0.60379  0.28823  1.0000
  H   H519      1.0  0.36519  0.52673  0.28423  1.0000
  H   H520      1.0  0.46606  0.53535  0.84583  1.0000
  H   H521      1.0  0.38332  0.52501  0.39177  1.0000
  C   C335      1.0  0.45851  0.75424  0.97350  1.0000
  H   H522      1.0  0.45657  0.52891  0.12414  1.0000
  S   S131      1.0  0.41911  0.52485  0.31382  1.0000
  C   C336      1.0  0.49615  0.62733  0.20299  1.0000
  C   C337      1.0  0.39397  0.56066  0.92758  1.0000
  C   C338      1.0  0.38560  0.52324  0.30499  1.0000
  H   H523      1.0  0.50828  0.63117  0.26551  1.0000
  H   H524      1.0  0.48203  0.62518  0.77792  1.0000
  C   C339      1.0  0.48548  0.63278  0.68569  1.0000
  H   H525      1.0  0.47857  0.63805  0.68510  1.0000
  H   H526      1.0  0.38687  0.52703  0.26725  1.0000
  S   S132      1.0  0.41014  0.52777  0.19302  1.0000
  C   C340      1.0  0.45129  0.52495  0.03236  1.0000
  Fe  Fe69      1.0  0.51016  0.56115  0.07871  1.0000
  C   C341      1.0  0.45800  0.52562  0.15872  1.0000
  H   H527      1.0  0.49833  0.61962  0.72810  1.0000
  H   H528      1.0  0.45889  0.54149  0.80369  1.0000
  H   H529      1.0  0.38775  0.56632  0.93668  1.0000
  C   C342      1.0  0.50055  0.65030  0.69104  1.0000
  C   C343      1.0  0.50252  0.54235  0.92059  1.0000
  S   S133      1.0  0.40914  0.76259  0.16208  1.0000
  C   C344      1.0  0.37942  0.54903  0.89591  1.0000
  N   N33       1.0  0.37601  0.52720  0.33279  1.0000
  H   H530      1.0  0.45591  0.75696  0.00582  1.0000
  C   C345      1.0  0.50296  0.62970  0.71190  1.0000
  H   H531      1.0  0.44726  0.51771  0.88278  1.0000
  H   H532      1.0  0.50041  0.64971  0.14390  1.0000
  C   C346      1.0  0.41688  0.52306  0.40652  1.0000
  H   H533      1.0  0.46784  0.52600  0.15258  1.0000
  H   H534      1.0  0.43541  0.51909  0.21855  1.0000
  H   H535      1.0  0.51019  0.51838  0.06254  1.0000
  H   H536      1.0  0.38083  0.54523  0.28427  1.0000
  H   H537      1.0  0.49188  0.64940  0.20013  1.0000
  S   S134      1.0  0.50586  0.57712  0.03475  1.0000
  N   N34       1.0  0.50507  0.63901  0.20066  1.0000
  H   H538      1.0  0.49923  0.53954  0.95910  1.0000
  H   H539      1.0  0.41245  0.76217  0.06590  1.0000
  C   C347      1.0  0.39450  0.75399  0.06029  1.0000
  H   H540      1.0  0.39457  0.52644  0.31225  1.0000
  S   S135      1.0  0.39769  0.51972  0.63362  1.0000
  H   H541      1.0  0.36749  0.52475  0.40470  1.0000
  H   H542      1.0  0.47636  0.75845  0.01586  1.0000
  H   H543      1.0  0.39780  0.75375  0.02497  1.0000
  H   H544      1.0  0.45573  0.74388  0.98344  1.0000
  H   H545      1.0  0.45634  0.53241  0.17838  1.0000
  H   H546      1.0  0.39415  0.51838  0.79106  1.0000
  H   H547      1.0  0.47000  0.75818  0.88419  1.0000
  H   H548      1.0  0.50706  0.65378  0.71029  1.0000
  H   H549      1.0  0.48503  0.75907  0.89166  1.0000
  H   H550      1.0  0.41468  0.52121  0.47973  1.0000
  H   H551      1.0  0.43278  0.52053  0.90158  1.0000
  Fe  Fe70      1.0  0.42928  0.76629  0.12710  1.0000
  S   S136      1.0  0.34433  0.55675  0.92865  1.0000
  S   S137      1.0  0.34442  0.74513  0.00345  1.0000
  H   H552      1.0  0.39014  0.76665  0.24459  1.0000
  S   S138      1.0  0.45182  0.78960  0.96302  1.0000
  Fe  Fe71      1.0  0.43796  0.90890  0.03618  1.0000
  S   S139      1.0  0.42650  0.92003  0.00630  1.0000
  S   S140      1.0  0.43568  0.89697  0.10787  1.0000
  Fe  Fe72      1.0  0.45748  0.91711  0.94442  1.0000
  S   S141      1.0  0.44755  0.92854  0.90703  1.0000
  S   S142      1.0  0.47581  0.91558  0.91112  1.0000
  Fe  Fe73      1.0  0.44445  0.93534  0.97144  1.0000
  S   S143      1.0  0.44877  0.95634  0.96584  1.0000
  Fe  Fe74      1.0  0.43086  0.91217  0.94487  1.0000
  S   S144      1.0  0.41613  0.90015  0.92100  1.0000
  S   S145      1.0  0.45529  0.92456  0.00604  1.0000
  S   S146      1.0  0.44141  0.90047  0.97753  1.0000
  Fe  Fe75      1.0  0.40403  0.82406  0.28877  1.0000
  S   S147      1.0  0.38954  0.80885  0.34429  1.0000
  S   S148      1.0  0.42257  0.82135  0.26652  1.0000
  Fe  Fe76      1.0  0.38705  0.83946  0.27293  1.0000
  S   S149      1.0  0.38538  0.85599  0.22208  1.0000
  Fe  Fe77      1.0  0.38444  0.82427  0.37135  1.0000
  C   C348      1.0  0.46966  0.79748  0.20250  1.0000
  H   H553      1.0  0.46030  0.91590  0.11217  1.0000
  S   S150      1.0  0.39990  0.83938  0.31827  1.0000
  S   S151      1.0  0.39256  0.82538  0.23932  1.0000
  Fe  Fe78      1.0  0.38318  0.84028  0.76084  1.0000
  S   S152      1.0  0.38857  0.85820  0.70405  1.0000
  H   H554      1.0  0.47064  0.83508  0.10211  1.0000
  Fe  Fe79      1.0  0.40879  0.83785  0.74042  1.0000
  S   S153      1.0  0.41601  0.85518  0.68157  1.0000
  S   S154      1.0  0.42169  0.82824  0.76706  1.0000
  Fe  Fe80      1.0  0.40523  0.86346  0.73004  1.0000
  S   S155      1.0  0.41480  0.88223  0.73851  1.0000
  Fe  Fe81      1.0  0.39881  0.84819  0.66076  1.0000
  S   S156      1.0  0.40105  0.85170  0.58244  1.0000
  S   S157      1.0  0.39891  0.84638  0.78947  1.0000
  S   S158      1.0  0.39247  0.82994  0.71677  1.0000
  Fe  Fe82      1.0  0.48132  0.83011  0.33964  1.0000
  S   S159      1.0  0.48419  0.84803  0.28660  1.0000
  S   S160      1.0  0.47251  0.81095  0.33214  1.0000
  Fe  Fe83      1.0  0.48656  0.84375  0.41482  1.0000
  S   S161      1.0  0.48906  0.86249  0.36714  1.0000
  S   S162      1.0  0.48766  0.83976  0.49023  1.0000
  Fe  Fe84      1.0  0.47312  0.85291  0.34513  1.0000
  S   S163      1.0  0.45761  0.86015  0.33167  1.0000
  Fe  Fe85      1.0  0.49994  0.85592  0.31284  1.0000
  H   H555      1.0  0.36007  0.87055  0.76382  1.0000
  S   S164      1.0  0.46945  0.83478  0.39748  1.0000
  S   S165      1.0  0.49832  0.83744  0.36138  1.0000
  Fe  Fe86      1.0  0.49693  0.85214  0.80550  1.0000
  H   H556      1.0  0.48622  0.92556  0.81204  1.0000
  S   S166      1.0  0.49878  0.83522  0.85375  1.0000
  Fe  Fe87      1.0  0.47929  0.86661  0.78938  1.0000
  S   S167      1.0  0.49373  0.88199  0.73508  1.0000
  S   S168      1.0  0.46079  0.86968  0.80618  1.0000
  C   C349      1.0  0.41156  0.78390  0.22681  1.0000
  H   H557      1.0  0.49305  0.99353  0.78974  1.0000
  S   S169      1.0  0.35189  0.77456  0.90440  1.0000
  H   H558      1.0  0.46488  0.93216  0.08245  1.0000
  S   S170      1.0  0.48421  0.85169  0.75952  1.0000
  S   S171      1.0  0.49047  0.86577  0.83988  1.0000
  C   C350      1.0  0.49173  0.84887  0.52786  1.0000
  C   C351      1.0  0.49492  0.86187  0.51450  1.0000
  H   H559      1.0  0.38658  0.78158  0.93729  1.0000
  H   H560      1.0  0.47083  0.96179  0.83244  1.0000
  C   C352      1.0  0.48856  0.98075  0.87862  1.0000
  C   C353      1.0  0.49160  0.84279  0.57299  1.0000
  H   H561      1.0  0.38084  0.77713  0.23921  1.0000
  C   C354      1.0  0.47055  0.98714  0.98556  1.0000
  C   C355      1.0  0.39031  0.77633  0.22820  1.0000
  S   S172      1.0  0.50218  0.87165  0.62829  1.0000
  C   C356      1.0  0.43230  0.83939  0.78092  1.0000
  C   C357      1.0  0.43135  0.85152  0.77445  1.0000
  C   C358      1.0  0.44005  0.86070  0.78278  1.0000
  C   C359      1.0  0.44986  0.85785  0.79748  1.0000
  C   C360      1.0  0.45085  0.84571  0.80458  1.0000
  C   C361      1.0  0.44205  0.83646  0.79628  1.0000
  H   H562      1.0  0.42406  0.85403  0.76204  1.0000
  H   H563      1.0  0.43926  0.87008  0.77698  1.0000
  H   H564      1.0  0.45833  0.84341  0.81670  1.0000
  H   H565      1.0  0.44288  0.82711  0.80131  1.0000
  C   C362      1.0  0.43320  0.83272  0.27891  1.0000
  C   C363      1.0  0.44313  0.82988  0.29283  1.0000
  C   C364      1.0  0.45101  0.83856  0.30687  1.0000
  C   C365      1.0  0.44888  0.85003  0.30771  1.0000
  C   C366      1.0  0.43924  0.85306  0.29191  1.0000
  C   C367      1.0  0.43151  0.84446  0.27696  1.0000
  H   H566      1.0  0.44449  0.82080  0.29458  1.0000
  H   H567      1.0  0.45835  0.83604  0.31925  1.0000
  H   H568      1.0  0.43766  0.86198  0.29177  1.0000
  H   H569      1.0  0.42422  0.84694  0.26407  1.0000
  C   C368      1.0  0.38556  0.82997  0.48661  1.0000
  Fe  Fe88      1.0  0.44913  0.77917  0.03727  1.0000
  C   C369      1.0  0.39737  0.84882  0.49909  1.0000
  C   C370      1.0  0.39451  0.84316  0.54701  1.0000
  C   C371      1.0  0.38699  0.83090  0.56461  1.0000
  C   C372      1.0  0.38254  0.82438  0.53462  1.0000
  S   S173      1.0  0.44153  0.78586  0.09734  1.0000
  H   H570      1.0  0.38466  0.82639  0.60127  1.0000
  H   H571      1.0  0.37681  0.81488  0.54872  1.0000
  C   C373      1.0  0.46010  0.96606  0.98414  1.0000
  C   C374      1.0  0.46873  0.96167  0.00315  1.0000
  C   C375      1.0  0.47827  0.96997  0.01270  1.0000
  C   C376      1.0  0.47935  0.98280  0.00356  1.0000
  C   C377      1.0  0.46097  0.97882  0.97637  1.0000
  H   H572      1.0  0.46822  0.95193  0.00964  1.0000
  H   H573      1.0  0.48500  0.96646  0.02649  1.0000
  C   C378      1.0  0.41661  0.89485  0.87047  1.0000
  C   C379      1.0  0.42554  0.90105  0.82849  1.0000
  C   C380      1.0  0.42501  0.89692  0.78866  1.0000
  C   C381      1.0  0.41584  0.88631  0.79058  1.0000
  C   C382      1.0  0.40727  0.87977  0.83309  1.0000
  C   C383      1.0  0.40746  0.88421  0.87241  1.0000
  H   H574      1.0  0.43255  0.90931  0.82623  1.0000
  H   H575      1.0  0.43165  0.90209  0.75593  1.0000
  H   H576      1.0  0.40031  0.87151  0.83526  1.0000
  H   H577      1.0  0.40052  0.87932  0.90471  1.0000
  C   C384      1.0  0.42169  0.88537  0.13769  1.0000
  C   C385      1.0  0.41097  0.88527  0.12394  1.0000
  C   C386      1.0  0.39987  0.87623  0.14992  1.0000
  C   C387      1.0  0.39947  0.86710  0.18920  1.0000
  C   C388      1.0  0.41027  0.86702  0.20209  1.0000
  C   C389      1.0  0.42129  0.87619  0.17675  1.0000
  H   H578      1.0  0.41117  0.89235  0.09402  1.0000
  H   H579      1.0  0.39156  0.87639  0.13972  1.0000
  H   H580      1.0  0.41010  0.86008  0.23227  1.0000
  H   H581      1.0  0.42953  0.87621  0.18773  1.0000
  H   H582      1.0  0.43859  0.85160  0.95795  1.0000
  H   H583      1.0  0.37160  0.83258  0.20574  1.0000
  H   H584      1.0  0.46543  0.92725  0.14121  1.0000
  C   C390      1.0  0.35994  0.79587  0.83344  1.0000
  H   H585      1.0  0.49223  0.99094  0.87306  1.0000
  H   H586      1.0  0.47265  0.86797  0.58135  1.0000
  N   N35       1.0  0.48319  0.91007  0.78330  1.0000
  H   H587      1.0  0.49715  0.87900  0.26108  1.0000
  H   H588      1.0  0.46580  0.98197  0.82583  1.0000
  H   H589      1.0  0.50912  0.87864  0.40324  1.0000
  C   C391      1.0  0.39553  0.78367  0.29139  1.0000
  C   C392      1.0  0.49786  0.92770  0.92026  1.0000
  C   C393      1.0  0.48620  0.92827  0.91730  1.0000
  C   C394      1.0  0.48236  0.93859  0.92380  1.0000
  C   C395      1.0  0.48980  0.94791  0.93654  1.0000
  H   H590      1.0  0.38005  0.78772  0.84632  1.0000
  H   H591      1.0  0.49641  0.97668  0.87567  1.0000
  H   H592      1.0  0.47342  0.93914  0.92080  1.0000
  H   H593      1.0  0.48657  0.95556  0.94381  1.0000
  C   C396      1.0  0.46124  0.79118  0.24557  1.0000
  C   C397      1.0  0.46222  0.79547  0.28476  1.0000
  C   C398      1.0  0.47142  0.80624  0.28129  1.0000
  C   C399      1.0  0.47975  0.81260  0.23811  1.0000
  C   C400      1.0  0.47898  0.80812  0.19924  1.0000
  H   H594      1.0  0.45580  0.79040  0.31809  1.0000
  H   H595      1.0  0.48700  0.82076  0.23501  1.0000
  H   H596      1.0  0.48565  0.81298  0.16627  1.0000
  C   C401      1.0  0.46462  0.80274  0.93505  1.0000
  C   C402      1.0  0.46457  0.81101  0.89425  1.0000
  C   C403      1.0  0.47484  0.82124  0.86993  1.0000
  C   C404      1.0  0.48538  0.82307  0.88555  1.0000
  C   C405      1.0  0.48541  0.81481  0.92640  1.0000
  C   C406      1.0  0.47501  0.80478  0.95149  1.0000
  H   H597      1.0  0.45659  0.80947  0.88125  1.0000
  H   H598      1.0  0.47474  0.82748  0.83837  1.0000
  H   H599      1.0  0.49353  0.81619  0.93867  1.0000
  H   H600      1.0  0.47514  0.79852  0.98300  1.0000
  H   H601      1.0  0.45518  0.84447  0.13692  1.0000
  N   N36       1.0  0.42421  0.83119  0.44236  1.0000
  C   C407      1.0  0.41703  0.82557  0.49124  1.0000
  C   C408      1.0  0.41684  0.82709  0.41186  1.0000
  C   C409      1.0  0.43550  0.82722  0.43440  1.0000
  C   C410      1.0  0.42750  0.84488  0.43195  1.0000
  H   H602      1.0  0.41437  0.81524  0.50026  1.0000
  H   H603      1.0  0.40845  0.82832  0.49846  1.0000
  H   H604      1.0  0.42225  0.82858  0.51524  1.0000
  H   H605      1.0  0.41409  0.81680  0.41881  1.0000
  H   H606      1.0  0.40828  0.83000  0.41679  1.0000
  H   H607      1.0  0.42202  0.83111  0.37474  1.0000
  H   H608      1.0  0.43342  0.81697  0.44049  1.0000
  H   H609      1.0  0.44119  0.82998  0.45740  1.0000
  H   H610      1.0  0.44131  0.83157  0.39831  1.0000
  H   H611      1.0  0.43319  0.84837  0.45385  1.0000
  H   H612      1.0  0.41922  0.84821  0.43782  1.0000
  H   H613      1.0  0.43284  0.84942  0.39519  1.0000
  N   N37       1.0  0.47982  0.92460  0.09087  1.0000
  C   C411      1.0  0.48137  0.92103  0.04707  1.0000
  C   C412      1.0  0.48837  0.93701  0.08289  1.0000
  C   C413      1.0  0.48247  0.91537  0.12599  1.0000
  C   C414      1.0  0.46707  0.92500  0.10741  1.0000
  H   H614      1.0  0.49083  0.92051  0.03371  1.0000
  H   H615      1.0  0.47971  0.92795  0.01968  1.0000
  H   H616      1.0  0.47487  0.91186  0.05129  1.0000
  H   H617      1.0  0.48736  0.94010  0.11503  1.0000
  H   H618      1.0  0.49807  0.93700  0.07092  1.0000
  H   H619      1.0  0.48679  0.94416  0.05584  1.0000
  H   H620      1.0  0.47599  0.90596  0.13362  1.0000
  H   H621      1.0  0.48173  0.91794  0.15918  1.0000
  H   H622      1.0  0.39370  0.81563  0.88196  1.0000
  H   H623      1.0  0.39539  0.79406  0.80891  1.0000
  H   H624      1.0  0.47224  0.84863  0.66730  1.0000
  H   H625      1.0  0.49194  0.91467  0.11424  1.0000
  C   C415      1.0  0.36258  0.86397  0.78980  1.0000
  C   C416      1.0  0.37304  0.86130  0.84946  1.0000
  H   H626      1.0  0.45405  0.78296  0.24880  1.0000
  H   H627      1.0  0.45425  0.98235  0.96248  1.0000
  S   S174      1.0  0.46858  0.79310  0.15096  1.0000
  S   S175      1.0  0.36585  0.79389  0.28509  1.0000
  H   H628      1.0  0.44858  0.81399  0.10882  1.0000
  S   S176      1.0  0.38029  0.82097  0.45024  1.0000
  C   C417      1.0  0.39294  0.84230  0.46909  1.0000
  Fe  Fe89      1.0  0.45518  0.77887  0.12966  1.0000
  H   H629      1.0  0.47647  0.89564  0.75295  1.0000
  H   H630      1.0  0.47894  0.92744  0.76592  1.0000
  C   C418      1.0  0.36264  0.87722  0.84092  1.0000
  C   C419      1.0  0.36053  0.79842  0.15568  1.0000
  H   H631      1.0  0.37819  0.86580  0.87094  1.0000
  H   H632      1.0  0.47110  0.99691  0.97878  1.0000
  C   C420      1.0  0.44703  0.82231  0.11956  1.0000
  H   H633      1.0  0.44163  0.83487  0.18118  1.0000
  H   H634      1.0  0.46884  0.81882  0.12392  1.0000
  H   H635      1.0  0.40592  0.80535  0.22600  1.0000
  H   H636      1.0  0.40309  0.85833  0.48503  1.0000
  H   H637      1.0  0.39021  0.79963  0.22622  1.0000
  C   C421      1.0  0.35624  0.81148  0.88984  1.0000
  S   S177      1.0  0.36022  0.76976  0.02477  1.0000
  H   H638      1.0  0.43258  0.86291  0.86905  1.0000
  H   H639      1.0  0.34751  0.81174  0.22961  1.0000
  H   H640      1.0  0.45014  0.83025  0.08780  1.0000
  H   H641      1.0  0.43699  0.82045  0.13395  1.0000
  H   H642      1.0  0.47220  0.82910  0.15891  1.0000
  H   H643      1.0  0.44944  0.86039  0.90363  1.0000
  H   H644      1.0  0.36691  0.81261  0.77674  1.0000
  C   C422      1.0  0.45157  0.83606  0.16703  1.0000
  S   S178      1.0  0.49202  0.99288  0.01418  1.0000
  H   H645      1.0  0.47416  0.99352  0.84785  1.0000
  C   C423      1.0  0.46692  0.82711  0.13379  1.0000
  H   H646      1.0  0.49571  0.89899  0.21605  1.0000
  H   H647      1.0  0.39526  0.84681  0.43242  1.0000
  H   H648      1.0  0.45611  0.83797  0.19427  1.0000
  H   H649      1.0  0.35473  0.81750  0.91177  1.0000
  H   H650      1.0  0.42162  0.85401  0.92296  1.0000
  H   H651      1.0  0.45044  0.86513  0.95487  1.0000
  N   N38       1.0  0.45368  0.82492  0.15395  1.0000
  C   C424      1.0  0.46735  0.85579  0.67072  1.0000
  N   N39       1.0  0.39310  0.79718  0.87632  1.0000
  C   C425      1.0  0.36496  0.80069  0.19335  1.0000
  C   C426      1.0  0.34873  0.81859  0.25014  1.0000
  H   H652      1.0  0.46439  0.97894  0.88630  1.0000
  H   H653      1.0  0.46255  0.85376  0.70799  1.0000
  H   H654      1.0  0.36797  0.84398  0.16589  1.0000
  C   C427      1.0  0.35326  0.84025  0.24941  1.0000
  H   H655      1.0  0.37540  0.78935  0.92596  1.0000
  H   H656      1.0  0.41842  0.79048  0.23694  1.0000
  C   C428      1.0  0.42740  0.86355  0.90274  1.0000
  C   C429      1.0  0.44390  0.86119  0.93655  1.0000
  H   H657      1.0  0.42255  0.87604  0.96654  1.0000
  H   H658      1.0  0.48283  0.97685  0.91493  1.0000
  H   H659      1.0  0.36771  0.85867  0.77094  1.0000
  N   N40       1.0  0.43575  0.86905  0.92772  1.0000
  C   C430      1.0  0.42847  0.86978  0.97215  1.0000
  S   S179      1.0  0.36538  0.83282  0.81748  1.0000
  H   H660      1.0  0.42120  0.86928  0.89522  1.0000
  N   N41       1.0  0.39920  0.78551  0.24081  1.0000
  H   H661      1.0  0.45881  0.87474  0.63849  1.0000
  H   H662      1.0  0.49849  0.90717  0.73842  1.0000
  H   H663      1.0  0.36018  0.83937  0.26892  1.0000
  C   C431      1.0  0.40614  0.79894  0.87517  1.0000
  H   H664      1.0  0.42237  0.86050  0.99384  1.0000
  H   H665      1.0  0.43446  0.87348  0.99275  1.0000
  H   H666      1.0  0.40222  0.79989  0.17856  1.0000
  H   H667      1.0  0.46480  0.89991  0.78820  1.0000
  C   C432      1.0  0.44917  0.81414  0.19546  1.0000
  H   H668      1.0  0.45434  0.81550  0.22149  1.0000
  C   C433      1.0  0.47493  0.77325  0.93769  1.0000
  H   H669      1.0  0.45011  0.80547  0.18647  1.0000
  H   H670      1.0  0.43935  0.81251  0.21273  1.0000
  H   H671      1.0  0.40891  0.80476  0.89790  1.0000
  C   C434      1.0  0.46552  0.85883  0.59262  1.0000
  S   S180      1.0  0.37096  0.82541  0.32823  1.0000
  C   C435      1.0  0.44320  0.88167  0.89922  1.0000
  H   H672      1.0  0.43739  0.88801  0.89380  1.0000
  H   H673      1.0  0.45009  0.88586  0.91577  1.0000
  H   H674      1.0  0.50754  0.88490  0.03651  1.0000
  Fe  Fe90      1.0  0.50558  0.88041  0.78399  1.0000
  C   C436      1.0  0.50532  0.93706  0.93302  1.0000
  H   H675      1.0  0.44826  0.88152  0.86446  1.0000
  H   H676      1.0  0.48416  0.95988  0.85055  1.0000
  H   H677      1.0  0.41472  0.78548  0.18868  1.0000
  H   H678      1.0  0.39649  0.81426  0.82389  1.0000
  H   H679      1.0  0.50091  0.91977  0.91483  1.0000
  Fe  Fe91      1.0  0.37750  0.81128  0.29664  1.0000
  H   H680      1.0  0.49460  0.84470  0.63865  1.0000
  H   H681      1.0  0.35399  0.85705  0.81322  1.0000
  C   C437      1.0  0.47405  0.90367  0.76304  1.0000
  N   N42       1.0  0.36989  0.87049  0.81589  1.0000
  H   H682      1.0  0.44453  0.84080  0.69263  1.0000
  C   C438      1.0  0.38125  0.87944  0.78349  1.0000
  H   H683      1.0  0.36128  0.78986  0.81132  1.0000
  C   C439      1.0  0.36317  0.80877  0.81379  1.0000
  H   H684      1.0  0.44283  0.84322  0.63518  1.0000
  C   C440      1.0  0.44968  0.84346  0.65553  1.0000
  H   H685      1.0  0.45422  0.83612  0.65048  1.0000
  H   H686      1.0  0.48653  0.89313  0.81624  1.0000
  C   C441      1.0  0.50455  0.89721  0.21225  1.0000
  H   H687      1.0  0.41224  0.80371  0.83951  1.0000
  H   H688      1.0  0.47446  0.86491  0.66078  1.0000
  H   H689      1.0  0.39149  0.78022  0.85609  1.0000
  H   H690      1.0  0.50934  0.87236  0.11053  1.0000
  H   H691      1.0  0.44562  0.86559  0.62715  1.0000
  N   N43       1.0  0.45870  0.85585  0.64180  1.0000
  H   H692      1.0  0.45932  0.85919  0.56965  1.0000
  H   H693      1.0  0.40806  0.78990  0.88694  1.0000
  C   C442      1.0  0.35506  0.77923  0.23621  1.0000
  S   S181      1.0  0.46352  0.77330  0.06688  1.0000
  H   H694      1.0  0.44700  0.86329  0.68505  1.0000
  C   C443      1.0  0.39106  0.80942  0.86036  1.0000
  C   C444      1.0  0.45226  0.86530  0.64832  1.0000
  H   H695      1.0  0.38720  0.87466  0.76525  1.0000
  H   H696      1.0  0.36470  0.85406  0.87315  1.0000
  H   H697      1.0  0.38621  0.78476  0.30318  1.0000
  C   C445      1.0  0.49535  0.91482  0.74908  1.0000
  H   H698      1.0  0.35619  0.85010  0.22803  1.0000
  C   C446      1.0  0.49466  0.84955  0.60428  1.0000
  H   H699      1.0  0.38738  0.79643  0.94845  1.0000
  N   N44       1.0  0.48140  0.97793  0.84590  1.0000
  H   H700      1.0  0.47331  0.91001  0.73157  1.0000
  C   C447      1.0  0.36129  0.81661  0.84187  1.0000
  H   H701      1.0  0.47025  0.85172  0.58641  1.0000
  H   H702      1.0  0.38682  0.88481  0.80176  1.0000
  C   C448      1.0  0.47661  0.96431  0.85540  1.0000
  C   C449      1.0  0.35516  0.79075  0.88143  1.0000
  H   H703      1.0  0.49483  0.86669  0.48036  1.0000
  H   H704      1.0  0.35402  0.87073  0.86576  1.0000
  H   H705      1.0  0.47042  0.91736  0.82244  1.0000
  C   C450      1.0  0.47103  0.98338  0.85158  1.0000
  H   H706      1.0  0.38127  0.80847  0.86197  1.0000
  H   H707      1.0  0.48915  0.83274  0.58383  1.0000
  H   H708      1.0  0.47253  0.77683  0.96821  1.0000
  C   C451      1.0  0.35334  0.79857  0.90972  1.0000
  H   H709      1.0  0.36789  0.88226  0.86097  1.0000
  C   C452      1.0  0.50535  0.88586  0.23789  1.0000
  C   C453      1.0  0.36187  0.79120  0.23447  1.0000
  H   H710      1.0  0.48488  0.77764  0.92072  1.0000
  H   H711      1.0  0.49529  0.92154  0.71731  1.0000
  H   H712      1.0  0.40197  0.79055  0.30204  1.0000
  C   C454      1.0  0.35346  0.78649  0.15777  1.0000
  H   H713      1.0  0.50969  0.85690  0.42255  1.0000
  H   H714      1.0  0.48434  0.98117  0.77240  1.0000
  C   C455      1.0  0.38531  0.79088  0.92409  1.0000
  Fe  Fe92      1.0  0.50027  0.01395  0.00259  1.0000
  H   H715      1.0  0.47077  0.96002  0.89172  1.0000
  H   H716      1.0  0.37881  0.85632  0.83154  1.0000
  C   C456      1.0  0.47953  0.92059  0.79637  1.0000
  C   C457      1.0  0.49803  0.86255  0.59071  1.0000
  C   C458      1.0  0.50106  0.94688  0.94296  1.0000
  C   C459      1.0  0.48385  0.90124  0.82481  1.0000
  C   C460      1.0  0.49818  0.86864  0.54553  1.0000
  H   H717      1.0  0.37046  0.80983  0.19110  1.0000
  C   C461      1.0  0.48940  0.98325  0.79804  1.0000
  C   C462      1.0  0.35100  0.77685  0.19798  1.0000
  H   H718      1.0  0.37928  0.88624  0.75649  1.0000
  H   H719      1.0  0.35263  0.77178  0.26773  1.0000
  H   H720      1.0  0.47492  0.89761  0.85180  1.0000
  H   H721      1.0  0.49079  0.90570  0.84073  1.0000
  Fe  Fe93      1.0  0.49959  0.86711  0.70720  1.0000
  H   H722      1.0  0.36250  0.80594  0.12477  1.0000
  C   C463      1.0  0.38989  0.78947  0.84548  1.0000
  C   C464      1.0  0.39943  0.79818  0.21680  1.0000
  H   H723      1.0  0.49738  0.97941  0.79278  1.0000
  H   H724      1.0  0.50072  0.87869  0.53466  1.0000
  H   H725      1.0  0.39265  0.77763  0.19011  1.0000
  H   H726      1.0  0.36009  0.88421  0.81657  1.0000
  H   H727      1.0  0.46982  0.77675  0.91340  1.0000
  H   H728      1.0  0.35569  0.81677  0.26845  1.0000
  N   N45       1.0  0.35248  0.83153  0.22042  1.0000
  H   H729      1.0  0.36426  0.82807  0.16359  1.0000
  C   C465      1.0  0.36458  0.83412  0.18735  1.0000
  H   H730      1.0  0.50247  0.91949  0.76382  1.0000
  H   H731      1.0  0.34545  0.76767  0.20047  1.0000
  H   H732      1.0  0.34963  0.79469  0.94680  1.0000
  S   S182      1.0  0.34656  0.78453  0.11227  1.0000
  H   H733      1.0  0.39531  0.77421  0.31056  1.0000
  H   H734      1.0  0.41165  0.77429  0.24305  1.0000
  S   S183      1.0  0.50904  0.95713  0.96813  1.0000
  H   H735      1.0  0.51018  0.88552  0.13373  1.0000
  H   H736      1.0  0.50814  0.89792  0.06060  1.0000
  H   H737      1.0  0.34591  0.84282  0.17173  1.0000
  H   H738      1.0  0.34435  0.83859  0.27506  1.0000
  Fe  Fe94      1.0  0.59917  0.21490  0.89209  1.0000
  S   S184      1.0  0.60402  0.20806  0.95780  1.0000
  S   S185      1.0  0.59945  0.23537  0.86733  1.0000
  Fe  Fe95      1.0  0.59170  0.18823  0.87840  1.0000
  S   S186      1.0  0.59563  0.18005  0.94527  1.0000
  S   S187      1.0  0.58770  0.17209  0.84539  1.0000
  Fe  Fe96      1.0  0.58653  0.19262  0.97601  1.0000
  S   S188      1.0  0.57319  0.18931  0.04569  1.0000
  Fe  Fe97      1.0  0.61265  0.19608  0.92074  1.0000
  S   S189      1.0  0.62981  0.19039  0.92337  1.0000
  S   S190      1.0  0.58113  0.19982  0.91171  1.0000
  S   S191      1.0  0.60928  0.20395  0.85285  1.0000
  S   S192      1.0  0.58131  0.06822  0.00535  1.0000
  Fe  Fe98      1.0  0.63070  0.12544  0.34646  1.0000
  S   S193      1.0  0.62475  0.10641  0.39581  1.0000
  S   S194      1.0  0.61636  0.13485  0.33368  1.0000
  H   H739      1.0  0.65197  0.13549  0.48670  1.0000
  C   C466      1.0  0.57124  0.05765  0.98724  1.0000
  Fe  Fe99      1.0  0.63759  0.10208  0.33972  1.0000
  S   S195      1.0  0.63346  0.08455  0.31458  1.0000
  H   H740      1.0  0.54197  0.13301  0.72774  1.0000
  S   S196      1.0  0.64290  0.12094  0.28947  1.0000
  H   H741      1.0  0.54215  0.11952  0.34602  1.0000
  C   C467      1.0  0.62931  0.15971  0.82041  1.0000
  S   S197      1.0  0.61397  0.12432  0.82517  1.0000
  Fe  Fe100     1.0  0.55052  0.12232  0.21544  1.0000
  S   S198      1.0  0.53796  0.10324  0.25530  1.0000
  S   S199      1.0  0.54349  0.13906  0.20210  1.0000
  Fe  Fe101     1.0  0.57307  0.11361  0.20888  1.0000
  S   S200      1.0  0.56256  0.09404  0.24918  1.0000
  S   S201      1.0  0.59338  0.11811  0.18121  1.0000
  Fe  Fe102     1.0  0.54969  0.09611  0.20431  1.0000
  S   S202      1.0  0.54774  0.08371  0.15495  1.0000
  Fe  Fe103     1.0  0.55199  0.10288  0.29635  1.0000
  S   S203      1.0  0.54714  0.09659  0.37570  1.0000
  S   S204      1.0  0.56099  0.11551  0.16192  1.0000
  S   S205      1.0  0.56368  0.12223  0.25901  1.0000
  Fe  Fe104     1.0  0.56397  0.13625  0.67046  1.0000
  S   S206      1.0  0.55978  0.11857  0.72629  1.0000
  S   S207      1.0  0.56578  0.15492  0.68740  1.0000
  Fe  Fe105     1.0  0.56209  0.12221  0.59346  1.0000
  S   S208      1.0  0.55749  0.10357  0.64519  1.0000
  S   S209      1.0  0.56656  0.12584  0.51410  1.0000
  Fe  Fe106     1.0  0.54542  0.11088  0.69355  1.0000
  S   S210      1.0  0.52576  0.10246  0.73715  1.0000
  Fe  Fe107     1.0  0.57219  0.11300  0.67342  1.0000
  S   S211      1.0  0.58723  0.10473  0.68594  1.0000
  S   S212      1.0  0.54883  0.12895  0.63954  1.0000
  S   S213      1.0  0.57761  0.13127  0.61959  1.0000
  C   C468      1.0  0.57171  0.04537  0.99402  1.0000
  S   S214      1.0  0.52210  0.04769  0.98251  1.0000
  H   H742      1.0  0.63656  0.02682  0.00177  1.0000
  C   C469      1.0  0.67320  0.20376  0.85081  1.0000
  C   C470      1.0  0.51668  0.05637  0.16742  1.0000
  Fe  Fe108     1.0  0.52644  0.03083  0.96670  1.0000
  Fe  Fe109     1.0  0.65740  0.12653  0.32427  1.0000
  S   S215      1.0  0.63394  0.05389  0.00321  1.0000
  S   S216      1.0  0.60879  0.06806  0.06143  1.0000
  H   H743      1.0  0.54198  0.14636  0.39516  1.0000
  C   C471      1.0  0.55485  0.05292  0.95077  1.0000
  C   C472      1.0  0.56279  0.06144  0.96546  1.0000
  Fe  Fe110     1.0  0.59190  0.05831  0.04561  1.0000
  H   H744      1.0  0.65165  0.17339  0.12549  1.0000
  H   H745      1.0  0.54834  0.05586  0.93389  1.0000
  H   H746      1.0  0.56228  0.07090  0.96034  1.0000
  H   H747      1.0  0.59189  0.12484  0.53088  1.0000
  C   C473      1.0  0.51940  0.08968  0.78740  1.0000
  C   C474      1.0  0.52610  0.08215  0.80629  1.0000
  H   H748      1.0  0.55222  0.13594  0.78777  1.0000
  H   H749      1.0  0.66246  0.12528  0.43182  1.0000
  H   H750      1.0  0.52282  0.06821  0.20913  1.0000
  H   H751      1.0  0.52058  0.11585  0.80918  1.0000
  H   H752      1.0  0.53575  0.08404  0.78975  1.0000
  H   H753      1.0  0.52526  0.06608  0.86048  1.0000
  H   H754      1.0  0.65669  0.11423  0.92104  1.0000
  H   H755      1.0  0.52217  0.13755  0.85321  1.0000
  C   C475      1.0  0.55241  0.10505  0.41357  1.0000
  C   C476      1.0  0.56165  0.11638  0.39702  1.0000
  C   C477      1.0  0.56582  0.12255  0.42828  1.0000
  C   C478      1.0  0.56083  0.11755  0.47653  1.0000
  C   C479      1.0  0.55160  0.10622  0.49304  1.0000
  C   C480      1.0  0.54746  0.10002  0.46176  1.0000
  H   H756      1.0  0.56571  0.12032  0.36021  1.0000
  H   H757      1.0  0.57302  0.13126  0.41500  1.0000
  H   H758      1.0  0.54765  0.10222  0.52995  1.0000
  H   H759      1.0  0.54034  0.09125  0.47513  1.0000
  C   C481      1.0  0.53640  0.07218  0.14442  1.0000
  C   C482      1.0  0.67312  0.16627  0.86345  1.0000
  S   S217      1.0  0.54544  0.02971  0.94128  1.0000
  H   H760      1.0  0.66098  0.13712  0.91705  1.0000
  C   C483      1.0  0.53068  0.05957  0.09297  1.0000
  C   C484      1.0  0.53913  0.06894  0.10254  1.0000
  H   H761      1.0  0.65056  0.22814  0.95858  1.0000
  C   C485      1.0  0.64769  0.11769  0.61442  1.0000
  H   H762      1.0  0.53296  0.05726  0.06055  1.0000
  H   H763      1.0  0.54787  0.07372  0.07726  1.0000
  C   C486      1.0  0.65445  0.08950  0.88556  1.0000
  C   C487      1.0  0.66010  0.08033  0.89888  1.0000
  C   C488      1.0  0.65364  0.06953  0.93471  1.0000
  C   C489      1.0  0.64146  0.06777  0.95825  1.0000
  C   C490      1.0  0.63569  0.07694  0.94523  1.0000
  C   C491      1.0  0.64219  0.08782  0.90876  1.0000
  H   H764      1.0  0.51466  0.13532  0.80889  1.0000
  H   H765      1.0  0.65817  0.06255  0.94443  1.0000
  H   H766      1.0  0.62626  0.07564  0.96317  1.0000
  C   C492      1.0  0.60020  0.25818  0.88416  1.0000
  C   C493      1.0  0.60668  0.12031  0.78379  1.0000
  C   C494      1.0  0.61338  0.11843  0.74378  1.0000
  C   C495      1.0  0.60736  0.11374  0.71362  1.0000
  C   C496      1.0  0.59466  0.11133  0.72250  1.0000
  C   C497      1.0  0.58798  0.11368  0.76151  1.0000
  C   C498      1.0  0.59398  0.11809  0.79235  1.0000
  H   H767      1.0  0.62319  0.12050  0.73604  1.0000
  H   H768      1.0  0.61259  0.11204  0.68330  1.0000
  H   H769      1.0  0.57815  0.11169  0.76884  1.0000
  H   H770      1.0  0.58876  0.11959  0.82312  1.0000
  C   C499      1.0  0.61017  0.13052  0.29029  1.0000
  C   C500      1.0  0.60142  0.13580  0.27601  1.0000
  C   C501      1.0  0.59640  0.13224  0.24158  1.0000
  C   C502      1.0  0.60033  0.12361  0.22080  1.0000
  C   C503      1.0  0.60927  0.11858  0.23428  1.0000
  C   C504      1.0  0.61394  0.12181  0.26971  1.0000
  H   H771      1.0  0.59844  0.14254  0.29185  1.0000
  H   H772      1.0  0.58960  0.13628  0.23071  1.0000
  H   H773      1.0  0.61220  0.11178  0.21868  1.0000
  H   H774      1.0  0.62018  0.11724  0.28181  1.0000
  H   H775      1.0  0.57768  0.04213  0.01253  1.0000
  H   H776      1.0  0.52761  0.02762  0.10740  1.0000
  H   H777      1.0  0.63913  0.10142  0.59590  1.0000
  S   S218      1.0  0.59901  0.06668  0.18944  1.0000
  C   C505      1.0  0.62458  0.08044  0.27633  1.0000
  C   C506      1.0  0.62555  0.07019  0.25906  1.0000
  C   C507      1.0  0.61823  0.06620  0.23076  1.0000
  C   C508      1.0  0.60957  0.07221  0.22022  1.0000
  C   C509      1.0  0.60865  0.08251  0.23727  1.0000
  C   C510      1.0  0.61623  0.08671  0.26442  1.0000
  H   H778      1.0  0.63194  0.06522  0.26800  1.0000
  H   H779      1.0  0.61901  0.05820  0.21845  1.0000
  H   H780      1.0  0.60200  0.08726  0.22960  1.0000
  H   H781      1.0  0.61549  0.09467  0.27677  1.0000
  H   H782      1.0  0.52245  0.14076  0.34251  1.0000
  H   H783      1.0  0.55945  0.02557  0.15314  1.0000
  C   C511      1.0  0.60446  0.24760  0.89232  1.0000
  C   C512      1.0  0.61268  0.24713  0.91944  1.0000
  H   H784      1.0  0.52860  0.03059  0.16139  1.0000
  H   H785      1.0  0.61617  0.23916  0.92569  1.0000
  C   C513      1.0  0.55047  0.04089  0.09865  1.0000
  C   C514      1.0  0.58175  0.16776  0.80043  1.0000
  C   C515      1.0  0.57725  0.17558  0.77123  1.0000
  C   C516      1.0  0.57258  0.17159  0.73641  1.0000
  C   C517      1.0  0.57242  0.15978  0.73006  1.0000
  C   C518      1.0  0.57697  0.15198  0.75912  1.0000
  C   C519      1.0  0.58152  0.15592  0.79418  1.0000
  H   H786      1.0  0.57735  0.18470  0.77551  1.0000
  H   H787      1.0  0.56907  0.17770  0.71422  1.0000
  H   H788      1.0  0.57694  0.14288  0.75477  1.0000
  H   H789      1.0  0.58487  0.14972  0.81663  1.0000
  C   C520      1.0  0.56534  0.17484  0.08704  1.0000
  C   C521      1.0  0.55534  0.17452  0.12214  1.0000
  C   C522      1.0  0.54878  0.16348  0.15662  1.0000
  C   C523      1.0  0.55225  0.15260  0.15720  1.0000
  C   C524      1.0  0.56238  0.15283  0.12245  1.0000
  C   C525      1.0  0.56887  0.16395  0.08705  1.0000
  H   H790      1.0  0.55254  0.18286  0.12246  1.0000
  H   H791      1.0  0.54097  0.16340  0.18306  1.0000
  H   H792      1.0  0.56513  0.14446  0.12254  1.0000
  H   H793      1.0  0.57664  0.16413  0.06020  1.0000
  C   C526      1.0  0.64080  0.19943  0.94313  1.0000
  H   H794      1.0  0.63390  0.21539  0.93507  1.0000
  H   H795      1.0  0.58313  0.11065  0.33932  1.0000
  S   S219      1.0  0.64585  0.14560  0.75112  1.0000
  Fe  Fe111     1.0  0.65819  0.14533  0.79887  1.0000
  H   H796      1.0  0.60353  0.09863  0.33915  1.0000
  H   H797      1.0  0.59872  0.09042  0.39927  1.0000
  H   H798      1.0  0.57200  0.09837  0.33070  1.0000
  N   N46       1.0  0.57950  0.22700  0.02765  1.0000
  C   C527      1.0  0.58182  0.24060  0.01889  1.0000
  C   C528      1.0  0.56928  0.22055  0.06983  1.0000
  C   C529      1.0  0.59065  0.22360  0.03399  1.0000
  C   C530      1.0  0.57627  0.22321  0.98778  1.0000
  H   H799      1.0  0.57364  0.24353  0.01366  1.0000
  H   H800      1.0  0.58950  0.24568  0.98724  1.0000
  H   H801      1.0  0.58436  0.24383  0.04812  1.0000
  H   H802      1.0  0.56735  0.21026  0.07710  1.0000
  H   H803      1.0  0.57141  0.22312  0.10071  1.0000
  H   H804      1.0  0.56069  0.22284  0.06621  1.0000
  H   H805      1.0  0.58918  0.21337  0.04111  1.0000
  H   H806      1.0  0.59346  0.22644  0.06342  1.0000
  H   H807      1.0  0.59850  0.22814  0.00251  1.0000
  H   H808      1.0  0.57444  0.21302  0.99304  1.0000
  H   H809      1.0  0.58382  0.22775  0.95554  1.0000
  H   H810      1.0  0.56797  0.22571  0.98156  1.0000
  H   H811      1.0  0.62402  0.15180  0.91319  1.0000
  N   N47       1.0  0.54013  0.13785  0.34014  1.0000
  H   H812      1.0  0.52938  0.13247  0.41112  1.0000
  C   C531      1.0  0.53900  0.13701  0.38960  1.0000
  C   C532      1.0  0.53625  0.12522  0.33461  1.0000
  C   C533      1.0  0.54482  0.13968  0.80331  1.0000
  C   C534      1.0  0.55302  0.14399  0.31298  1.0000
  H   H813      1.0  0.52617  0.13227  0.73594  1.0000
  S   S220      1.0  0.51164  0.02617  0.93184  1.0000
  H   H814      1.0  0.62328  0.25678  0.95749  1.0000
  H   H815      1.0  0.55623  0.15358  0.31606  1.0000
  H   H816      1.0  0.67325  0.19739  0.82817  1.0000
  H   H817      1.0  0.66535  0.20770  0.84941  1.0000
  C   C535      1.0  0.52935  0.12043  0.81544  1.0000
  H   H818      1.0  0.65958  0.11093  0.97691  1.0000
  H   H819      1.0  0.67359  0.13449  0.37851  1.0000
  H   H820      1.0  0.66955  0.08156  0.88129  1.0000
  H   H821      1.0  0.52814  0.11803  0.85341  1.0000
  N   N48       1.0  0.53310  0.13403  0.79459  1.0000
  C   C536      1.0  0.52359  0.13935  0.81516  1.0000
  N   N49       1.0  0.54478  0.02753  0.12251  1.0000
  H   H822      1.0  0.54739  0.02974  0.18778  1.0000
  S   S221      1.0  0.66208  0.16098  0.83433  1.0000
  H   H823      1.0  0.61852  0.02816  0.05602  1.0000
  H   H824      1.0  0.55421  0.14470  0.27547  1.0000
  C   C537      1.0  0.51945  0.05311  0.12564  1.0000
  H   H825      1.0  0.66058  0.17281  0.90761  1.0000
  H   H826      1.0  0.66580  0.15642  0.29617  1.0000
  C   C538      1.0  0.53469  0.13668  0.74419  1.0000
  H   H827      1.0  0.52621  0.14961  0.79998  1.0000
  H   H828      1.0  0.53301  0.14598  0.28583  1.0000
  C   C539      1.0  0.61673  0.25718  0.93735  1.0000
  Fe  Fe112     1.0  0.61538  0.05201  0.04831  1.0000
  C   C540      1.0  0.58161  0.10137  0.33249  1.0000
  H   H829      1.0  0.58765  0.10259  0.29766  1.0000
  H   H830      1.0  0.57563  0.09886  0.42374  1.0000
  C   C541      1.0  0.57512  0.09008  0.41346  1.0000
  C   C542      1.0  0.59657  0.09705  0.37224  1.0000
  H   H831      1.0  0.60504  0.15482  0.83046  1.0000
  H   H832      1.0  0.62979  0.15005  0.83306  1.0000
  N   N50       1.0  0.58405  0.09222  0.36850  1.0000
  C   C543      1.0  0.59113  0.09435  0.05139  1.0000
  H   H833      1.0  0.56555  0.08632  0.41204  1.0000
  C   C544      1.0  0.53227  0.14517  0.32321  1.0000
  C   C545      1.0  0.54796  0.02009  0.09054  1.0000
  S   S222      1.0  0.65999  0.13883  0.63544  1.0000
  H   H834      1.0  0.53628  0.11613  0.80013  1.0000
  H   H835      1.0  0.56466  0.02754  0.98317  1.0000
  H   H836      1.0  0.53490  0.15477  0.32684  1.0000
  C   C546      1.0  0.62376  0.16142  0.89839  1.0000
  H   H837      1.0  0.61721  0.16381  0.92468  1.0000
  H   H838      1.0  0.63300  0.16782  0.89312  1.0000
  Fe  Fe113     1.0  0.60021  0.05590  0.13445  1.0000
  H   H839      1.0  0.58842  0.06499  0.89853  1.0000
  H   H840      1.0  0.59784  0.10610  0.38093  1.0000
  S   S223      1.0  0.66345  0.10303  0.84126  1.0000
  H   H841      1.0  0.57675  0.08331  0.44157  1.0000
  H   H842      1.0  0.53751  0.14685  0.72703  1.0000
  S   S224      1.0  0.59943  0.04344  0.02502  1.0000
  Fe  Fe114     1.0  0.65597  0.11792  0.80744  1.0000
  C   C547      1.0  0.59834  0.07014  0.88728  1.0000
  H   H843      1.0  0.58560  0.07867  0.83025  1.0000
  H   H844      1.0  0.60154  0.06968  0.91912  1.0000
  H   H845      1.0  0.60322  0.06506  0.86636  1.0000
  C   C548      1.0  0.58289  0.08040  0.35574  1.0000
  H   H846      1.0  0.58467  0.07325  0.38210  1.0000
  H   H847      1.0  0.57356  0.07658  0.35225  1.0000
  H   H848      1.0  0.65061  0.14158  0.18961  1.0000
  C   C549      1.0  0.65933  0.20168  0.96882  1.0000
  H   H849      1.0  0.62579  0.15668  0.18208  1.0000
  H   H850      1.0  0.60018  0.07851  0.79664  1.0000
  C   C550      1.0  0.65373  0.13045  0.59901  1.0000
  H   H851      1.0  0.66644  0.19786  0.97723  1.0000
  Fe  Fe115     1.0  0.59084  0.03255  0.09912  1.0000
  H   H852      1.0  0.60370  0.01744  0.06605  1.0000
  H   H853      1.0  0.58956  0.08168  0.32204  1.0000
  C   C551      1.0  0.59564  0.08330  0.81993  1.0000
  H   H854      1.0  0.60372  0.10480  0.10501  1.0000
  S   S225      1.0  0.60769  0.03999  0.12227  1.0000
  C   C552      1.0  0.60802  0.15393  0.86282  1.0000
  N   N51       1.0  0.60048  0.08314  0.86070  1.0000
  H   H855      1.0  0.58410  0.08498  0.90291  1.0000
  C   C553      1.0  0.61558  0.12524  0.50127  1.0000
  C   C554      1.0  0.59799  0.09497  0.12000  1.0000
  H   H856      1.0  0.59714  0.09296  0.79905  1.0000
  C   C555      1.0  0.59414  0.08960  0.89039  1.0000
  H   H857      1.0  0.61569  0.09937  0.82506  1.0000
  N   N52       1.0  0.62024  0.16264  0.85456  1.0000
  H   H858      1.0  0.62690  0.16047  0.78695  1.0000
  H   H859      1.0  0.59758  0.08968  0.92148  1.0000
  H   H860      1.0  0.59554  0.09944  0.87143  1.0000
  H   H861      1.0  0.59522  0.09331  0.15827  1.0000
  H   H862      1.0  0.54474  0.13141  0.40345  1.0000
  H   H863      1.0  0.60094  0.15580  0.88874  1.0000
  H   H864      1.0  0.58311  0.09238  0.03701  1.0000
  C   C556      1.0  0.61377  0.08954  0.84526  1.0000
  H   H865      1.0  0.60385  0.08884  0.11252  1.0000
  H   H866      1.0  0.57634  0.07776  0.16285  1.0000
  H   H867      1.0  0.60800  0.14409  0.87542  1.0000
  H   H868      1.0  0.58483  0.07282  0.11827  1.0000
  H   H869      1.0  0.57128  0.07724  0.11186  1.0000
  H   H870      1.0  0.61888  0.08497  0.82266  1.0000
  H   H871      1.0  0.61771  0.08965  0.87516  1.0000
  H   H872      1.0  0.66800  0.10649  0.93033  1.0000
  S   S226      1.0  0.58262  0.04724  0.11882  1.0000
  H   H873      1.0  0.59663  0.08803  0.04256  1.0000
  C   C557      1.0  0.57955  0.07948  0.12463  1.0000
  C   C558      1.0  0.54936  0.02411  0.16336  1.0000
  N   N53       1.0  0.58716  0.09244  0.10193  1.0000
  H   H874      1.0  0.57173  0.09951  0.09817  1.0000
  H   H875      1.0  0.59680  0.10407  0.03325  1.0000
  H   H876      1.0  0.64989  0.18516  0.95430  1.0000
  C   C559      1.0  0.64093  0.21152  0.94476  1.0000
  H   H877      1.0  0.56060  0.04315  0.08722  1.0000
  C   C560      1.0  0.57988  0.10096  0.11197  1.0000
  H   H878      1.0  0.57650  0.09943  0.14990  1.0000
  H   H879      1.0  0.61708  0.17677  0.80381  1.0000
  C   C561      1.0  0.55559  0.04071  0.95693  1.0000
  C   C562      1.0  0.61986  0.17550  0.83662  1.0000
  H   H880      1.0  0.60961  0.10164  0.55052  1.0000
  C   C563      1.0  0.65531  0.13672  0.55245  1.0000
  H   H881      1.0  0.58538  0.11087  0.09697  1.0000
  H   H882      1.0  0.62889  0.18237  0.83028  1.0000
  H   H883      1.0  0.65987  0.14660  0.54015  1.0000
  Fe  Fe116     1.0  0.65567  0.13403  0.71502  1.0000
  H   H884      1.0  0.60386  0.10382  0.60628  1.0000
  H   H885      1.0  0.54734  0.04375  0.06726  1.0000
  H   H886      1.0  0.62960  0.14229  0.18798  1.0000
  C   C564      1.0  0.65094  0.13040  0.52185  1.0000
  H   H887      1.0  0.61308  0.17795  0.86174  1.0000
  Fe  Fe117     1.0  0.64097  0.11363  0.42191  1.0000
  C   C565      1.0  0.64522  0.11758  0.53696  1.0000
  H   H888      1.0  0.52665  0.12019  0.35531  1.0000
  C   C566      1.0  0.65962  0.21383  0.96987  1.0000
  H   H889      1.0  0.53677  0.12548  0.29786  1.0000
  S   S227      1.0  0.64578  0.13313  0.37644  1.0000
  H   H890      1.0  0.61358  0.13370  0.48309  1.0000
  C   C567      1.0  0.64358  0.11132  0.58353  1.0000
  S   S228      1.0  0.64330  0.11567  0.76219  1.0000
  S   S229      1.0  0.63989  0.10891  0.49961  1.0000
  H   H891      1.0  0.61964  0.11072  0.57539  1.0000
  C   C568      1.0  0.65381  0.15179  0.17301  1.0000
  C   C569      1.0  0.64996  0.19451  0.95548  1.0000
  H   H892      1.0  0.59279  0.10975  0.52641  1.0000
  H   H893      1.0  0.63867  0.16608  0.81329  1.0000
  H   H894      1.0  0.60703  0.13756  0.56015  1.0000
  H   H895      1.0  0.64642  0.11269  0.64995  1.0000
  C   C570      1.0  0.59448  0.11651  0.54693  1.0000
  S   S230      1.0  0.64562  0.12766  0.84980  1.0000
  Fe  Fe118     1.0  0.63423  0.12735  0.79978  1.0000
  H   H896      1.0  0.63755  0.14546  0.25522  1.0000
  H   H897      1.0  0.63555  0.15411  0.13359  1.0000
  H   H898      1.0  0.54457  0.02238  0.05941  1.0000
  H   H899      1.0  0.62536  0.12789  0.50157  1.0000
  C   C571      1.0  0.65037  0.21873  0.95797  1.0000
  N   N54       1.0  0.60737  0.11980  0.54876  1.0000
  C   C572      1.0  0.60921  0.12894  0.57575  1.0000
  H   H900      1.0  0.66212  0.15556  0.18364  1.0000
  H   H901      1.0  0.60322  0.12512  0.61187  1.0000
  H   H902      1.0  0.63307  0.15948  0.24909  1.0000
  H   H903      1.0  0.61884  0.13160  0.57791  1.0000
  C   C573      1.0  0.64069  0.15557  0.23725  1.0000
  H   H904      1.0  0.58806  0.11222  0.58224  1.0000
  H   H905      1.0  0.64851  0.15978  0.24960  1.0000
  H   H906      1.0  0.63782  0.09493  0.89895  1.0000
  C   C574      1.0  0.61022  0.10849  0.57116  1.0000
  N   N55       1.0  0.64419  0.15781  0.18645  1.0000
  H   H907      1.0  0.65672  0.15332  0.13488  1.0000
  H   H908      1.0  0.65720  0.17562  0.17401  1.0000
  H   H909      1.0  0.64195  0.17621  0.17353  1.0000
  C   C575      1.0  0.63332  0.15250  0.17180  1.0000
  H   H910      1.0  0.61461  0.11852  0.48013  1.0000
  C   C576      1.0  0.52505  0.06589  0.17668  1.0000
  S   S231      1.0  0.65336  0.10728  0.37076  1.0000
  H   H911      1.0  0.54798  0.14994  0.78764  1.0000
  C   C577      1.0  0.56415  0.03701  0.97794  1.0000
  C   C578      1.0  0.64893  0.17134  0.16391  1.0000
  H   H912      1.0  0.54819  0.04679  0.12163  1.0000
  S   S232      1.0  0.66935  0.13558  0.75800  1.0000
  H   H913      1.0  0.54408  0.13792  0.84092  1.0000
  H   H914      1.0  0.55924  0.13874  0.32479  1.0000
  C   C579      1.0  0.52016  0.07197  0.84630  1.0000
  C   C580      1.0  0.66983  0.17208  0.89815  1.0000
  S   S233      1.0  0.51567  0.01804  0.03629  1.0000
  H   H915      1.0  0.62045  0.03362  0.97194  1.0000
  H   H916      1.0  0.59376  0.25862  0.86356  1.0000
  C   C581      1.0  0.66401  0.11392  0.93900  1.0000
  C   C582      1.0  0.66777  0.13562  0.93674  1.0000
  H   H917      1.0  0.67078  0.10733  0.42944  1.0000
  C   C583      1.0  0.53133  0.02506  0.13743  1.0000
  H   H918      1.0  0.55807  0.02183  0.07840  1.0000
  S   S234      1.0  0.67185  0.22323  0.98328  1.0000
  H   H919      1.0  0.67129  0.19798  0.88679  1.0000
  H   H920      1.0  0.66910  0.11511  0.49782  1.0000
  H   H921      1.0  0.66296  0.13299  0.97426  1.0000
  H   H922      1.0  0.67201  0.13050  0.85488  1.0000
  C   C584      1.0  0.67194  0.13159  0.41677  1.0000
  H   H923      1.0  0.67233  0.14006  0.42903  1.0000
  H   H924      1.0  0.66931  0.17780  0.24755  1.0000
  N   N56       1.0  0.67345  0.12606  0.92464  1.0000
  C   C585      1.0  0.61370  0.01843  0.05811  1.0000
  H   H925      1.0  0.51318  0.06342  0.03736  1.0000
  C   C586      1.0  0.67209  0.15961  0.26188  1.0000
  H   H926      1.0  0.51618  0.07961  0.00971  1.0000
  C   C587      1.0  0.61575  0.02369  0.97601  1.0000
  H   H927      1.0  0.67659  0.22588  0.86819  1.0000
  H   H928      1.0  0.60579  0.02271  0.98180  1.0000
  H   H929      1.0  0.61908  0.02168  0.94254  1.0000
  H   H930      1.0  0.67476  0.14474  0.92870  1.0000
  H   H931      1.0  0.67565  0.18152  0.94708  1.0000
  C   C588      1.0  0.67411  0.17172  0.23432  1.0000
  S   S235      1.0  0.67669  0.13692  0.28120  1.0000
  Fe  Fe119     1.0  0.61676  0.30031  0.93961  1.0000
  S   S236      1.0  0.63155  0.31595  0.88500  1.0000
  H   H932      1.0  0.56365  0.40105  0.78030  1.0000
  Fe  Fe120     1.0  0.60291  0.31821  0.96720  1.0000
  S   S237      1.0  0.61614  0.33467  0.91281  1.0000
  S   S238      1.0  0.58753  0.32252  0.01280  1.0000
  Fe  Fe121     1.0  0.61588  0.32220  0.86665  1.0000
  S   S239      1.0  0.61759  0.32984  0.79101  1.0000
  Fe  Fe122     1.0  0.63061  0.32724  0.93664  1.0000
  S   S240      1.0  0.64600  0.34352  0.93713  1.0000
  S   S241      1.0  0.60112  0.30618  0.91849  1.0000
  S   S242      1.0  0.61727  0.31111  0.99352  1.0000
  Fe  Fe123     1.0  0.57368  0.38289  0.17138  1.0000
  S   S243      1.0  0.59133  0.39239  0.11637  1.0000
  S   S244      1.0  0.55699  0.38866  0.15978  1.0000
  Fe  Fe124     1.0  0.58620  0.37111  0.24097  1.0000
  S   S245      1.0  0.60474  0.37965  0.18967  1.0000
  S   S246      1.0  0.58629  0.36000  0.31196  1.0000
  Fe  Fe125     1.0  0.59864  0.39673  0.17406  1.0000
  S   S247      1.0  0.60992  0.41560  0.17030  1.0000
  Fe  Fe126     1.0  0.59572  0.37433  0.13662  1.0000
  S   S248      1.0  0.60805  0.36908  0.08184  1.0000
  S   S249      1.0  0.58073  0.38868  0.22838  1.0000
  S   S250      1.0  0.57744  0.36418  0.18851  1.0000
  Fe  Fe127     1.0  0.61762  0.42603  0.38775  1.0000
  S   S251      1.0  0.61298  0.44209  0.40887  1.0000
  S   S252      1.0  0.60402  0.40989  0.38233  1.0000
  Fe  Fe128     1.0  0.64459  0.43579  0.37629  1.0000
  H   H933      1.0  0.60989  0.30314  0.77831  1.0000
  Fe  Fe129     1.0  0.62596  0.44020  0.45308  1.0000
  H   H934      1.0  0.63500  0.31386  0.78938  1.0000
  Fe  Fe130     1.0  0.62958  0.45340  0.35072  1.0000
  S   S253      1.0  0.62896  0.46938  0.29434  1.0000
  S   S254      1.0  0.62917  0.42299  0.43570  1.0000
  S   S255      1.0  0.63324  0.43724  0.32653  1.0000
  Fe  Fe131     1.0  0.58003  0.38862  0.63703  1.0000
  S   S256      1.0  0.56778  0.37152  0.62934  1.0000
  S   S257      1.0  0.57629  0.40595  0.65295  1.0000
  Fe  Fe132     1.0  0.60312  0.38089  0.60445  1.0000
  S   S258      1.0  0.59296  0.36338  0.59195  1.0000
  S   S259      1.0  0.62311  0.38809  0.59796  1.0000
  Fe  Fe133     1.0  0.58181  0.37499  0.56129  1.0000
  S   S260      1.0  0.57611  0.37875  0.49421  1.0000
  Fe  Fe134     1.0  0.57991  0.36138  0.66067  1.0000
  S   S261      1.0  0.57371  0.34427  0.72196  1.0000
  S   S262      1.0  0.59344  0.39262  0.56813  1.0000
  S   S263      1.0  0.59077  0.37827  0.67421  1.0000
  Fe  Fe135     1.0  0.64552  0.41779  0.83534  1.0000
  S   S264      1.0  0.62624  0.40865  0.87757  1.0000
  N   N57       1.0  0.58124  0.40231  0.79313  1.0000
  Fe  Fe136     1.0  0.63720  0.43321  0.75979  1.0000
  S   S265      1.0  0.61719  0.42506  0.79818  1.0000
  S   S266      1.0  0.64430  0.44589  0.68631  1.0000
  Fe  Fe137     1.0  0.62346  0.42764  0.86112  1.0000
  S   S267      1.0  0.61257  0.43055  0.92665  1.0000
  Fe  Fe138     1.0  0.62204  0.40705  0.81165  1.0000
  S   S268      1.0  0.61246  0.38828  0.80700  1.0000
  S   S269      1.0  0.64328  0.43707  0.82221  1.0000
  S   S270      1.0  0.64149  0.41497  0.76970  1.0000
  S   S271      1.0  0.54863  0.42433  0.85752  1.0000
  H   H935      1.0  0.59783  0.41480  0.74435  1.0000
  S   S272      1.0  0.55266  0.45898  0.86501  1.0000
  S   S273      1.0  0.56896  0.47837  0.13895  1.0000
  Fe  Fe139     1.0  0.59462  0.48129  0.03146  1.0000
  S   S274      1.0  0.58150  0.46298  0.07474  1.0000
  S   S275      1.0  0.60849  0.48163  0.96679  1.0000
  Fe  Fe140     1.0  0.56735  0.47322  0.07410  1.0000
  S   S276      1.0  0.54881  0.46521  0.06542  1.0000
  Fe  Fe141     1.0  0.58469  0.47012  0.13507  1.0000
  S   S277      1.0  0.58546  0.45755  0.20139  1.0000
  S   S278      1.0  0.58008  0.49124  0.02669  1.0000
  C   C589      1.0  0.55128  0.46241  0.91840  1.0000
  C   C590      1.0  0.56163  0.46879  0.92874  1.0000
  C   C591      1.0  0.56092  0.46973  0.97390  1.0000
  C   C592      1.0  0.54976  0.46469  0.00829  1.0000
  C   C593      1.0  0.53927  0.45894  0.99719  1.0000
  C   C594      1.0  0.54005  0.45775  0.95237  1.0000
  H   H936      1.0  0.57031  0.47255  0.90241  1.0000
  H   H937      1.0  0.56909  0.47415  0.98211  1.0000
  H   H938      1.0  0.53061  0.45501  0.02367  1.0000
  H   H939      1.0  0.53198  0.45301  0.94431  1.0000
  C   C595      1.0  0.61333  0.44515  0.93777  1.0000
  C   C596      1.0  0.60815  0.44541  0.98305  1.0000
  C   C597      1.0  0.60680  0.45655  0.99243  1.0000
  C   C598      1.0  0.61081  0.46762  0.95673  1.0000
  C   C599      1.0  0.61658  0.46748  0.91186  1.0000
  C   C600      1.0  0.61780  0.45628  0.90231  1.0000
  H   H940      1.0  0.60490  0.43690  0.01093  1.0000
  H   H941      1.0  0.60272  0.45658  0.02733  1.0000
  H   H942      1.0  0.61984  0.47603  0.88411  1.0000
  H   H943      1.0  0.62185  0.45624  0.86730  1.0000
  C   C601      1.0  0.56256  0.40636  0.68895  1.0000
  C   C602      1.0  0.56228  0.41726  0.70220  1.0000
  C   C603      1.0  0.55178  0.41782  0.73296  1.0000
  H   H944      1.0  0.57029  0.42527  0.68910  1.0000
  H   H945      1.0  0.55169  0.42624  0.74320  1.0000
  C   C604      1.0  0.62257  0.38853  0.65506  1.0000
  C   C605      1.0  0.62320  0.39966  0.66722  1.0000
  C   C606      1.0  0.62050  0.39960  0.71393  1.0000
  C   C607      1.0  0.61686  0.38838  0.74866  1.0000
  C   C608      1.0  0.61644  0.37726  0.73662  1.0000
  C   C609      1.0  0.61936  0.37737  0.68987  1.0000
  H   H946      1.0  0.62512  0.40827  0.64093  1.0000
  H   H947      1.0  0.62074  0.40822  0.72295  1.0000
  H   H948      1.0  0.61372  0.36853  0.76311  1.0000
  H   H949      1.0  0.61866  0.36876  0.68054  1.0000
  C   C610      1.0  0.62537  0.44002  0.57233  1.0000
  C   C611      1.0  0.54129  0.40765  0.74920  1.0000
  C   C612      1.0  0.64175  0.43573  0.17558  1.0000
  C   C613      1.0  0.63689  0.44335  0.64297  1.0000
  C   C614      1.0  0.64274  0.45004  0.59649  1.0000
  C   C615      1.0  0.63707  0.44831  0.56124  1.0000
  H   H950      1.0  0.63697  0.43646  0.20991  1.0000
  C   C616      1.0  0.65794  0.43035  0.20563  1.0000
  H   H951      1.0  0.65168  0.45666  0.58781  1.0000
  H   H952      1.0  0.64161  0.45362  0.52569  1.0000
  C   C617      1.0  0.61722  0.46568  0.26710  1.0000
  C   C618      1.0  0.61831  0.47283  0.22243  1.0000
  C   C619      1.0  0.60877  0.47026  0.20122  1.0000
  C   C620      1.0  0.59805  0.46062  0.22488  1.0000
  C   C621      1.0  0.59707  0.45338  0.26914  1.0000
  C   C622      1.0  0.60660  0.45590  0.29016  1.0000
  H   H953      1.0  0.62656  0.48033  0.20420  1.0000
  H   H954      1.0  0.60974  0.47570  0.16664  1.0000
  H   H955      1.0  0.58885  0.44587  0.28762  1.0000
  H   H956      1.0  0.60561  0.45040  0.32462  1.0000
  C   C623      1.0  0.58358  0.36536  0.36238  1.0000
  C   C624      1.0  0.57933  0.37579  0.36281  1.0000
  C   C625      1.0  0.57724  0.37978  0.40327  1.0000
  C   C626      1.0  0.57931  0.37341  0.44397  1.0000
  C   C627      1.0  0.58350  0.36294  0.44379  1.0000
  C   C628      1.0  0.58563  0.35895  0.40317  1.0000
  H   H957      1.0  0.57768  0.38082  0.33192  1.0000
  H   H958      1.0  0.57404  0.38791  0.40289  1.0000
  H   H959      1.0  0.58478  0.35773  0.47520  1.0000
  H   H960      1.0  0.58873  0.35076  0.40349  1.0000
  C   C629      1.0  0.55560  0.39266  0.10274  1.0000
  C   C630      1.0  0.56316  0.39002  0.06665  1.0000
  C   C631      1.0  0.56155  0.39284  0.02194  1.0000
  C   C632      1.0  0.55247  0.39844  0.01277  1.0000
  C   C633      1.0  0.54513  0.40143  0.04850  1.0000
  C   C634      1.0  0.54666  0.39847  0.09342  1.0000
  H   H961      1.0  0.57000  0.38546  0.07346  1.0000
  H   H962      1.0  0.56727  0.39051  0.99448  1.0000
  H   H963      1.0  0.54074  0.40050  0.12122  1.0000
  C   C635      1.0  0.60894  0.41448  0.22863  1.0000
  C   C636      1.0  0.60612  0.40273  0.25950  1.0000
  C   C637      1.0  0.60444  0.40137  0.30669  1.0000
  C   C638      1.0  0.60566  0.41177  0.32337  1.0000
  C   C639      1.0  0.60870  0.42362  0.29261  1.0000
  C   C640      1.0  0.61034  0.42500  0.24505  1.0000
  H   H964      1.0  0.60516  0.39456  0.24744  1.0000
  H   H965      1.0  0.60229  0.39223  0.33015  1.0000
  H   H966      1.0  0.60956  0.43169  0.30562  1.0000
  H   H967      1.0  0.61238  0.43414  0.22149  1.0000
  H   H968      1.0  0.65917  0.36637  0.94987  1.0000
  C   C641      1.0  0.58582  0.34006  0.74120  1.0000
  C   C642      1.0  0.58335  0.33096  0.78326  1.0000
  C   C643      1.0  0.59301  0.32782  0.79944  1.0000
  C   C644      1.0  0.60516  0.33361  0.77304  1.0000
  C   C645      1.0  0.60757  0.34245  0.73062  1.0000
  C   C646      1.0  0.59797  0.34579  0.71504  1.0000
  H   H969      1.0  0.57395  0.32638  0.80329  1.0000
  H   H970      1.0  0.59105  0.32080  0.83178  1.0000
  H   H971      1.0  0.61693  0.34682  0.70978  1.0000
  H   H972      1.0  0.59996  0.35273  0.68245  1.0000
  C   C647      1.0  0.59315  0.33489  0.03513  1.0000
  C   C648      1.0  0.60575  0.34052  0.02429  1.0000
  C   C649      1.0  0.61018  0.35101  0.03876  1.0000
  C   C650      1.0  0.60206  0.35578  0.06521  1.0000
  C   C651      1.0  0.58945  0.34998  0.07727  1.0000
  C   C652      1.0  0.58500  0.33959  0.06194  1.0000
  H   H973      1.0  0.61215  0.33682  0.00473  1.0000
  H   H974      1.0  0.61994  0.35540  0.02943  1.0000
  H   H975      1.0  0.58312  0.35360  0.09778  1.0000
  H   H976      1.0  0.57524  0.33525  0.07064  1.0000
  C   C653      1.0  0.65041  0.34699  0.98589  1.0000
  C   C654      1.0  0.65721  0.35918  0.98175  1.0000
  C   C655      1.0  0.66173  0.36213  0.01829  1.0000
  C   C656      1.0  0.65974  0.35284  0.05905  1.0000
  C   C657      1.0  0.65275  0.34071  0.06354  1.0000
  C   C658      1.0  0.64798  0.33782  0.02741  1.0000
  H   H977      1.0  0.63708  0.36604  0.90932  1.0000
  C   C659      1.0  0.64921  0.40211  0.30364  1.0000
  H   H978      1.0  0.64284  0.32840  0.03098  1.0000
  H   H979      1.0  0.58410  0.41651  0.22970  1.0000
  C   C660      1.0  0.63759  0.37404  0.88034  1.0000
  H   H980      1.0  0.62251  0.36448  0.44098  1.0000
  C   C661      1.0  0.58646  0.40185  0.83305  1.0000
  H   H981      1.0  0.58558  0.40969  0.84814  1.0000
  H   H982      1.0  0.59634  0.40247  0.82273  1.0000
  H   H983      1.0  0.58180  0.39305  0.86096  1.0000
  H   H984      1.0  0.59230  0.39200  0.76213  1.0000
  H   H985      1.0  0.57868  0.39188  0.74392  1.0000
  C   C662      1.0  0.58233  0.45023  0.93496  1.0000
  H   H986      1.0  0.59227  0.45120  0.92393  1.0000
  H   H987      1.0  0.58077  0.45475  0.96342  1.0000
  H   H988      1.0  0.58005  0.45565  0.90503  1.0000
  H   H989      1.0  0.55920  0.44102  0.93218  1.0000
  N   N58       1.0  0.64881  0.42657  0.18075  1.0000
  C   C663      1.0  0.64036  0.41420  0.20733  1.0000
  C   C664      1.0  0.52960  0.47703  0.86678  1.0000
  C   C665      1.0  0.53074  0.50568  0.09078  1.0000
  C   C666      1.0  0.65517  0.42600  0.13458  1.0000
  C   C667      1.0  0.61259  0.26783  0.92876  1.0000
  H   H990      1.0  0.55233  0.50095  0.09314  1.0000
  H   H991      1.0  0.65348  0.43066  0.24100  1.0000
  H   H992      1.0  0.61856  0.28108  0.75514  1.0000
  Fe  Fe142     1.0  0.51607  0.42257  0.92649  1.0000
  H   H993      1.0  0.63404  0.29005  0.72437  1.0000
  H   H994      1.0  0.53304  0.47623  0.12159  1.0000
  H   H995      1.0  0.53495  0.47827  0.89228  1.0000
  H   H996      1.0  0.61452  0.51296  0.17234  1.0000
  C   C668      1.0  0.52926  0.49045  0.04735  1.0000
  H   H997      1.0  0.53247  0.49784  0.01388  1.0000
  N   N59       1.0  0.57725  0.41731  0.51062  1.0000
  C   C669      1.0  0.57124  0.42630  0.49039  1.0000
  C   C670      1.0  0.56790  0.40675  0.54628  1.0000
  C   C671      1.0  0.58626  0.42355  0.53182  1.0000
  C   C672      1.0  0.58355  0.41273  0.47375  1.0000
  H   H998      1.0  0.56635  0.42992  0.51731  1.0000
  H   H999      1.0  0.56444  0.42193  0.47380  1.0000
  H   H1000     1.0  0.57806  0.43440  0.46341  1.0000
  H   H1001     1.0  0.57209  0.39975  0.56196  1.0000
  H   H1002     1.0  0.56307  0.40982  0.57509  1.0000
  H   H1003     1.0  0.56097  0.40184  0.53145  1.0000
  H   H1004     1.0  0.58181  0.42690  0.56049  1.0000
  H   H1005     1.0  0.59339  0.43165  0.50608  1.0000
  H   H1006     1.0  0.59116  0.41719  0.54697  1.0000
  H   H1007     1.0  0.58857  0.40624  0.48705  1.0000
  H   H1008     1.0  0.59036  0.42047  0.44544  1.0000
  H   H1009     1.0  0.57703  0.40754  0.45804  1.0000
  N   N60       1.0  0.62569  0.29652  0.78023  1.0000
  C   C673      1.0  0.63023  0.28902  0.81453  1.0000
  C   C674      1.0  0.61341  0.29714  0.80272  1.0000
  H   H1010     1.0  0.62441  0.27920  0.82759  1.0000
  H   H1011     1.0  0.63027  0.29271  0.84521  1.0000
  H   H1012     1.0  0.63974  0.28886  0.79948  1.0000
  H   H1013     1.0  0.61360  0.30118  0.83241  1.0000
  H   H1014     1.0  0.60664  0.28777  0.81600  1.0000
  H   H1015     1.0  0.63880  0.38493  0.41265  1.0000
  H   H1016     1.0  0.58758  0.42951  0.98012  1.0000
  H   H1017     1.0  0.60180  0.38296  0.47575  1.0000
  H   H1018     1.0  0.63132  0.36116  0.82148  1.0000
  H   H1019     1.0  0.65175  0.38471  0.76494  1.0000
  Fe  Fe143     1.0  0.54132  0.43935  0.87810  1.0000
  H   H1020     1.0  0.56685  0.40988  0.81998  1.0000
  H   H1021     1.0  0.61320  0.39758  0.45499  1.0000
  N   N61       1.0  0.57258  0.42227  0.18818  1.0000
  C   C675      1.0  0.56902  0.43357  0.17118  1.0000
  N   N62       1.0  0.51642  0.47525  0.88707  1.0000
  H   H1022     1.0  0.63488  0.39853  0.42249  1.0000
  H   H1023     1.0  0.55956  0.44075  0.99038  1.0000
  H   H1024     1.0  0.55226  0.38768  0.69541  1.0000
  C   C676      1.0  0.57773  0.43151  0.91068  1.0000
  C   C677      1.0  0.55213  0.39611  0.70555  1.0000
  N   N63       1.0  0.62767  0.35302  0.16473  1.0000
  C   C678      1.0  0.61425  0.34912  0.17227  1.0000
  C   C679      1.0  0.63220  0.34194  0.16941  1.0000
  C   C680      1.0  0.63067  0.35946  0.19942  1.0000
  C   C681      1.0  0.63359  0.36155  0.11778  1.0000
  H   H1025     1.0  0.61168  0.34456  0.14578  1.0000
  H   H1026     1.0  0.61045  0.35718  0.17003  1.0000
  H   H1027     1.0  0.60948  0.34249  0.20703  1.0000
  H   H1028     1.0  0.64226  0.34449  0.16499  1.0000
  H   H1029     1.0  0.62775  0.33517  0.20406  1.0000
  H   H1030     1.0  0.63039  0.33708  0.14281  1.0000
  H   H1031     1.0  0.62632  0.35334  0.23532  1.0000
  H   H1032     1.0  0.62740  0.36790  0.19669  1.0000
  H   H1033     1.0  0.64075  0.36251  0.19476  1.0000
  H   H1034     1.0  0.64372  0.36471  0.11106  1.0000
  H   H1035     1.0  0.63029  0.36996  0.11287  1.0000
  H   H1036     1.0  0.63161  0.35699  0.09061  1.0000
  S   S279      1.0  0.59876  0.48791  0.09209  1.0000
  C   C682      1.0  0.66285  0.41125  0.91134  1.0000
  C   C683      1.0  0.58250  0.39172  0.77428  1.0000
  H   H1037     1.0  0.57528  0.43634  0.88001  1.0000
  H   H1038     1.0  0.65120  0.33343  0.09481  1.0000
  H   H1039     1.0  0.53809  0.40571  0.04186  1.0000
  C   C684      1.0  0.58791  0.41405  0.75669  1.0000
  C   C685      1.0  0.56813  0.40161  0.80850  1.0000
  H   H1040     1.0  0.58718  0.42232  0.76916  1.0000
  H   H1041     1.0  0.57764  0.38267  0.80050  1.0000
  N   N64       1.0  0.57501  0.43705  0.94946  1.0000
  H   H1042     1.0  0.58766  0.43216  0.89977  1.0000
  C   C686      1.0  0.63419  0.30922  0.76149  1.0000
  S   S280      1.0  0.65857  0.40828  0.86234  1.0000
  H   H1043     1.0  0.55470  0.41003  0.19797  1.0000
  H   H1044     1.0  0.61496  0.40541  0.97191  1.0000
  H   H1045     1.0  0.57198  0.42044  0.00364  1.0000
  C   C687      1.0  0.62493  0.29069  0.74212  1.0000
  H   H1046     1.0  0.56300  0.39323  0.83794  1.0000
  C   C688      1.0  0.56187  0.43628  0.96227  1.0000
  Fe  Fe144     1.0  0.58271  0.49585  0.09182  1.0000
  H   H1047     1.0  0.64354  0.30918  0.74383  1.0000
  S   S281      1.0  0.61845  0.28041  0.95082  1.0000
  S   S282      1.0  0.64249  0.45313  0.39649  1.0000
  C   C689      1.0  0.60410  0.26815  0.90274  1.0000
  H   H1048     1.0  0.64179  0.42435  0.99742  1.0000
  H   H1049     1.0  0.64143  0.41275  0.34549  1.0000
  H   H1050     1.0  0.66053  0.41910  0.13732  1.0000
  S   S283      1.0  0.61766  0.43773  0.52959  1.0000
  H   H1051     1.0  0.66436  0.43973  0.18697  1.0000
  C   C690      1.0  0.53022  0.48461  0.12645  1.0000
  S   S284      1.0  0.52458  0.43436  0.85357  1.0000
  H   H1052     1.0  0.58430  0.41467  0.72585  1.0000
  C   C691      1.0  0.64079  0.36222  0.82502  1.0000
  C   C692      1.0  0.58694  0.49101  0.21839  1.0000
  C   C693      1.0  0.57806  0.43016  0.98975  1.0000
  H   H1053     1.0  0.55606  0.42645  0.97442  1.0000
  H   H1054     1.0  0.57716  0.43472  0.01826  1.0000
  H   H1055     1.0  0.57251  0.42152  0.92063  1.0000
  C   C694      1.0  0.59267  0.51185  0.22600  1.0000
  H   H1056     1.0  0.64659  0.36184  0.79193  1.0000
  S   S285      1.0  0.66600  0.35584  0.10476  1.0000
  H   H1057     1.0  0.66740  0.39399  0.92924  1.0000
  H   H1058     1.0  0.53333  0.38896  0.74732  1.0000
  Fe  Fe145     1.0  0.53868  0.41279  0.93028  1.0000
  H   H1059     1.0  0.60592  0.48872  0.25216  1.0000
  H   H1060     1.0  0.55128  0.49020  0.05899  1.0000
  C   C695      1.0  0.54144  0.39684  0.73504  1.0000
  C   C696      1.0  0.63254  0.38827  0.43652  1.0000
  H   H1061     1.0  0.62254  0.38003  0.37203  1.0000
  H   H1062     1.0  0.63459  0.38641  0.47069  1.0000
  H   H1063     1.0  0.62007  0.39460  0.37677  1.0000
  C   C697      1.0  0.62526  0.43493  0.65391  1.0000
  Fe  Fe146     1.0  0.53079  0.41787  0.84153  1.0000
  N   N65       1.0  0.61955  0.38226  0.44095  1.0000
  C   C698      1.0  0.61733  0.38450  0.39470  1.0000
  H   H1064     1.0  0.61032  0.49744  0.16687  1.0000
  H   H1065     1.0  0.62970  0.39001  0.01673  1.0000
  H   H1066     1.0  0.56236  0.43193  0.15044  1.0000
  N   N66       1.0  0.62668  0.40780  0.01657  1.0000
  H   H1067     1.0  0.61787  0.36673  0.49757  1.0000
  H   H1068     1.0  0.63662  0.38431  0.79489  1.0000
  H   H1069     1.0  0.60743  0.38082  0.39717  1.0000
  C   C699      1.0  0.61661  0.36875  0.46210  1.0000
  H   H1070     1.0  0.64337  0.40248  0.00558  1.0000
  C   C700      1.0  0.64978  0.41147  0.32659  1.0000
  H   H1071     1.0  0.62705  0.42708  0.00224  1.0000
  H   H1072     1.0  0.64535  0.40703  0.21171  1.0000
  C   C701      1.0  0.65978  0.42305  0.48006  1.0000
  H   H1073     1.0  0.59582  0.49398  0.29072  1.0000
  H   H1074     1.0  0.56477  0.43690  0.20029  1.0000
  H   H1075     1.0  0.53467  0.50920  0.11707  1.0000
  C   C702      1.0  0.61949  0.43337  0.61882  1.0000
  H   H1076     1.0  0.60691  0.36396  0.46516  1.0000
  C   C703      1.0  0.63269  0.42104  0.99138  1.0000
  C   C704      1.0  0.65995  0.40060  0.27762  1.0000
  H   H1077     1.0  0.55703  0.41486  0.24818  1.0000
  C   C705      1.0  0.61167  0.38752  0.47071  1.0000
  H   H1078     1.0  0.58997  0.43226  0.19403  1.0000
  H   H1079     1.0  0.56769  0.35026  0.92331  1.0000
  C   C706      1.0  0.54805  0.49811  0.06658  1.0000
  H   H1080     1.0  0.61043  0.42694  0.62771  1.0000
  H   H1081     1.0  0.66708  0.37151  0.01428  1.0000
  H   H1082     1.0  0.57188  0.41606  0.12733  1.0000
  H   H1083     1.0  0.55170  0.50590  0.03429  1.0000
  H   H1084     1.0  0.61338  0.38638  0.50542  1.0000
  H   H1085     1.0  0.53360  0.48535  0.83631  1.0000
  C   C707      1.0  0.61440  0.40402  0.00918  1.0000
  H   H1086     1.0  0.66175  0.43512  0.11357  1.0000
  H   H1087     1.0  0.58130  0.41002  0.15971  1.0000
  H   H1088     1.0  0.66194  0.38360  0.85021  1.0000
  N   N67       1.0  0.64561  0.37392  0.83631  1.0000
  C   C708      1.0  0.57835  0.41841  0.14820  1.0000
  H   H1089     1.0  0.56381  0.40350  0.23056  1.0000
  C   C709      1.0  0.56154  0.41226  0.21757  1.0000
  C   C710      1.0  0.58141  0.42492  0.21548  1.0000
  H   H1090     1.0  0.57716  0.44125  0.14898  1.0000
  H   H1091     1.0  0.58666  0.42581  0.12520  1.0000
  H   H1092     1.0  0.62062  0.42981  0.68950  1.0000
  H   H1093     1.0  0.63091  0.31521  0.73616  1.0000
  H   H1094     1.0  0.64107  0.38271  0.89000  1.0000
  H   H1095     1.0  0.64052  0.35399  0.85242  1.0000
  C   C711      1.0  0.66615  0.42446  0.96208  1.0000
  C   C712      1.0  0.65896  0.43147  0.54588  1.0000
  H   H1096     1.0  0.64779  0.44517  0.15529  1.0000
  N   N68       1.0  0.58539  0.34829  0.89457  1.0000
  H   H1097     1.0  0.58856  0.33033  0.91061  1.0000
  C   C713      1.0  0.58096  0.33457  0.90785  1.0000
  C   C714      1.0  0.57507  0.35347  0.89011  1.0000
  H   H1098     1.0  0.51972  0.48771  0.92921  1.0000
  H   H1099     1.0  0.57812  0.36381  0.88006  1.0000
  H   H1100     1.0  0.63329  0.41110  0.18970  1.0000
  H   H1101     1.0  0.63517  0.41994  0.56800  1.0000
  S   S286      1.0  0.55071  0.40149  0.95614  1.0000
  H   H1102     1.0  0.61988  0.41179  0.08064  1.0000
  H   H1103     1.0  0.59115  0.35052  0.82125  1.0000
  C   C715      1.0  0.66231  0.42219  0.92352  1.0000
  H   H1104     1.0  0.60965  0.39403  0.02701  1.0000
  H   H1105     1.0  0.62810  0.37352  0.87784  1.0000
  H   H1106     1.0  0.66322  0.40919  0.55655  1.0000
  C   C716      1.0  0.62542  0.40604  0.06654  1.0000
  H   H1107     1.0  0.64974  0.39354  0.80594  1.0000
  C   C717      1.0  0.63416  0.40009  0.99934  1.0000
  H   H1108     1.0  0.66450  0.37505  0.80831  1.0000
  H   H1109     1.0  0.59008  0.48296  0.21169  1.0000
  C   C718      1.0  0.64030  0.42079  0.53218  1.0000
  H   H1110     1.0  0.57755  0.42829  0.24508  1.0000
  H   H1111     1.0  0.64850  0.40747  0.59446  1.0000
  H   H1112     1.0  0.57403  0.33084  0.94225  1.0000
  H   H1113     1.0  0.66955  0.42328  0.47603  1.0000
  H   H1114     1.0  0.61061  0.50426  0.25682  1.0000
  C   C719      1.0  0.64593  0.38457  0.79884  1.0000
  N   N69       1.0  0.53455  0.49472  0.08280  1.0000
  H   H1115     1.0  0.53409  0.48752  0.15387  1.0000
  H   H1116     1.0  0.60850  0.40961  0.02205  1.0000
  H   H1117     1.0  0.65929  0.42905  0.90245  1.0000
  H   H1118     1.0  0.53197  0.48215  0.04079  1.0000
  H   H1119     1.0  0.59832  0.34850  0.93516  1.0000
  S   S287      1.0  0.53260  0.42832  0.95204  1.0000
  C   C720      1.0  0.59492  0.35277  0.84978  1.0000
  H   H1120     1.0  0.58252  0.49403  0.19100  1.0000
  H   H1121     1.0  0.57669  0.33116  0.88213  1.0000
  C   C721      1.0  0.51474  0.48617  0.90288  1.0000
  H   H1122     1.0  0.51632  0.46483  0.95431  1.0000
  C   C722      1.0  0.65813  0.37492  0.84102  1.0000
  H   H1123     1.0  0.58364  0.34912  0.96481  1.0000
  H   H1124     1.0  0.59885  0.36302  0.83994  1.0000
  H   H1125     1.0  0.60258  0.34854  0.85085  1.0000
  H   H1126     1.0  0.65826  0.36696  0.86864  1.0000
  H   H1127     1.0  0.63413  0.42263  0.95335  1.0000
  S   S288      1.0  0.66202  0.43043  0.35622  1.0000
  H   H1128     1.0  0.62081  0.39616  0.08652  1.0000
  H   H1129     1.0  0.65553  0.41556  0.46581  1.0000
  C   C723      1.0  0.59060  0.35236  0.93051  1.0000
  H   H1130     1.0  0.59412  0.36266  0.92161  1.0000
  H   H1131     1.0  0.63564  0.40145  0.96143  1.0000
  H   H1132     1.0  0.64040  0.39614  0.30528  1.0000
  S   S289      1.0  0.65870  0.38876  0.24912  1.0000
  H   H1133     1.0  0.57093  0.35057  0.86317  1.0000
  C   C724      1.0  0.66113  0.41908  0.32541  1.0000
  H   H1134     1.0  0.63961  0.42943  0.50973  1.0000
  H   H1135     1.0  0.53117  0.46886  0.85505  1.0000
  H   H1136     1.0  0.62151  0.29612  0.71570  1.0000
  H   H1137     1.0  0.63461  0.43308  0.15765  1.0000
  C   C725      1.0  0.67027  0.41570  0.98918  1.0000
  H   H1138     1.0  0.63543  0.41427  0.24247  1.0000
  H   H1139     1.0  0.63451  0.40873  0.07346  1.0000
  S   S290      1.0  0.52784  0.40848  0.78582  1.0000
  H   H1140     1.0  0.53390  0.51353  0.05857  1.0000
  S   S291      1.0  0.52103  0.40554  0.91325  1.0000
  C   C726      1.0  0.60263  0.49689  0.25622  1.0000
  H   H1141     1.0  0.65412  0.43035  0.58258  1.0000
  H   H1142     1.0  0.66871  0.43204  0.54404  1.0000
  N   N70       1.0  0.65319  0.42114  0.52890  1.0000
  S   S292      1.0  0.66353  0.38791  0.12724  1.0000
  H   H1143     1.0  0.58544  0.50918  0.25933  1.0000
  H   H1144     1.0  0.66603  0.43309  0.97067  1.0000
  H   H1145     1.0  0.64936  0.40126  0.54573  1.0000
  H   H1146     1.0  0.52060  0.50349  0.10327  1.0000
  H   H1147     1.0  0.66357  0.42376  0.20945  1.0000
  C   C727      1.0  0.65364  0.40925  0.55761  1.0000
  H   H1148     1.0  0.63540  0.41273  0.52214  1.0000
  H   H1149     1.0  0.64859  0.42325  0.11462  1.0000
  N   N71       1.0  0.59723  0.50123  0.21859  1.0000
  H   H1150     1.0  0.65869  0.44057  0.52513  1.0000
  H   H1151     1.0  0.51907  0.48788  0.05832  1.0000
  H   H1152     1.0  0.65965  0.43200  0.45753  1.0000
  C   C728      1.0  0.66695  0.40247  0.93848  1.0000
  H   H1153     1.0  0.60057  0.27610  0.89688  1.0000
  H   H1154     1.0  0.57976  0.48757  0.25205  1.0000
  H   H1155     1.0  0.51807  0.49482  0.87370  1.0000
  C   C729      1.0  0.67054  0.40463  0.97758  1.0000
  S   S293      1.0  0.58049  0.51267  0.11643  1.0000
  C   C730      1.0  0.60665  0.50520  0.17362  1.0000
  H   H1156     1.0  0.52006  0.48174  0.13971  1.0000
  H   H1157     1.0  0.60283  0.50847  0.14446  1.0000
  C   C731      1.0  0.67131  0.40841  0.27541  1.0000
  C   C732      1.0  0.67189  0.41750  0.29982  1.0000
  H   H1158     1.0  0.67369  0.39782  0.99827  1.0000
  Fe  Fe147     1.0  0.67274  0.39007  0.18323  1.0000
  S   S294      1.0  0.67486  0.41872  0.03763  1.0000
  Fe  Fe148     1.0  0.67460  0.37511  0.11092  1.0000
  H   H1159     1.0  0.58862  0.51538  0.19790  1.0000
  H   H1160     1.0  0.51576  0.51524  0.98429  1.0000
  H   H1161     1.0  0.51332  0.48198  0.82091  1.0000
  C   C733      1.0  0.51154  0.46403  0.92692  1.0000
  H   H1162     1.0  0.51260  0.45556  0.91640  1.0000
  N   N72       1.0  0.51554  0.54973  0.90390  1.0000
  C   C734      1.0  0.57043  0.52068  0.09686  1.0000
  C   C735      1.0  0.56219  0.52421  0.12837  1.0000
  S   S295      1.0  0.52635  0.56328  0.10844  1.0000
  H   H1163     1.0  0.56325  0.53296  0.99857  1.0000
  C   C736      1.0  0.55414  0.53063  0.11333  1.0000
  H   H1164     1.0  0.56201  0.52195  0.16455  1.0000
  H   H1165     1.0  0.60019  0.51974  0.22644  1.0000
  Fe  Fe149     1.0  0.52840  0.54575  0.08943  1.0000
  S   S296      1.0  0.54458  0.54179  0.04535  1.0000
  C   C737      1.0  0.51727  0.63961  0.17256  1.0000
  H   H1166     1.0  0.54782  0.53327  0.13786  1.0000
  C   C738      1.0  0.56284  0.53043  0.03495  1.0000
  C   C739      1.0  0.55449  0.53382  0.06643  1.0000
  H   H1167     1.0  0.52044  0.63164  0.18807  1.0000
  H   H1168     1.0  0.52426  0.64831  0.17003  1.0000
  H   H1169     1.0  0.51828  0.54464  0.84006  1.0000
  H   H1170     1.0  0.52038  0.53964  0.96124  1.0000
  H   H1171     1.0  0.53298  0.54754  0.91090  1.0000
  S   S297      1.0  0.51601  0.53289  0.15711  1.0000
  H   H1172     1.0  0.52921  0.55864  0.83886  1.0000
  H   H1173     1.0  0.57713  0.52132  0.02538  1.0000
  C   C740      1.0  0.52308  0.54229  0.92271  1.0000
  H   H1174     1.0  0.51712  0.63930  0.13675  1.0000
  H   H1175     1.0  0.51385  0.55869  0.83764  1.0000
  C   C741      1.0  0.51710  0.56116  0.91941  1.0000
  C   C742      1.0  0.57070  0.52381  0.05008  1.0000
  H   H1176     1.0  0.52682  0.56697  0.90746  1.0000
  H   H1177     1.0  0.52201  0.53353  0.91196  1.0000
  C   C743      1.0  0.51941  0.55309  0.85280  1.0000
  H   H1178     1.0  0.51428  0.55897  0.95783  1.0000
  S   S298      1.0  0.51345  0.54509  0.05352  1.0000
  H   H1179     1.0  0.51580  0.57743  0.18531  1.0000
  H   H1180     1.0  0.51516  0.59748  0.20255  1.0000
  H   H1181     1.0  0.51146  0.56696  0.90616  1.0000
  Fe  Fe150     1.0  0.51261  0.55028  0.17351  1.0000
  H   H1182     1.0  0.51250  0.64788  0.24759  1.0000
  C   C744      1.0  0.51275  0.57769  0.22075  1.0000
  C   C745      1.0  0.51236  0.58904  0.23058  1.0000
  Fe  Fe151     1.0  0.52233  0.94866  0.99631  1.0000
  S   S299      1.0  0.54131  0.95210  0.95273  1.0000
  H   H1183     1.0  0.52446  0.00678  0.95769  1.0000
  Fe  Fe152     1.0  0.52621  0.93213  0.08011  1.0000
  S   S300      1.0  0.54578  0.93456  0.04232  1.0000
  C   C746      1.0  0.51382  0.89307  0.04147  1.0000
  Fe  Fe153     1.0  0.54692  0.95509  0.01681  1.0000
  S   S301      1.0  0.56162  0.97377  0.00434  1.0000
  Fe  Fe154     1.0  0.53813  0.93156  0.98195  1.0000
  S   S302      1.0  0.54065  0.91665  0.94443  1.0000
  S   S303      1.0  0.52776  0.95255  0.05833  1.0000
  N   N73       1.0  0.52254  0.88934  0.06629  1.0000
  H   H1184     1.0  0.53047  0.97778  0.93799  1.0000
  C   C747      1.0  0.53710  0.87624  0.35319  1.0000
  H   H1185     1.0  0.53680  0.90664  0.03720  1.0000
  H   H1186     1.0  0.53538  0.87539  0.31952  1.0000
  H   H1187     1.0  0.63370  0.01096  0.03398  1.0000
  S   S304      1.0  0.51788  0.86924  0.26541  1.0000
  C   C748      1.0  0.52110  0.91512  0.84807  1.0000
  N   N74       1.0  0.52548  0.87279  0.38996  1.0000
  C   C749      1.0  0.52013  0.98406  0.01347  1.0000
  H   H1188     1.0  0.54555  0.98803  0.92709  1.0000
  H   H1189     1.0  0.51425  0.93652  0.93600  1.0000
  H   H1190     1.0  0.53659  0.88006  0.05730  1.0000
  C   C750      1.0  0.56548  0.98464  0.03677  1.0000
  C   C751      1.0  0.56091  0.98175  0.08490  1.0000
  C   C752      1.0  0.56477  0.99044  0.10905  1.0000
  C   C753      1.0  0.57314  0.00222  0.08563  1.0000
  C   C754      1.0  0.57736  0.00530  0.03732  1.0000
  C   C755      1.0  0.57366  0.99653  0.01323  1.0000
  H   H1191     1.0  0.55465  0.97269  0.10375  1.0000
  H   H1192     1.0  0.56138  0.98790  0.14637  1.0000
  H   H1193     1.0  0.51869  0.89955  0.00650  1.0000
  H   H1194     1.0  0.57719  0.99897  0.97599  1.0000
  C   C756      1.0  0.53227  0.91152  0.90613  1.0000
  C   C757      1.0  0.53148  0.89960  0.89978  1.0000
  C   C758      1.0  0.52545  0.89543  0.86817  1.0000
  C   C759      1.0  0.53082  0.90050  0.07124  1.0000
  C   C760      1.0  0.52687  0.91918  0.88045  1.0000
  H   H1195     1.0  0.53577  0.89362  0.91869  1.0000
  H   H1196     1.0  0.52514  0.88634  0.86319  1.0000
  H   H1197     1.0  0.51308  0.97915  0.99905  1.0000
  H   H1198     1.0  0.63523  0.01477  0.97277  1.0000
  H   H1199     1.0  0.54291  0.87010  0.36184  1.0000
  H   H1200     1.0  0.51952  0.87136  0.46250  1.0000
  H   H1201     1.0  0.53673  0.00446  0.01423  1.0000
  C   C761      1.0  0.51571  0.88090  0.11273  1.0000
  H   H1202     1.0  0.53463  0.91081  0.15500  1.0000
  H   H1203     1.0  0.54396  0.00995  0.10761  1.0000
  H   H1204     1.0  0.53901  0.97586  0.97984  1.0000
  C   C762      1.0  0.63150  0.01701  0.00536  1.0000
  C   C763      1.0  0.52644  0.90382  0.17762  1.0000
  H   H1205     1.0  0.53608  0.89070  0.20016  1.0000
  H   H1206     1.0  0.52755  0.92843  0.88415  1.0000
  C   C764      1.0  0.51505  0.90617  0.18166  1.0000
  C   C765      1.0  0.52725  0.89247  0.20340  1.0000
  N   N75       1.0  0.53149  0.99130  0.97675  1.0000
  H   H1207     1.0  0.58356  0.01437  0.01850  1.0000
  C   C766      1.0  0.51867  0.85978  0.39591  1.0000
  C   C767      1.0  0.52858  0.00034  0.94184  1.0000
  H   H1208     1.0  0.52186  0.99558  0.92583  1.0000
  H   H1209     1.0  0.54286  0.99134  0.02347  1.0000
  C   C768      1.0  0.54042  0.99795  0.99725  1.0000
  S   S305      1.0  0.57808  0.01258  0.11852  1.0000
  H   H1210     1.0  0.53694  0.00612  0.91378  1.0000
  H   H1211     1.0  0.51592  0.88033  0.34338  1.0000
  H   H1212     1.0  0.53514  0.88916  0.00451  1.0000
  S   S306      1.0  0.51385  0.89913  0.79715  1.0000
  C   C769      1.0  0.51670  0.88344  0.23354  1.0000
  C   C770      1.0  0.51803  0.88106  0.37657  1.0000
  H   H1213     1.0  0.52185  0.97694  0.04003  1.0000
  S   S307      1.0  0.51875  0.92814  0.02197  1.0000
  C   C771      1.0  0.53685  0.98288  0.95437  1.0000
  S   S308      1.0  0.51299  0.86677  0.75133  1.0000
  H   H1214     1.0  0.54908  0.00357  0.97037  1.0000
  H   H1215     1.0  0.53695  0.89800  0.09264  1.0000
  C   C772      1.0  0.52987  0.88295  0.03968  1.0000
  H   H1216     1.0  0.52558  0.90614  0.08753  1.0000
  C   C773      1.0  0.52038  0.90325  0.84145  1.0000
  H   H1217     1.0  0.51733  0.92133  0.82753  1.0000
  H   H1218     1.0  0.54250  0.88601  0.34761  1.0000
  H   H1219     1.0  0.52385  0.85319  0.40695  1.0000
  H   H1220     1.0  0.54510  0.01413  0.18263  1.0000
  H   H1221     1.0  0.52286  0.89096  0.37175  1.0000
  S   S309      1.0  0.51345  0.92015  0.14958  1.0000
  C   C774      1.0  0.52811  0.87404  0.43397  1.0000
  H   H1222     1.0  0.51593  0.99015  0.03133  1.0000
  H   H1223     1.0  0.61474  0.99964  0.98672  1.0000
  H   H1224     1.0  0.53315  0.88377  0.43100  1.0000
  H   H1225     1.0  0.51684  0.85850  0.36296  1.0000
  H   H1226     1.0  0.52200  0.87792  0.13259  1.0000
  H   H1227     1.0  0.53373  0.86793  0.44502  1.0000
  H   H1228     1.0  0.61525  0.01226  0.08818  1.0000
  H   H1229     1.0  0.61338  0.99574  0.04779  1.0000
  H   H1230     1.0  0.60161  0.00075  0.02665  1.0000
  H   H1231     1.0  0.52395  0.87450  0.03497  1.0000
  C   C775      1.0  0.61172  0.00230  0.01907  1.0000
  N   N76       1.0  0.61816  0.01534  0.01462  1.0000
  H   H1232     1.0  0.52664  0.01508  0.15553  1.0000
  Fe  Fe155     1.0  0.70036  0.19629  0.98106  1.0000
  H   H1233     1.0  0.70406  0.21498  0.83013  1.0000
  S   S310      1.0  0.70184  0.18344  0.93325  1.0000
  Fe  Fe156     1.0  0.71323  0.22016  0.00621  1.0000
  S   S311      1.0  0.69541  0.21903  0.05487  1.0000
  S   S312      1.0  0.72926  0.23813  0.99130  1.0000
  Fe  Fe157     1.0  0.69297  0.19853  0.07961  1.0000
  C   C776      1.0  0.70294  0.21858  0.16780  1.0000
  Fe  Fe158     1.0  0.68616  0.21425  0.00170  1.0000
  C   C777      1.0  0.68230  0.17602  0.18987  1.0000
  S   S313      1.0  0.71124  0.19960  0.03325  1.0000
  S   S314      1.0  0.70395  0.21686  0.95015  1.0000
  H   H1234     1.0  0.75687  0.24053  0.09476  1.0000
  H   H1235     1.0  0.73101  0.23822  0.15304  1.0000
  H   H1236     1.0  0.74166  0.22924  0.06108  1.0000
  C   C778      1.0  0.69498  0.20787  0.84134  1.0000
  H   H1237     1.0  0.71425  0.24731  0.18030  1.0000
  H   H1238     1.0  0.70627  0.23306  0.22490  1.0000
  C   C779      1.0  0.78999  0.26514  0.97757  1.0000
  H   H1239     1.0  0.69193  0.15019  0.18886  1.0000
  H   H1240     1.0  0.68688  0.10940  0.42147  1.0000
  C   C780      1.0  0.74457  0.23929  0.05101  1.0000
  H   H1241     1.0  0.72302  0.22414  0.19861  1.0000
  C   C781      1.0  0.75760  0.25886  0.05644  1.0000
  H   H1242     1.0  0.69551  0.13694  0.37047  1.0000
  C   C782      1.0  0.71364  0.23776  0.10837  1.0000
  H   H1243     1.0  0.70498  0.23949  0.10273  1.0000
  H   H1244     1.0  0.68512  0.11716  0.49248  1.0000
  H   H1245     1.0  0.69538  0.20114  0.82028  1.0000
  H   H1246     1.0  0.72730  0.22362  0.13965  1.0000
  H   H1247     1.0  0.69867  0.23944  0.18456  1.0000
  N   N77       1.0  0.68096  0.12538  0.43006  1.0000
  C   C783      1.0  0.70760  0.23798  0.18806  1.0000
  C   C784      1.0  0.69046  0.17651  0.90815  1.0000
  H   H1248     1.0  0.67986  0.22541  0.78516  1.0000
  H   H1249     1.0  0.71663  0.23244  0.08412  1.0000
  C   C785      1.0  0.72384  0.22914  0.16235  1.0000
  C   C786      1.0  0.68514  0.16546  0.85165  1.0000
  C   C787      1.0  0.69372  0.17053  0.87390  1.0000
  N   N78       1.0  0.68496  0.21360  0.83735  1.0000
  H   H1250     1.0  0.70050  0.12964  0.41802  1.0000
  H   H1251     1.0  0.68793  0.16126  0.82441  1.0000
  H   H1252     1.0  0.70305  0.17006  0.86378  1.0000
  H   H1253     1.0  0.74089  0.26412  0.97895  1.0000
  C   C788      1.0  0.68858  0.16816  0.17319  1.0000
  C   C789      1.0  0.68307  0.12514  0.94866  1.0000
  H   H1254     1.0  0.69444  0.14258  0.42092  1.0000
  C   C790      1.0  0.68685  0.15616  0.20142  1.0000
  H   H1255     1.0  0.69392  0.21947  0.16312  1.0000
  H   H1256     1.0  0.69499  0.17143  0.13908  1.0000
  S   S315      1.0  0.68452  0.19134  0.15722  1.0000
  H   H1257     1.0  0.70603  0.21295  0.14486  1.0000
  H   H1258     1.0  0.70134  0.21306  0.20409  1.0000
  C   C791      1.0  0.68729  0.22100  0.78911  1.0000
  H   H1259     1.0  0.78010  0.25991  0.98695  1.0000
  H   H1260     1.0  0.68298  0.21648  0.90482  1.0000
  H   H1261     1.0  0.72073  0.24692  0.09790  1.0000
  N   N79       1.0  0.71200  0.23086  0.15672  1.0000
  H   H1262     1.0  0.69373  0.20269  0.87780  1.0000
  H   H1263     1.0  0.68308  0.12241  0.86346  1.0000
  C   C792      1.0  0.73999  0.24580  0.01793  1.0000
  C   C793      1.0  0.74431  0.25890  0.00443  1.0000
  C   C794      1.0  0.75290  0.26537  0.02378  1.0000
  H   H1264     1.0  0.67923  0.12251  0.98691  1.0000
  C   C795      1.0  0.75329  0.24575  0.06987  1.0000
  H   H1265     1.0  0.68626  0.13861  0.86198  1.0000
  S   S316      1.0  0.76901  0.26642  0.08066  1.0000
  C   C796      1.0  0.67838  0.17708  0.92055  1.0000
  S   S317      1.0  0.68220  0.19370  0.03036  1.0000
  H   H1266     1.0  0.68143  0.11654  0.37496  1.0000
  H   H1267     1.0  0.68754  0.11800  0.94018  1.0000
  C   C797      1.0  0.67841  0.12175  0.48106  1.0000
  H   H1268     1.0  0.69037  0.13415  0.93852  1.0000
  H   H1269     1.0  0.79546  0.25873  0.96957  1.0000
  C   C798      1.0  0.69342  0.13401  0.40898  1.0000
  H   H1270     1.0  0.69608  0.22855  0.77786  1.0000
  C   C799      1.0  0.67855  0.15184  0.24572  1.0000
  C   C800      1.0  0.67999  0.11417  0.41323  1.0000
  H   H1271     1.0  0.69295  0.22949  0.85892  1.0000
  C   C801      1.0  0.67898  0.12957  0.87408  1.0000
  C   C802      1.0  0.68436  0.22176  0.86843  1.0000
  H   H1272     1.0  0.68782  0.21509  0.76484  1.0000
  H   H1273     1.0  0.67876  0.12994  0.49517  1.0000
  H   H1274     1.0  0.79643  0.26673  0.88647  1.0000
  Fe  Fe159     1.0  0.80901  0.40942  0.07687  1.0000
  S   S318      1.0  0.80421  0.42192  0.11996  1.0000
  S   S319      1.0  0.81611  0.41529  0.99875  1.0000
  Fe  Fe160     1.0  0.79957  0.38672  0.16030  1.0000
  S   S320      1.0  0.79394  0.39761  0.20978  1.0000
  S   S321      1.0  0.79933  0.36670  0.18416  1.0000
  Fe  Fe161     1.0  0.78632  0.40663  0.15328  1.0000
  S   S322      1.0  0.76822  0.41194  0.16024  1.0000
  Fe  Fe162     1.0  0.81227  0.41175  0.17202  1.0000
  S   S323      1.0  0.82847  0.42226  0.19411  1.0000
  S   S324      1.0  0.79092  0.39471  0.10724  1.0000
  S   S325      1.0  0.81816  0.40026  0.12565  1.0000
  S   S326      1.0  0.78011  0.30361  0.02760  1.0000
  Fe  Fe163     1.0  0.80264  0.30168  0.10460  1.0000
  S   S327      1.0  0.80342  0.31959  0.05563  1.0000
  C   C803      1.0  0.83195  0.33044  0.22085  1.0000
  Fe  Fe164     1.0  0.78296  0.31304  0.08275  1.0000
  S   S328      1.0  0.77281  0.32700  0.09571  1.0000
  Fe  Fe165     1.0  0.80066  0.30848  0.00502  1.0000
  C   C804      1.0  0.83394  0.31870  0.22962  1.0000
  H   H1275     1.0  0.82273  0.44183  0.98606  1.0000
  H   H1276     1.0  0.68071  0.42337  0.29866  1.0000
  Fe  Fe166     1.0  0.69812  0.39183  0.12154  1.0000
  C   C805      1.0  0.83790  0.35669  0.85802  1.0000
  S   S329      1.0  0.71757  0.38947  0.11484  1.0000
  S   S330      1.0  0.68255  0.37582  0.17122  1.0000
  H   H1277     1.0  0.76963  0.43705  0.01274  1.0000
  H   H1278     1.0  0.82207  0.35732  0.29462  1.0000
  H   H1279     1.0  0.80880  0.29177  0.89854  1.0000
  H   H1280     1.0  0.78524  0.42789  0.07309  1.0000
  C   C806      1.0  0.82998  0.42710  0.97074  1.0000
  C   C807      1.0  0.81408  0.37664  0.26031  1.0000
  S   S331      1.0  0.68870  0.40622  0.13819  1.0000
  S   S332      1.0  0.69047  0.39030  0.06026  1.0000
  H   H1281     1.0  0.83639  0.36819  0.19437  1.0000
  C   C808      1.0  0.83063  0.43950  0.96882  1.0000
  H   H1282     1.0  0.78809  0.40884  0.01786  1.0000
  C   C809      1.0  0.80616  0.28325  0.92805  1.0000
  H   H1283     1.0  0.83016  0.36882  0.91869  1.0000
  C   C810      1.0  0.82876  0.36674  0.28408  1.0000
  S   S333      1.0  0.78203  0.29538  0.13400  1.0000
  H   H1284     1.0  0.70402  0.36316  0.16794  1.0000
  Fe  Fe167     1.0  0.78082  0.28626  0.07564  1.0000
  C   C811      1.0  0.82907  0.30990  0.20751  1.0000
  H   H1285     1.0  0.82813  0.37038  0.31493  1.0000
  C   C812      1.0  0.83418  0.42176  0.24399  1.0000
  H   H1286     1.0  0.82738  0.40755  0.35959  1.0000
  H   H1287     1.0  0.72081  0.35066  0.08083  1.0000
  H   H1288     1.0  0.81890  0.40716  0.29190  1.0000
  S   S334      1.0  0.80833  0.31609  0.92725  1.0000
  H   H1289     1.0  0.83801  0.36544  0.27381  1.0000
  C   C813      1.0  0.84108  0.43352  0.06313  1.0000
  H   H1290     1.0  0.81204  0.38291  0.23186  1.0000
  H   H1291     1.0  0.83064  0.30085  0.21475  1.0000
  H   H1292     1.0  0.71883  0.36304  0.13757  1.0000
  S   S335      1.0  0.83787  0.34197  0.24768  1.0000
  H   H1293     1.0  0.69006  0.33722  0.16577  1.0000
  N   N80       1.0  0.79309  0.27637  0.93833  1.0000
  H   H1294     1.0  0.77557  0.27986  0.95614  1.0000
  C   C814      1.0  0.70459  0.36389  0.07963  1.0000
  H   H1295     1.0  0.69944  0.36990  0.09364  1.0000
  H   H1296     1.0  0.83813  0.44131  0.04520  1.0000
  H   H1297     1.0  0.83902  0.31632  0.25413  1.0000
  H   H1298     1.0  0.68541  0.35116  0.15327  1.0000
  Fe  Fe168     1.0  0.67985  0.40323  0.08136  1.0000
  H   H1299     1.0  0.78642  0.28655  0.98345  1.0000
  H   H1300     1.0  0.82029  0.36055  0.21496  1.0000
  C   C815      1.0  0.79071  0.27272  0.89713  1.0000
  H   H1301     1.0  0.79171  0.26760  0.00924  1.0000
  S   S336      1.0  0.81629  0.30122  0.14898  1.0000
  H   H1302     1.0  0.70060  0.36110  0.05229  1.0000
  H   H1303     1.0  0.80686  0.36757  0.27030  1.0000
  C   C816      1.0  0.83067  0.31083  0.91320  1.0000
  H   H1304     1.0  0.82307  0.34208  0.18351  1.0000
  C   C817      1.0  0.75403  0.40522  0.14906  1.0000
  C   C818      1.0  0.75216  0.39479  0.13196  1.0000
  C   C819      1.0  0.74099  0.39019  0.12175  1.0000
  C   C820      1.0  0.73142  0.39579  0.12894  1.0000
  C   C821      1.0  0.73327  0.40616  0.14629  1.0000
  C   C822      1.0  0.74449  0.41086  0.15605  1.0000
  H   H1305     1.0  0.75928  0.39021  0.12680  1.0000
  H   H1306     1.0  0.73975  0.38216  0.10840  1.0000
  H   H1307     1.0  0.72607  0.41063  0.15206  1.0000
  H   H1308     1.0  0.74577  0.41892  0.16926  1.0000
  C   C823      1.0  0.79211  0.35597  0.15810  1.0000
  C   C824      1.0  0.78337  0.35837  0.13517  1.0000
  C   C825      1.0  0.77745  0.34942  0.11622  1.0000
  C   C826      1.0  0.78040  0.33816  0.11929  1.0000
  C   C827      1.0  0.78926  0.33584  0.14170  1.0000
  C   C828      1.0  0.79498  0.34466  0.16150  1.0000
  H   H1309     1.0  0.78096  0.36696  0.13298  1.0000
  H   H1310     1.0  0.77058  0.35122  0.09909  1.0000
  H   H1311     1.0  0.79149  0.32712  0.14473  1.0000
  H   H1312     1.0  0.80162  0.34268  0.17962  1.0000
  C   C829      1.0  0.82773  0.41353  0.28754  1.0000
  S   S337      1.0  0.80151  0.29086  0.05100  1.0000
  C   C830      1.0  0.82763  0.32538  0.85015  1.0000
  H   H1313     1.0  0.77283  0.40577  0.01111  1.0000
  H   H1314     1.0  0.80817  0.28638  0.95814  1.0000
  H   H1315     1.0  0.78766  0.43923  0.94812  1.0000
  H   H1316     1.0  0.78027  0.42430  0.94248  1.0000
  C   C831      1.0  0.83258  0.41378  0.32596  1.0000
  C   C832      1.0  0.84149  0.44897  0.94396  1.0000
  C   C833      1.0  0.82323  0.31745  0.89527  1.0000
  H   H1317     1.0  0.82187  0.33045  0.83601  1.0000
  N   N81       1.0  0.82645  0.37515  0.24545  1.0000
  C   C834      1.0  0.78912  0.43103  0.03478  1.0000
  C   C835      1.0  0.78545  0.28442  0.95072  1.0000
  H   H1318     1.0  0.76219  0.42198  0.00823  1.0000
  H   H1319     1.0  0.76463  0.42377  0.06231  1.0000
  H   H1320     1.0  0.70882  0.34932  0.18107  1.0000
  H   H1321     1.0  0.75587  0.27542  0.01341  1.0000
  C   C836      1.0  0.82483  0.33312  0.19036  1.0000
  C   C837      1.0  0.83998  0.34298  0.92551  1.0000
  H   H1322     1.0  0.79822  0.42921  0.02677  1.0000
  C   C838      1.0  0.82199  0.31261  0.17679  1.0000
  H   H1323     1.0  0.77534  0.40741  0.06525  1.0000
  H   H1324     1.0  0.81444  0.32656  0.14523  1.0000
  H   H1325     1.0  0.83439  0.42929  0.09776  1.0000
  H   H1326     1.0  0.79067  0.44125  0.02377  1.0000
  N   N82       1.0  0.78083  0.42454  0.01169  1.0000
  C   C839      1.0  0.81989  0.32430  0.16849  1.0000
  C   C840      1.0  0.83944  0.32685  0.82310  1.0000
  H   H1327     1.0  0.81308  0.38063  0.29030  1.0000
  C   C841      1.0  0.76880  0.42697  0.02411  1.0000
  H   H1328     1.0  0.68667  0.34248  0.11167  1.0000
  C   C842      1.0  0.78625  0.42906  0.96102  1.0000
  C   C843      1.0  0.77921  0.41104  0.02707  1.0000
  H   H1329     1.0  0.71072  0.33700  0.12411  1.0000
  H   H1330     1.0  0.70734  0.34197  0.06988  1.0000
  H   H1331     1.0  0.82738  0.30477  0.94813  1.0000
  N   N83       1.0  0.70392  0.35300  0.11677  1.0000
  C   C844      1.0  0.71100  0.34530  0.09703  1.0000
  C   C845      1.0  0.70911  0.35726  0.15246  1.0000
  C   C846      1.0  0.69097  0.34560  0.13785  1.0000
  H   H1332     1.0  0.79536  0.42731  0.95096  1.0000
  H   H1333     1.0  0.83534  0.39173  0.26095  1.0000
  H   H1334     1.0  0.71421  0.36978  0.06298  1.0000
  H   H1335     1.0  0.67965  0.40729  0.25568  1.0000
  H   H1336     1.0  0.79278  0.28103  0.86723  1.0000
  C   C847      1.0  0.84021  0.42424  0.94711  1.0000
  H   H1337     1.0  0.83079  0.33635  0.93222  1.0000
  H   H1338     1.0  0.82882  0.35040  0.86068  1.0000
  H   H1339     1.0  0.83818  0.36633  0.84042  1.0000
  H   H1340     1.0  0.78810  0.29346  0.92363  1.0000
  H   H1341     1.0  0.81226  0.27745  0.91921  1.0000
  H   H1342     1.0  0.83172  0.35861  0.96894  1.0000
  H   H1343     1.0  0.82114  0.35281  0.93855  1.0000
  H   H1344     1.0  0.83406  0.39403  0.20291  1.0000
  C   C848      1.0  0.83036  0.35918  0.93386  1.0000
  N   N84       1.0  0.84010  0.35583  0.90406  1.0000
  C   C849      1.0  0.82727  0.36975  0.20578  1.0000
  H   H1345     1.0  0.83967  0.41469  0.94762  1.0000
  C   C850      1.0  0.83567  0.38743  0.23169  1.0000
  H   H1346     1.0  0.82564  0.37582  0.17569  1.0000
  C   C851      1.0  0.84234  0.31191  0.88533  1.0000
  H   H1347     1.0  0.84027  0.42634  0.04388  1.0000
  H   H1348     1.0  0.84192  0.45855  0.94249  1.0000
  H   H1349     1.0  0.78093  0.26743  0.90401  1.0000
  H   H1350     1.0  0.84215  0.34210  0.95939  1.0000
  H   H1351     1.0  0.84272  0.33300  0.78832  1.0000
  C   C852      1.0  0.84393  0.42221  0.32153  1.0000
  H   H1352     1.0  0.84383  0.37266  0.46615  1.0000
  H   H1353     1.0  0.98773  0.40082  0.75908  1.0000
  Fe  Fe169     1.0  0.87966  0.34349  0.27766  1.0000
  S   S338      1.0  0.86123  0.33254  0.32751  1.0000
  S   S339      1.0  0.89294  0.33399  0.24739  1.0000
  Fe  Fe170     1.0  0.87458  0.36795  0.27452  1.0000
  S   S340      1.0  0.85575  0.35913  0.32229  1.0000
  S   S341      1.0  0.88113  0.38850  0.24115  1.0000
  Fe  Fe171     1.0  0.86482  0.34750  0.36496  1.0000
  S   S342      1.0  0.85937  0.34510  0.44380  1.0000
  Fe  Fe172     1.0  0.85387  0.34514  0.28069  1.0000
  S   S343      1.0  0.96834  0.50937  0.06628  1.0000
  S   S344      1.0  0.88385  0.35720  0.31839  1.0000
  S   S345      1.0  0.87216  0.35516  0.22969  1.0000
  Fe  Fe173     1.0  0.87310  0.36763  0.74604  1.0000
  S   S346      1.0  0.89178  0.37413  0.69538  1.0000
  S   S347      1.0  0.86310  0.38075  0.76868  1.0000
  Fe  Fe174     1.0  0.87184  0.34062  0.76312  1.0000
  S   S348      1.0  0.89058  0.34496  0.71492  1.0000
  S   S349      1.0  0.86118  0.32103  0.80496  1.0000
  Fe  Fe175     1.0  0.89621  0.36024  0.74836  1.0000
  S   S350      1.0  0.91334  0.36212  0.77478  1.0000
  Fe  Fe176     1.0  0.88432  0.35834  0.66635  1.0000
  S   S351      1.0  0.88900  0.35970  0.58816  1.0000
  S   S352      1.0  0.87783  0.35461  0.80008  1.0000
  S   S353      1.0  0.86523  0.35308  0.71344  1.0000
  Fe  Fe177     1.0  0.89338  0.43237  0.37550  1.0000
  S   S354      1.0  0.90610  0.42129  0.35444  1.0000
  Fe  Fe178     1.0  0.88865  0.45714  0.36005  1.0000
  S   S355      1.0  0.87019  0.44965  0.41262  1.0000
  S   S356      1.0  0.89620  0.47774  0.32706  1.0000
  Fe  Fe179     1.0  0.88006  0.43986  0.45764  1.0000
  S   S357      1.0  0.87548  0.43922  0.53501  1.0000
  S   S358      1.0  0.89858  0.44815  0.40618  1.0000
  S   S359      1.0  0.88509  0.44213  0.32446  1.0000
  Fe  Fe180     1.0  0.88160  0.45347  0.85237  1.0000
  S   S360      1.0  0.89847  0.46762  0.80095  1.0000
  S   S361      1.0  0.86529  0.45827  0.89087  1.0000
  Fe  Fe181     1.0  0.89234  0.43236  0.84897  1.0000
  S   S362      1.0  0.90975  0.44456  0.79766  1.0000
  S   S363      1.0  0.89130  0.41239  0.87749  1.0000
  Fe  Fe182     1.0  0.90912  0.45776  0.84241  1.0000
  S   S364      1.0  0.92696  0.46363  0.86390  1.0000
  Fe  Fe183     1.0  0.89769  0.45319  0.76051  1.0000
  S   S365      1.0  0.90294  0.45686  0.68085  1.0000
  S   S366      1.0  0.89225  0.44476  0.89571  1.0000
  S   S367      1.0  0.88022  0.43985  0.80961  1.0000
  C   C853      1.0  0.84676  0.31997  0.84030  1.0000
  S   S368      1.0  0.97831  0.49055  0.13536  1.0000
  Fe  Fe184     1.0  0.96086  0.49336  0.03858  1.0000
  S   S369      1.0  0.95243  0.47999  0.10946  1.0000
  S   S370      1.0  0.94690  0.49497  0.99636  1.0000
  Fe  Fe185     1.0  0.96068  0.49548  0.13615  1.0000
  S   S371      1.0  0.95013  0.50145  0.19347  1.0000
  Fe  Fe186     1.0  0.97075  0.47641  0.10074  1.0000
  S   S372      1.0  0.97232  0.45701  0.12065  1.0000
  H   H1354     1.0  0.98044  0.39768  0.88553  1.0000
  S   S373      1.0  0.97897  0.48883  0.02814  1.0000
  Fe  Fe187     1.0  0.94388  0.40657  0.02721  1.0000
  S   S374      1.0  0.95565  0.41398  0.95448  1.0000
  S   S375      1.0  0.93489  0.41899  0.05997  1.0000
  Fe  Fe188     1.0  0.94650  0.38113  0.03539  1.0000
  S   S376      1.0  0.95888  0.38637  0.96274  1.0000
  S   S377      1.0  0.94139  0.36187  0.08347  1.0000
  Fe  Fe189     1.0  0.94535  0.39627  0.94301  1.0000
  S   S378      1.0  0.93871  0.39928  0.87748  1.0000
  S   S379      1.0  0.95710  0.39748  0.05356  1.0000
  S   S380      1.0  0.93243  0.38981  0.01460  1.0000
  C   C854      1.0  0.96232  0.44667  0.10150  1.0000
  C   C855      1.0  0.96276  0.43438  0.10804  1.0000
  C   C856      1.0  0.95454  0.42592  0.09430  1.0000
  C   C857      1.0  0.94562  0.42963  0.07522  1.0000
  C   C858      1.0  0.94513  0.44189  0.06897  1.0000
  C   C859      1.0  0.95364  0.45046  0.08116  1.0000
  H   H1355     1.0  0.96951  0.43140  0.12347  1.0000
  H   H1356     1.0  0.95505  0.41650  0.09913  1.0000
  H   H1357     1.0  0.93836  0.44487  0.05367  1.0000
  H   H1358     1.0  0.95345  0.45998  0.07452  1.0000
  C   C860      1.0  0.93186  0.47187  0.90318  1.0000
  C   C861      1.0  0.92528  0.47909  0.92305  1.0000
  C   C862      1.0  0.92993  0.48594  0.95186  1.0000
  C   C863      1.0  0.94105  0.48544  0.96232  1.0000
  C   C864      1.0  0.94746  0.47794  0.94351  1.0000
  C   C865      1.0  0.94298  0.47138  0.91370  1.0000
  H   H1359     1.0  0.91679  0.47971  0.91510  1.0000
  H   H1360     1.0  0.92491  0.49177  0.96573  1.0000
  H   H1361     1.0  0.95608  0.47753  0.95060  1.0000
  H   H1362     1.0  0.94832  0.46604  0.89807  1.0000
  C   C866      1.0  0.88341  0.44414  0.57482  1.0000
  C   C867      1.0  0.87670  0.44225  0.62085  1.0000
  C   C868      1.0  0.88245  0.44611  0.65360  1.0000
  C   C869      1.0  0.89505  0.45201  0.64080  1.0000
  C   C870      1.0  0.90177  0.45392  0.59471  1.0000
  C   C871      1.0  0.89604  0.44995  0.56207  1.0000
  H   H1363     1.0  0.89642  0.47006  0.48850  1.0000
  H   H1364     1.0  0.87708  0.44458  0.68872  1.0000
  H   H1365     1.0  0.91153  0.45842  0.58430  1.0000
  H   H1366     1.0  0.90142  0.45132  0.52714  1.0000
  C   C872      1.0  0.91122  0.48355  0.28978  1.0000
  C   C873      1.0  0.91613  0.47711  0.26000  1.0000
  C   C874      1.0  0.92802  0.48251  0.22925  1.0000
  C   C875      1.0  0.93509  0.49412  0.22952  1.0000
  C   C876      1.0  0.93011  0.50043  0.25934  1.0000
  C   C877      1.0  0.91821  0.49526  0.28874  1.0000
  H   H1367     1.0  0.91060  0.46820  0.25978  1.0000
  H   H1368     1.0  0.99096  0.41656  0.76285  1.0000
  H   H1369     1.0  0.91468  0.51025  0.07495  1.0000
  H   H1370     1.0  0.91447  0.50035  0.31118  1.0000
  C   C878      1.0  0.87035  0.38889  0.80221  1.0000
  C   C879      1.0  0.86605  0.39831  0.81604  1.0000
  C   C880      1.0  0.87228  0.40539  0.84033  1.0000
  C   C881      1.0  0.88262  0.40285  0.85173  1.0000
  C   C882      1.0  0.88654  0.39304  0.83994  1.0000
  C   C883      1.0  0.88052  0.38618  0.81469  1.0000
  H   H1371     1.0  0.85813  0.40039  0.80679  1.0000
  H   H1372     1.0  0.86908  0.41282  0.85015  1.0000
  H   H1373     1.0  0.89453  0.39105  0.84880  1.0000
  H   H1374     1.0  0.88402  0.37906  0.80385  1.0000
  C   C884      1.0  0.91898  0.37198  0.80785  1.0000
  C   C885      1.0  0.92657  0.36841  0.83512  1.0000
  C   C886      1.0  0.93207  0.37634  0.85891  1.0000
  C   C887      1.0  0.93037  0.38815  0.85458  1.0000
  C   C888      1.0  0.92272  0.39171  0.82755  1.0000
  C   C889      1.0  0.91692  0.38362  0.80491  1.0000
  H   H1375     1.0  0.92829  0.35946  0.83751  1.0000
  H   H1376     1.0  0.93795  0.37345  0.87928  1.0000
  H   H1377     1.0  0.92134  0.40083  0.82377  1.0000
  H   H1378     1.0  0.91118  0.38653  0.78391  1.0000
  C   C890      1.0  0.86783  0.34937  0.48308  1.0000
  C   C891      1.0  0.88047  0.35513  0.46902  1.0000
  C   C892      1.0  0.88670  0.35837  0.50146  1.0000
  C   C893      1.0  0.88043  0.35607  0.54836  1.0000
  C   C894      1.0  0.86774  0.35052  0.56226  1.0000
  C   C895      1.0  0.86154  0.34711  0.52996  1.0000
  H   H1379     1.0  0.88550  0.35696  0.43323  1.0000
  H   H1380     1.0  0.89651  0.36262  0.49014  1.0000
  H   H1381     1.0  0.86268  0.34880  0.59789  1.0000
  H   H1382     1.0  0.85175  0.34276  0.54133  1.0000
  C   C896      1.0  0.90623  0.34246  0.20184  1.0000
  C   C897      1.0  0.90721  0.35396  0.17187  1.0000
  C   C898      1.0  0.91791  0.36011  0.13492  1.0000
  C   C899      1.0  0.92763  0.35478  0.12825  1.0000
  C   C900      1.0  0.92647  0.34326  0.15799  1.0000
  C   C901      1.0  0.91584  0.33712  0.19428  1.0000
  H   H1383     1.0  0.89967  0.35797  0.17669  1.0000
  H   H1384     1.0  0.91858  0.36882  0.11125  1.0000
  H   H1385     1.0  0.93387  0.33902  0.15291  1.0000
  H   H1386     1.0  0.91512  0.32819  0.21681  1.0000
  C   C902      1.0  0.88842  0.39745  0.27233  1.0000
  C   C903      1.0  0.89341  0.39220  0.30662  1.0000
  C   C904      1.0  0.89929  0.39964  0.33066  1.0000
  C   C905      1.0  0.89990  0.41226  0.32127  1.0000
  C   C906      1.0  0.89514  0.41752  0.28638  1.0000
  C   C907      1.0  0.88949  0.41016  0.26172  1.0000
  H   H1387     1.0  0.89270  0.38243  0.31492  1.0000
  H   H1388     1.0  0.90299  0.39554  0.35765  1.0000
  H   H1389     1.0  0.89587  0.42731  0.27797  1.0000
  H   H1390     1.0  0.88577  0.41429  0.23491  1.0000
  H   H1391     1.0  0.85863  0.32573  0.66130  1.0000
  H   H1392     1.0  0.85966  0.36246  0.87525  1.0000
  C   C908      1.0  0.86348  0.37951  0.39259  1.0000
  H   H1393     1.0  0.87754  0.38277  0.45002  1.0000
  N   N85       1.0  0.93231  0.51391  0.08846  1.0000
  H   H1394     1.0  0.85637  0.36849  0.48379  1.0000
  H   H1395     1.0  0.87374  0.31549  0.21824  1.0000
  H   H1396     1.0  0.88003  0.39747  0.40907  1.0000
  H   H1397     1.0  0.86486  0.33752  0.10633  1.0000
  H   H1398     1.0  0.94090  0.49936  0.09900  1.0000
  H   H1399     1.0  0.85918  0.43679  0.27363  1.0000
  H   H1400     1.0  0.85657  0.41985  0.07369  1.0000
  H   H1401     1.0  0.85191  0.45564  0.07375  1.0000
  C   C909      1.0  0.85109  0.43372  0.92231  1.0000
  C   C910      1.0  0.85046  0.43026  0.27778  1.0000
  C   C911      1.0  0.00478  0.42315  0.04913  1.0000
  H   H1402     1.0  0.85118  0.38075  0.50139  1.0000
  N   N86       1.0  0.85370  0.43789  0.06666  1.0000
  H   H1403     1.0  0.87438  0.32045  0.09348  1.0000
  H   H1404     1.0  0.99744  0.45368  0.10877  1.0000
  H   H1405     1.0  0.86791  0.37202  0.40116  1.0000
  N   N87       1.0  0.97669  0.40335  0.81979  1.0000
  C   C912      1.0  0.85710  0.42729  0.09177  1.0000
  H   H1406     1.0  0.92721  0.49533  0.08141  1.0000
  H   H1407     1.0  0.85072  0.43646  0.20616  1.0000
  C   C913      1.0  0.84561  0.43004  0.23944  1.0000
  H   H1408     1.0  0.00603  0.44515  0.07975  1.0000
  H   H1409     1.0  0.85458  0.40072  0.44325  1.0000
  H   H1410     1.0  0.96018  0.39335  0.80768  1.0000
  H   H1411     1.0  0.85991  0.45130  0.99969  1.0000
  C   C914      1.0  0.97123  0.41291  0.83304  1.0000
  H   H1412     1.0  0.86941  0.38628  0.35953  1.0000
  H   H1413     1.0  0.86691  0.30407  0.70790  1.0000
  C   C915      1.0  0.85645  0.39600  0.41559  1.0000
  C   C916      1.0  0.99942  0.42006  0.97901  1.0000
  H   H1414     1.0  0.87216  0.39483  0.46862  1.0000
  N   N88       1.0  0.87475  0.31950  0.64684  1.0000
  C   C917      1.0  0.86806  0.30629  0.66982  1.0000
  C   C918      1.0  0.87594  0.32219  0.59660  1.0000
  C   C919      1.0  0.88709  0.32222  0.65433  1.0000
  C   C920      1.0  0.86793  0.32736  0.66676  1.0000
  H   H1415     1.0  0.85241  0.37427  0.88374  1.0000
  H   H1416     1.0  0.87300  0.30004  0.65620  1.0000
  H   H1417     1.0  0.85874  0.30394  0.66451  1.0000
  H   H1418     1.0  0.88146  0.33196  0.57817  1.0000
  H   H1419     1.0  0.88059  0.31608  0.58070  1.0000
  H   H1420     1.0  0.86684  0.32094  0.58926  1.0000
  H   H1421     1.0  0.89233  0.33218  0.63766  1.0000
  H   H1422     1.0  0.89256  0.31653  0.63951  1.0000
  H   H1423     1.0  0.88656  0.32030  0.69191  1.0000
  H   H1424     1.0  0.99269  0.40949  0.84283  1.0000
  C   C921      1.0  0.96683  0.39179  0.82797  1.0000
  H   H1425     1.0  0.87281  0.33738  0.65072  1.0000
  H   H1426     1.0  0.84675  0.33986  0.90283  1.0000
  H   H1427     1.0  0.84512  0.38667  0.22000  1.0000
  H   H1428     1.0  0.86238  0.30926  0.14043  1.0000
  H   H1429     1.0  0.97732  0.40974  0.74813  1.0000
  C   C922      1.0  0.00053  0.45180  0.07484  1.0000
  H   H1430     1.0  0.87186  0.44667  0.02075  1.0000
  C   C923      1.0  0.85215  0.36447  0.89880  1.0000
  H   H1431     1.0  0.87812  0.31127  0.14072  1.0000
  C   C924      1.0  0.87146  0.31629  0.13166  1.0000
  H   H1432     1.0  0.97836  0.42174  0.82809  1.0000
  H   H1433     1.0  0.85273  0.32560  0.14985  1.0000
  S   S381      1.0  0.84941  0.42235  0.37167  1.0000
  H   H1434     1.0  0.85431  0.36392  0.93258  1.0000
  N   N89       1.0  0.00767  0.46338  0.03827  1.0000
  H   H1435     1.0  0.84800  0.30660  0.89880  1.0000
  H   H1436     1.0  0.99159  0.46793  0.02568  1.0000
  H   H1437     1.0  0.85893  0.43143  0.90427  1.0000
  N   N90       1.0  0.90032  0.41775  0.69443  1.0000
  C   C925      1.0  0.90130  0.40525  0.71437  1.0000
  C   C926      1.0  0.89608  0.41785  0.65236  1.0000
  C   C927      1.0  0.91243  0.42699  0.68251  1.0000
  C   C928      1.0  0.89144  0.42088  0.72869  1.0000
  H   H1438     1.0  0.90809  0.40261  0.68995  1.0000
  H   H1439     1.0  0.89235  0.39808  0.72277  1.0000
  H   H1440     1.0  0.90416  0.40472  0.74692  1.0000
  H   H1441     1.0  0.89517  0.42713  0.63650  1.0000
  H   H1442     1.0  0.90254  0.41552  0.62572  1.0000
  H   H1443     1.0  0.88692  0.41101  0.66035  1.0000
  H   H1444     1.0  0.91205  0.43649  0.66646  1.0000
  H   H1445     1.0  0.91944  0.42479  0.65752  1.0000
  H   H1446     1.0  0.88208  0.41447  0.73675  1.0000
  H   H1447     1.0  0.89406  0.42038  0.76166  1.0000
  N   N91       1.0  0.92106  0.39165  0.18958  1.0000
  C   C929      1.0  0.91727  0.40299  0.17544  1.0000
  C   C930      1.0  0.92962  0.39028  0.14934  1.0000
  C   C931      1.0  0.91017  0.38069  0.20688  1.0000
  C   C932      1.0  0.92719  0.39261  0.22663  1.0000
  H   H1448     1.0  0.91077  0.40431  0.20481  1.0000
  H   H1449     1.0  0.91263  0.40258  0.14742  1.0000
  H   H1450     1.0  0.92528  0.41144  0.16197  1.0000
  H   H1451     1.0  0.92540  0.38991  0.12023  1.0000
  H   H1452     1.0  0.93803  0.39828  0.13599  1.0000
  H   H1453     1.0  0.93249  0.38166  0.15818  1.0000
  H   H1454     1.0  0.90519  0.37979  0.18006  1.0000
  H   H1455     1.0  0.90357  0.38133  0.23745  1.0000
  H   H1456     1.0  0.91271  0.37195  0.21765  1.0000
  H   H1457     1.0  0.93014  0.38417  0.23808  1.0000
  H   H1458     1.0  0.92096  0.39366  0.25751  1.0000
  H   H1459     1.0  0.93549  0.40077  0.21461  1.0000
  N   N92       1.0  0.93791  0.44775  0.25343  1.0000
  C   C933      1.0  0.94397  0.44447  0.21236  1.0000
  C   C934      1.0  0.94503  0.46015  0.25365  1.0000
  C   C935      1.0  0.93726  0.43841  0.29592  1.0000
  C   C936      1.0  0.92536  0.44794  0.25185  1.0000
  H   H1460     1.0  0.95348  0.44425  0.21233  1.0000
  H   H1461     1.0  0.94468  0.45137  0.17966  1.0000
  H   H1462     1.0  0.93888  0.43521  0.21075  1.0000
  H   H1463     1.0  0.94621  0.46734  0.22114  1.0000
  H   H1464     1.0  0.94045  0.46321  0.28299  1.0000
  H   H1465     1.0  0.95439  0.46018  0.25659  1.0000
  H   H1466     1.0  0.93197  0.42893  0.29681  1.0000
  H   H1467     1.0  0.93253  0.44050  0.32756  1.0000
  H   H1468     1.0  0.94653  0.43802  0.29868  1.0000
  H   H1469     1.0  0.92051  0.45039  0.28240  1.0000
  H   H1470     1.0  0.91972  0.43867  0.25229  1.0000
  H   H1471     1.0  0.92543  0.45480  0.22011  1.0000
  C   C937      1.0  0.91173  0.43049  0.94678  1.0000
  C   C938      1.0  0.92087  0.41364  0.95541  1.0000
  H   H1472     1.0  0.91300  0.44040  0.92928  1.0000
  H   H1473     1.0  0.90961  0.42946  0.98462  1.0000
  H   H1474     1.0  0.90359  0.42480  0.93968  1.0000
  H   H1475     1.0  0.92908  0.41055  0.94407  1.0000
  H   H1476     1.0  0.91303  0.40731  0.94886  1.0000
  N   N93       1.0  0.88307  0.47916  0.47196  1.0000
  C   C939      1.0  0.87261  0.47011  0.50889  1.0000
  C   C940      1.0  0.88816  0.48975  0.48893  1.0000
  C   C941      1.0  0.87891  0.48366  0.43093  1.0000
  C   C942      1.0  0.89264  0.47306  0.45907  1.0000
  H   H1477     1.0  0.86851  0.46200  0.49720  1.0000
  H   H1478     1.0  0.86523  0.47437  0.52001  1.0000
  H   H1479     1.0  0.87550  0.46632  0.54001  1.0000
  H   H1480     1.0  0.89618  0.49665  0.46208  1.0000
  H   H1481     1.0  0.88122  0.49465  0.49866  1.0000
  H   H1482     1.0  0.89129  0.48661  0.52013  1.0000
  H   H1483     1.0  0.88661  0.49041  0.40220  1.0000
  H   H1484     1.0  0.87164  0.48827  0.43921  1.0000
  H   H1485     1.0  0.87515  0.47589  0.41698  1.0000
  H   H1486     1.0  0.90038  0.47932  0.42930  1.0000
  H   H1487     1.0  0.88886  0.46464  0.44877  1.0000
  S   S382      1.0  0.87566  0.42306  0.43062  1.0000
  Fe  Fe190     1.0  0.96835  0.40373  0.97936  1.0000
  Fe  Fe191     1.0  0.86740  0.43360  0.38073  1.0000
  H   H1488     1.0  0.86694  0.43776  0.63136  1.0000
  H   H1489     1.0  0.93402  0.51660  0.15422  1.0000
  H   H1490     1.0  0.94192  0.43220  0.92701  1.0000
  N   N94       1.0  0.92278  0.42671  0.93033  1.0000
  H   H1491     1.0  0.91904  0.41234  0.99340  1.0000
  C   C943      1.0  0.93340  0.43476  0.93900  1.0000
  H   H1492     1.0  0.91722  0.42210  0.87231  1.0000
  H   H1493     1.0  0.85085  0.42308  0.12743  1.0000
  C   C944      1.0  0.92511  0.42795  0.88016  1.0000
  H   H1494     1.0  0.93504  0.44468  0.92049  1.0000
  H   H1495     1.0  0.93196  0.43412  0.97647  1.0000
  C   C945      1.0  0.85174  0.44613  0.92048  1.0000
  H   H1496     1.0  0.89084  0.43044  0.71580  1.0000
  H   H1497     1.0  0.92670  0.43775  0.86015  1.0000
  H   H1498     1.0  0.91568  0.42739  0.71386  1.0000
  Fe  Fe192     1.0  0.98569  0.50349  0.06350  1.0000
  H   H1499     1.0  0.93329  0.42496  0.86682  1.0000
  H   H1500     1.0  0.00305  0.45532  0.98494  1.0000
  C   C946      1.0  0.98520  0.40093  0.84787  1.0000
  H   H1501     1.0  0.93164  0.47781  0.20515  1.0000
  H   H1502     1.0  0.98696  0.41271  0.04729  1.0000
  H   H1503     1.0  0.92639  0.49623  0.13986  1.0000
  H   H1504     1.0  0.98946  0.39369  0.83921  1.0000
  C   C947      1.0  0.88300  0.33500  0.14388  1.0000
  H   H1505     1.0  0.86681  0.32552  0.70470  1.0000
  S   S383      1.0  0.98894  0.41365  0.94938  1.0000
  H   H1506     1.0  0.00211  0.42145  0.08633  1.0000
  H   H1507     1.0  0.96596  0.40972  0.87005  1.0000
  C   C948      1.0  0.93161  0.50060  0.10291  1.0000
  H   H1508     1.0  0.86659  0.43021  0.09498  1.0000
  N   N95       1.0  0.86153  0.38560  0.43010  1.0000
  H   H1509     1.0  0.97054  0.38430  0.81851  1.0000
  H   H1510     1.0  0.88282  0.34232  0.16226  1.0000
  H   H1511     1.0  0.93547  0.50942  0.25963  1.0000
  C   C949      1.0  0.86222  0.44328  0.01968  1.0000
  H   H1512     1.0  0.88632  0.33968  0.10609  1.0000
  H   H1513     1.0  0.96471  0.41498  0.81277  1.0000
  H   H1514     1.0  0.86362  0.45081  0.09638  1.0000
  C   C950      1.0  0.00013  0.47207  0.03440  1.0000
  H   H1515     1.0  0.86595  0.32686  0.22688  1.0000
  H   H1516     1.0  0.99729  0.47441  0.06762  1.0000
  N   N96       1.0  0.87080  0.32589  0.15653  1.0000
  H   H1517     1.0  0.88996  0.33048  0.15347  1.0000
  C   C951      1.0  0.99613  0.41817  0.02703  1.0000
  H   H1518     1.0  0.85795  0.31269  0.21761  1.0000
  C   C952      1.0  0.86692  0.31995  0.20698  1.0000
  H   H1519     1.0  0.86046  0.33903  0.16409  1.0000
  H   H1520     1.0  0.86190  0.43635  0.99925  1.0000
  C   C953      1.0  0.86185  0.33231  0.14362  1.0000
  C   C954      1.0  0.98348  0.40782  0.77023  1.0000
  C   C955      1.0  0.85430  0.44745  0.09213  1.0000
  H   H1521     1.0  0.85466  0.37520  0.38620  1.0000
  H   H1522     1.0  0.00518  0.48095  0.00725  1.0000
  C   C956      1.0  0.87333  0.39037  0.43987  1.0000
  C   C957      1.0  0.91979  0.51524  0.09549  1.0000
  H   H1523     1.0  0.84502  0.35411  0.83472  1.0000
  H   H1524     1.0  0.86288  0.40318  0.38429  1.0000
  H   H1525     1.0  0.96143  0.38820  0.86493  1.0000
  C   C958      1.0  0.85283  0.37649  0.47225  1.0000
  H   H1526     1.0  0.99219  0.44703  0.06637  1.0000
  H   H1527     1.0  0.91445  0.51135  0.13256  1.0000
  H   H1528     1.0  0.93454  0.51433  0.01677  1.0000
  H   H1529     1.0  0.84773  0.44374  0.12733  1.0000
  H   H1530     1.0  0.84767  0.39282  0.40689  1.0000
  H   H1531     1.0  0.01079  0.50629  0.12361  1.0000
  H   H1532     1.0  0.93937  0.53061  0.10705  1.0000
  H   H1533     1.0  0.93990  0.52925  0.02672  1.0000
  H   H1534     1.0  0.91995  0.52517  0.08477  1.0000
  C   C959      1.0  0.93874  0.52054  0.11655  1.0000
  H   H1535     1.0  0.94826  0.51977  0.11187  1.0000
  C   C960      1.0  0.93909  0.51919  0.03897  1.0000
  H   H1536     1.0  0.94853  0.51817  0.03235  1.0000
  S   S384      1.0  0.00507  0.51764  0.03738  1.0000
