data_image0
_chemical_formula_structural       FeSFeSFeS2C2H2CS2CHCHCHC3H2CSHC3N2HCSCHCHCH5CH3SH3SH3C2SCH2CNC3H5CH4CH2CH2NCHCHS2CH4CFe2C2HFeSCFeHSH2CNH4C2H6CHSFeSCHC2HCFeS2HCH2CHFeCSHC4H2CHCFeSHSFeHSCH2C2SHCHCFeCHCH2CH2CNH3CH2SCHCSHSHCHSFeH2SCHC2HSC2H4CFeCSFeSCHCHSFeS2HNH3C2H3SHC2FeSC3HNC3H5C2HC2H2CSNHSFe3S3FeS2HCH2C2H2C2HCH4NCH4C2H4CH5CHCHNHC3HSCH5SHCHC2HCFeS2CHFeHSNCH3CH2CHSHCFeCH2FeS3C3H3CHCNCHCH6C3H2FeHSFeCSCSHFeCS2HSHFeC2H3CH3C2HCH3CHCHCH2C2HCHNSHCH2CH2C2H2SCH5CHCNCH3CHCH2CHCH6CHS2C6H6CH4CNC2H2CH2CHSHCH3NC2HCHCHSHCSFe2NSC2H3SH3CH2FeSFeS2C3H2NHCH2CH3C2H5CHCSHC2HFeSFeSFeS2H2CSFeHCHSH3CHC3H2CHS2CH7CHCH4C9H2NS2H5NH6CSC2HCHCH2CHCHCHSFeS2Fe2C3NHCH3C2HCSH4CH4SFeC3H6C4HCH4FeHCSFeS2FeSFeHNCSHC2H4CSH3CHC3SH7C5H3CNCHC2HCHCH2FeSFeS2FeS2FeS2C3H2FeC2HCH6SH2CNH3CHCH10SCH5CHNCSC2HCHC2H5CNH3SC2HFeHCH2CH2CSC3H5CHCH3NHCHC2HSCHFeCFe2HS2HCHSC2SH2CH4CHC4H2FeHSH3CNCFeH2C2HC2H3FeS2FeSFe2S3C2H2CSHC2H2NCH3CH2C2H2CSH3CH2CHSH8CH4SNC3HC2H3CHCHCSC2HNCFeHCH3CHCH2SFeH3SNCH3CSC4H3CHCH3FeH4CH4C6H2SCHCHCSHCHSHCNH7CH7C3NH4CH4CH2SH3CH3FeSFeS2Fe2SC2HNSHCS2CHCH5CNHC2H2C2HCH2CH2CH3S2C6H5CHNSH7Fe2SFeSFeS3HC3H3CH2CHC2H2CH3CH5CHCH4CH4CHCFeSFeSFeSCSCNCHSC2HC2H6FeSHCH4SH3CS2C6H6CH2NHCH2CHNH5CHCH3C2H2SFeH2CFe3S2C2S3CH3CH2CH3CH2CNHS2HFeSHFeCH2CH3CH2C2SCHSH4SH2FeCH2SHSFeSC5H3C3HNH4C2H5SCHCH6CFeCH2S2HFeS3CNHCHCHCSC2H4CFeHFeC2H2C2HCSHSHCH2FeH5C3HCSH3FeH3CHCHC2SFeS2FeSC4H2SH2C2H2C2H2NCH2CNHCHC2NH5SFeS2CHFeSCHSCHFeCHC2H3C3H8SHSFeCHNHCH2
_chemical_formula_sum              "Fe96 S192 C480 H768 N48"
_cell_length_a       52.4768
_cell_length_b       52.4572
_cell_length_c       45.7642
_cell_angle_alpha    90.3111
_cell_angle_beta     89.9185
_cell_angle_gamma    120.129

_space_group_name_H-M_alt    "P 1"
_space_group_IT_number       1

loop_
  _space_group_symop_operation_xyz
  'x, y, z'

loop_
  _atom_site_type_symbol
  _atom_site_label
  _atom_site_symmetry_multiplicity
  _atom_site_fract_x
  _atom_site_fract_y
  _atom_site_fract_z
  _atom_site_occupancy
  Fe  Fe1       1.0  0.45733  0.11572  0.19742  1.0000
  S   S1        1.0  0.44911  0.09320  0.24181  1.0000
  Fe  Fe2       1.0  0.45474  0.10191  0.13073  1.0000
  S   S2        1.0  0.44585  0.06226  0.10222  1.0000
  Fe  Fe3       1.0  0.45162  0.15545  0.15254  1.0000
  S   S3        1.0  0.42400  0.10658  0.16198  1.0000
  S   S4        1.0  0.48029  0.15020  0.11894  1.0000
  C   C1        1.0  0.42352  0.04637  0.07075  1.0000
  C   C2        1.0  0.41123  0.06047  0.05516  1.0000
  H   H1        1.0  0.41438  0.08139  0.06288  1.0000
  H   H2        1.0  0.46458  0.15356  0.25541  1.0000
  C   C3        1.0  0.41911  0.01913  0.06042  1.0000
  S   S5        1.0  0.48583  0.10725  0.16713  1.0000
  S   S6        1.0  0.48243  0.16457  0.19024  1.0000
  C   C4        1.0  0.45772  0.11339  0.27493  1.0000
  H   H3        1.0  0.42825  0.00790  0.07249  1.0000
  C   C5        1.0  0.46511  0.14294  0.27541  1.0000
  H   H4        1.0  0.37737  0.28936  0.03405  1.0000
  C   C6        1.0  0.39898  0.30778  0.04167  1.0000
  H   H5        1.0  0.39532  0.32604  0.04888  1.0000
  C   C7        1.0  0.40285  0.00619  0.03471  1.0000
  C   C8        1.0  0.48983  0.28149  0.24593  1.0000
  C   C9        1.0  0.44982  0.24764  0.21482  1.0000
  H   H6        1.0  0.45057  0.29682  0.19730  1.0000
  H   H7        1.0  0.39400  0.25433  0.04887  1.0000
  C   C10       1.0  0.41533  0.27381  0.05554  1.0000
  S   S7        1.0  0.42917  0.18270  0.14788  1.0000
  H   H8        1.0  0.43834  0.27975  0.13786  1.0000
  C   C11       1.0  0.44935  0.22095  0.14111  1.0000
  C   C12       1.0  0.48036  0.28255  0.13226  1.0000
  C   C13       1.0  0.44998  0.26770  0.13731  1.0000
  N   N1        1.0  0.41134  0.29842  0.06559  1.0000
  N   N2        1.0  0.46284  0.27616  0.23052  1.0000
  H   H9        1.0  0.41096  0.22559  0.14501  1.0000
  C   C14       1.0  0.43451  0.23700  0.14132  1.0000
  S   S8        1.0  0.50037  0.32103  0.12637  1.0000
  C   C15       1.0  0.39094  0.28873  0.09075  1.0000
  H   H10       1.0  0.38783  0.30696  0.09920  1.0000
  C   C16       1.0  0.44140  0.27553  0.25193  1.0000
  H   H11       1.0  0.36881  0.27013  0.08470  1.0000
  C   C17       1.0  0.47040  0.30013  0.20940  1.0000
  H   H12       1.0  0.42493  0.26652  0.07313  1.0000
  H   H13       1.0  0.42114  0.27252  0.24090  1.0000
  H   H14       1.0  0.42940  0.24289  0.20294  1.0000
  H   H15       1.0  0.39938  0.28124  0.10914  1.0000
  H   H16       1.0  0.44392  0.22897  0.22999  1.0000
  C   C18       1.0  0.44016  0.32348  0.07450  1.0000
  H   H17       1.0  0.46541  0.24745  0.19839  1.0000
  H   H18       1.0  0.48674  0.30158  0.19295  1.0000
  H   H19       1.0  0.47992  0.32190  0.22064  1.0000
  S   S9        1.0  0.43550  0.33207  0.15347  1.0000
  H   H20       1.0  0.43052  0.28034  0.03650  1.0000
  H   H21       1.0  0.50025  0.30294  0.25790  1.0000
  H   H22       1.0  0.45031  0.31726  0.09241  1.0000
  S   S10       1.0  0.43376  0.33756  0.23737  1.0000
  H   H23       1.0  0.45075  0.29663  0.26444  1.0000
  H   H24       1.0  0.48494  0.26386  0.26213  1.0000
  H   H25       1.0  0.49140  0.22363  0.13604  1.0000
  C   C19       1.0  0.47977  0.23580  0.13632  1.0000
  C   C20       1.0  0.49514  0.26646  0.13160  1.0000
  S   S11       1.0  0.01142  0.41600  0.08806  1.0000
  C   C21       1.0  0.02022  0.38048  0.04860  1.0000
  H   H26       1.0  0.06261  0.45484  0.05534  1.0000
  H   H27       1.0  0.06617  0.40521  0.10995  1.0000
  C   C22       1.0  0.05427  0.39551  0.13078  1.0000
  N   N3        1.0  0.06503  0.41752  0.15474  1.0000
  C   C23       1.0  0.02985  0.40886  0.05944  1.0000
  C   C24       1.0  0.04764  0.40392  0.18144  1.0000
  C   C25       1.0  0.06173  0.44290  0.14635  1.0000
  H   H28       1.0  0.03816  0.43620  0.14320  1.0000
  H   H29       1.0  0.02387  0.39612  0.17785  1.0000
  H   H30       1.0  0.05493  0.41979  0.20006  1.0000
  H   H31       1.0  0.07066  0.46047  0.16339  1.0000
  H   H32       1.0  0.07310  0.45274  0.12535  1.0000
  C   C26       1.0  0.09644  0.42774  0.16040  1.0000
  H   H33       1.0  0.10527  0.44432  0.17842  1.0000
  H   H34       1.0  0.04921  0.38447  0.18845  1.0000
  H   H35       1.0  0.03050  0.38687  0.12635  1.0000
  H   H36       1.0  0.11008  0.43814  0.14062  1.0000
  C   C27       1.0  0.05482  0.43282  0.04692  1.0000
  H   H37       1.0  0.05690  0.37628  0.13608  1.0000
  H   H38       1.0  0.09971  0.40912  0.16676  1.0000
  C   C28       1.0  0.39518  0.04763  0.02926  1.0000
  H   H39       1.0  0.40097  0.49775  0.07473  1.0000
  H   H40       1.0  0.42806  0.47423  0.09620  1.0000
  N   N4        1.0  0.43168  0.48907  0.05178  1.0000
  C   C29       1.0  0.40414  0.49027  0.05294  1.0000
  H   H41       1.0  0.36333  0.37660  0.06613  1.0000
  C   C30       1.0  0.38382  0.38472  0.05429  1.0000
  H   H42       1.0  0.38450  0.46824  0.04847  1.0000
  S   S12       1.0  0.40299  0.36876  0.10283  1.0000
  S   S13       1.0  0.50015  0.37588  0.18407  1.0000
  C   C31       1.0  0.46810  0.38878  0.26873  1.0000
  H   H43       1.0  0.45610  0.33158  0.05605  1.0000
  H   H44       1.0  0.43786  0.34232  0.08237  1.0000
  H   H45       1.0  0.47455  0.39988  0.24787  1.0000
  H   H46       1.0  0.41125  0.44530  0.06947  1.0000
  C   C32       1.0  0.43037  0.46774  0.07359  1.0000
  Fe  Fe4       1.0  0.49897  0.41255  0.16022  1.0000
  Fe  Fe5       1.0  0.45271  0.35983  0.19409  1.0000
  C   C33       1.0  0.40763  0.38404  0.06750  1.0000
  C   C34       1.0  0.44856  0.35839  0.26970  1.0000
  H   H47       1.0  0.45242  0.39397  0.06177  1.0000
  Fe  Fe6       1.0  0.48296  0.35037  0.14217  1.0000
  S   S14       1.0  0.48676  0.38901  0.11689  1.0000
  C   C35       1.0  0.43391  0.39435  0.05190  1.0000
  Fe  Fe7       1.0  0.44016  0.37243  0.13137  1.0000
  H   H48       1.0  0.45050  0.46571  0.07296  1.0000
  S   S15       1.0  0.45239  0.39831  0.17338  1.0000
  H   H49       1.0  0.43464  0.25737  0.26794  1.0000
  H   H50       1.0  0.36661  0.05585  0.42630  1.0000
  C   C36       1.0  0.37535  0.07671  0.41371  1.0000
  N   N5        1.0  0.38834  0.07494  0.38559  1.0000
  H   H51       1.0  0.39202  0.09443  0.42801  1.0000
  H   H52       1.0  0.35706  0.08134  0.41044  1.0000
  H   H53       1.0  0.38266  0.10898  0.36587  1.0000
  H   H54       1.0  0.41813  0.12178  0.38214  1.0000
  C   C37       1.0  0.40005  0.10317  0.36978  1.0000
  C   C38       1.0  0.36545  0.05089  0.36756  1.0000
  H   H55       1.0  0.34685  0.05477  0.36287  1.0000
  H   H56       1.0  0.35621  0.02925  0.37878  1.0000
  H   H57       1.0  0.37452  0.04894  0.34616  1.0000
  H   H58       1.0  0.40932  0.10230  0.34813  1.0000
  H   H59       1.0  0.40466  0.04818  0.40399  1.0000
  H   H60       1.0  0.43032  0.08685  0.40437  1.0000
  C   C39       1.0  0.41248  0.06885  0.39128  1.0000
  H   H61       1.0  0.47833  0.07523  0.49117  1.0000
  S   S16       1.0  0.44836  0.14573  0.43783  1.0000
  Fe  Fe8       1.0  0.45704  0.11217  0.45922  1.0000
  S   S17       1.0  0.42187  0.06518  0.47043  1.0000
  C   C40       1.0  0.45821  0.09980  0.30118  1.0000
  H   H62       1.0  0.46741  0.10546  0.34766  1.0000
  C   C41       1.0  0.47358  0.14532  0.32808  1.0000
  C   C42       1.0  0.46644  0.11580  0.32766  1.0000
  H   H63       1.0  0.45267  0.07696  0.30089  1.0000
  C   C43       1.0  0.41891  0.05264  0.50700  1.0000
  Fe  Fe9       1.0  0.48527  0.15357  0.40738  1.0000
  S   S18       1.0  0.48949  0.14481  0.49104  1.0000
  S   S19       1.0  0.49135  0.11741  0.42625  1.0000
  H   H64       1.0  0.42241  0.06667  0.37060  1.0000
  C   C44       1.0  0.40513  0.02225  0.51285  1.0000
  H   H65       1.0  0.39569  0.00658  0.49506  1.0000
  H   H66       1.0  0.49798  0.05800  0.47727  1.0000
  C   C45       1.0  0.47292  0.15877  0.30188  1.0000
  H   H67       1.0  0.49105  0.03074  0.52356  1.0000
  Fe  Fe10      1.0  0.50182  0.39367  0.45752  1.0000
  C   C46       1.0  0.47081  0.39090  0.32203  1.0000
  S   S20       1.0  0.43177  0.28808  0.42769  1.0000
  H   H68       1.0  0.45488  0.29215  0.48630  1.0000
  C   C47       1.0  0.46694  0.25834  0.48852  1.0000
  C   C48       1.0  0.45611  0.27486  0.47456  1.0000
  C   C49       1.0  0.44609  0.26834  0.44570  1.0000
  C   C50       1.0  0.44690  0.24523  0.43093  1.0000
  H   H69       1.0  0.43893  0.23993  0.40868  1.0000
  H   H70       1.0  0.47427  0.26313  0.51099  1.0000
  C   C51       1.0  0.45818  0.22905  0.44470  1.0000
  H   H71       1.0  0.42522  0.32076  0.29784  1.0000
  C   C52       1.0  0.46817  0.23552  0.47358  1.0000
  Fe  Fe11      1.0  0.45008  0.33656  0.43660  1.0000
  S   S21       1.0  0.45907  0.36161  0.47914  1.0000
  H   H72       1.0  0.45905  0.21154  0.43300  1.0000
  S   S22       1.0  0.48324  0.16645  0.36056  1.0000
  Fe  Fe12      1.0  0.48407  0.17904  0.46687  1.0000
  H   H73       1.0  0.47838  0.18160  0.30208  1.0000
  S   S23       1.0  0.48312  0.21619  0.49131  1.0000
  C   C53       1.0  0.50035  0.07707  0.49023  1.0000
  H   H74       1.0  0.06447  0.47648  0.49381  1.0000
  H   H75       1.0  0.06407  0.39730  0.49924  1.0000
  C   C54       1.0  0.01972  0.38903  0.50441  1.0000
  C   C55       1.0  0.04765  0.39567  0.51462  1.0000
  S   S24       1.0  0.01243  0.38406  0.46643  1.0000
  H   H76       1.0  0.08037  0.45872  0.51415  1.0000
  C   C56       1.0  0.06549  0.46806  0.51578  1.0000
  H   H77       1.0  0.04303  0.44955  0.52086  1.0000
  C   C57       1.0  0.42276  0.42257  0.39044  1.0000
  Fe  Fe13      1.0  0.47303  0.39102  0.39882  1.0000
  C   C58       1.0  0.42353  0.43120  0.33855  1.0000
  H   H78       1.0  0.42948  0.45451  0.34234  1.0000
  C   C59       1.0  0.39243  0.42371  0.51991  1.0000
  H   H79       1.0  0.36468  0.40472  0.34539  1.0000
  H   H80       1.0  0.39742  0.44295  0.50711  1.0000
  C   C60       1.0  0.37816  0.41281  0.36569  1.0000
  H   H81       1.0  0.38267  0.43561  0.37005  1.0000
  H   H82       1.0  0.36448  0.39873  0.38408  1.0000
  C   C61       1.0  0.39928  0.40286  0.50871  1.0000
  N   N6        1.0  0.40582  0.41202  0.36289  1.0000
  H   H83       1.0  0.38497  0.36617  0.37455  1.0000
  H   H84       1.0  0.41152  0.42379  0.31737  1.0000
  H   H85       1.0  0.38683  0.37299  0.33584  1.0000
  C   C62       1.0  0.39878  0.38144  0.35693  1.0000
  H   H86       1.0  0.41029  0.40832  0.40924  1.0000
  H   H87       1.0  0.42821  0.44543  0.39593  1.0000
  S   S25       1.0  0.41507  0.40836  0.47346  1.0000
  C   C63       1.0  0.44038  0.34426  0.29691  1.0000
  H   H88       1.0  0.49382  0.42856  0.29389  1.0000
  C   C64       1.0  0.39249  0.37793  0.52529  1.0000
  S   S26       1.0  0.48372  0.41238  0.35427  1.0000
  H   H89       1.0  0.39732  0.36153  0.51675  1.0000
  S   S27       1.0  0.42796  0.35920  0.41557  1.0000
  H   H90       1.0  0.44395  0.42261  0.38900  1.0000
  C   C65       1.0  0.47899  0.40499  0.29483  1.0000
  H   H91       1.0  0.44528  0.34928  0.34386  1.0000
  S   S28       1.0  0.48454  0.42085  0.43788  1.0000
  Fe  Fe14      1.0  0.44086  0.38712  0.45644  1.0000
  H   H92       1.0  0.41916  0.37998  0.35550  1.0000
  H   H93       1.0  0.44451  0.43098  0.33581  1.0000
  S   S29       1.0  0.49432  0.36675  0.41689  1.0000
  C   C66       1.0  0.45165  0.36040  0.32301  1.0000
  H   H94       1.0  0.44087  0.09597  0.52628  1.0000
  C   C67       1.0  0.41621  0.03207  0.56483  1.0000
  C   C68       1.0  0.42949  0.06237  0.55893  1.0000
  H   H95       1.0  0.43888  0.07809  0.57673  1.0000
  S   S30       1.0  0.41775  0.02117  0.60117  1.0000
  C   C69       1.0  0.40384  0.01198  0.54163  1.0000
  C   C70       1.0  0.43082  0.07259  0.53027  1.0000
  H   H96       1.0  0.46937  0.04610  0.53621  1.0000
  H   H97       1.0  0.24475  0.48439  0.75119  1.0000
  H   H98       1.0  0.03258  0.48531  0.54530  1.0000
  H   H99       1.0  0.09107  0.46914  0.56648  1.0000
  C   C71       1.0  0.07657  0.47894  0.56705  1.0000
  Fe  Fe15      1.0  0.13971  0.49138  0.61644  1.0000
  C   C72       1.0  0.05464  0.40056  0.54459  1.0000
  S   S31       1.0  0.09789  0.47295  0.64183  1.0000
  Fe  Fe16      1.0  0.08754  0.42983  0.62134  1.0000
  S   S32       1.0  0.04113  0.40368  0.60265  1.0000
  C   C73       1.0  0.03349  0.39817  0.56473  1.0000
  H   H100      1.0  0.07623  0.40568  0.55217  1.0000
  C   C74       1.0  0.12350  0.46186  0.75639  1.0000
  H   H101      1.0  0.05430  0.46114  0.57386  1.0000
  S   S33       1.0  0.12213  0.47901  0.72366  1.0000
  Fe  Fe17      1.0  0.12188  0.46359  0.67703  1.0000
  S   S34       1.0  0.10744  0.41837  0.65931  1.0000
  S   S35       1.0  0.12850  0.44877  0.59405  1.0000
  H   H102      1.0  0.08527  0.49613  0.58450  1.0000
  N   N7        1.0  0.07578  0.49138  0.53838  1.0000
  H   H103      1.0  0.26708  0.35938  0.54618  1.0000
  H   H104      1.0  0.23998  0.47235  0.68627  1.0000
  H   H105      1.0  0.23499  0.44970  0.73418  1.0000
  C   C75       1.0  0.12254  0.43471  0.75647  1.0000
  C   C76       1.0  0.22591  0.46346  0.74272  1.0000
  H   H106      1.0  0.11979  0.42305  0.73609  1.0000
  H   H107      1.0  0.16969  0.42798  0.72694  1.0000
  H   H108      1.0  0.19315  0.42686  0.69881  1.0000
  S   S36       1.0  0.16499  0.48592  0.65296  1.0000
  H   H109      1.0  0.21845  0.47878  0.61344  1.0000
  C   C77       1.0  0.18508  0.44083  0.70901  1.0000
  C   C78       1.0  0.26198  0.48476  0.61989  1.0000
  Fe  Fe18      1.0  0.14967  0.44122  0.63336  1.0000
  S   S37       1.0  0.17763  0.41948  0.63450  1.0000
  C   C79       1.0  0.23286  0.42778  0.64250  1.0000
  C   C80       1.0  0.21636  0.44031  0.63245  1.0000
  C   C81       1.0  0.23099  0.46895  0.62131  1.0000
  H   H110      1.0  0.22165  0.40572  0.65137  1.0000
  N   N8        1.0  0.20970  0.46919  0.71972  1.0000
  C   C82       1.0  0.26379  0.44380  0.64160  1.0000
  C   C83       1.0  0.27851  0.47222  0.62994  1.0000
  C   C84       1.0  0.19792  0.48737  0.73190  1.0000
  H   H111      1.0  0.17190  0.44423  0.69207  1.0000
  H   H112      1.0  0.18332  0.47653  0.75096  1.0000
  H   H113      1.0  0.21126  0.45156  0.76147  1.0000
  H   H114      1.0  0.25071  0.41246  0.58461  1.0000
  H   H115      1.0  0.18456  0.49118  0.71547  1.0000
  C   C85       1.0  0.49224  0.05005  0.53505  1.0000
  C   C86       1.0  0.05536  0.50305  0.53984  1.0000
  H   H116      1.0  0.25432  0.35683  0.59860  1.0000
  C   C87       1.0  0.25535  0.40062  0.56694  1.0000
  C   C88       1.0  0.37855  0.37372  0.55262  1.0000
  H   H117      1.0  0.31268  0.44019  0.55960  1.0000
  H   H118      1.0  0.32648  0.42403  0.58499  1.0000
  C   C89       1.0  0.30699  0.42609  0.57936  1.0000
  S   S38       1.0  0.31733  0.49235  0.62706  1.0000
  N   N9        1.0  0.28063  0.39685  0.57457  1.0000
  H   H119      1.0  0.29270  0.37630  0.60816  1.0000
  S   S39       1.0  0.33968  0.42387  0.73755  1.0000
  Fe  Fe19      1.0  0.40730  0.48542  0.65397  1.0000
  Fe  Fe20      1.0  0.34500  0.47306  0.64280  1.0000
  Fe  Fe21      1.0  0.36179  0.42662  0.62862  1.0000
  S   S40       1.0  0.35518  0.38904  0.59870  1.0000
  S   S41       1.0  0.32524  0.42563  0.65519  1.0000
  S   S42       1.0  0.37499  0.49067  0.68202  1.0000
  Fe  Fe22      1.0  0.35715  0.44300  0.69283  1.0000
  S   S43       1.0  0.39159  0.43883  0.66761  1.0000
  S   S44       1.0  0.37956  0.47300  0.61343  1.0000
  H   H120      1.0  0.37419  0.43620  0.55587  1.0000
  C   C90       1.0  0.37920  0.41989  0.54753  1.0000
  H   H121      1.0  0.27619  0.43415  0.65002  1.0000
  H   H122      1.0  0.39668  0.47668  0.74763  1.0000
  C   C91       1.0  0.37221  0.39485  0.56403  1.0000
  C   C92       1.0  0.27387  0.37920  0.60153  1.0000
  H   H123      1.0  0.26907  0.38993  0.62010  1.0000
  H   H124      1.0  0.30355  0.43822  0.59752  1.0000
  C   C93       1.0  0.38679  0.46766  0.76858  1.0000
  C   C94       1.0  0.28649  0.38154  0.55053  1.0000
  H   H125      1.0  0.30542  0.37830  0.55591  1.0000
  C   C95       1.0  0.35909  0.44209  0.76973  1.0000
  H   H126      1.0  0.41542  0.44255  0.59894  1.0000
  H   H127      1.0  0.37292  0.35411  0.56510  1.0000
  H   H128      1.0  0.44410  0.48018  0.60229  1.0000
  H   H129      1.0  0.48996  0.47719  0.56532  1.0000
  N   N10       1.0  0.45915  0.44906  0.59775  1.0000
  C   C96       1.0  0.45873  0.44334  0.62940  1.0000
  H   H130      1.0  0.49570  0.49328  0.60119  1.0000
  H   H131      1.0  0.43643  0.42595  0.63665  1.0000
  H   H132      1.0  0.43666  0.46223  0.56746  1.0000
  H   H133      1.0  0.46684  0.41395  0.58486  1.0000
  C   C97       1.0  0.48899  0.47233  0.58908  1.0000
  C   C98       1.0  0.43789  0.45891  0.59129  1.0000
  H   H134      1.0  0.42874  0.40354  0.58800  1.0000
  H   H135      1.0  0.47454  0.43589  0.63514  1.0000
  H   H136      1.0  0.46465  0.46348  0.64257  1.0000
  H   H137      1.0  0.44982  0.42478  0.55728  1.0000
  C   C99       1.0  0.45085  0.42167  0.58124  1.0000
  H   H138      1.0  0.49952  0.05026  0.55793  1.0000
  H   H139      1.0  0.23490  0.37900  0.56351  1.0000
  H   H140      1.0  0.25964  0.41374  0.54663  1.0000
  H   H141      1.0  0.49153  0.10090  0.53858  1.0000
  H   H142      1.0  0.29209  0.39437  0.52990  1.0000
  C   C100      1.0  0.22992  0.48501  0.69531  1.0000
  H   H143      1.0  0.21821  0.48868  0.67701  1.0000
  C   C101      1.0  0.00540  0.39109  0.55455  1.0000
  H   H144      1.0  0.38611  0.05890  0.01713  1.0000
  N   N11       1.0  0.47078  0.04464  0.97451  1.0000
  H   H145      1.0  0.48282  0.07002  0.93492  1.0000
  C   C102      1.0  0.46745  0.04735  0.94280  1.0000
  C   C103      1.0  0.50158  0.05305  0.98108  1.0000
  C   C104      1.0  0.39126  0.02064  0.01866  1.0000
  H   H146      1.0  0.47773  0.08773  0.98521  1.0000
  S   S45       1.0  0.37359  0.00693  0.98438  1.0000
  C   C105      1.0  0.46284  0.06415  0.99069  1.0000
  H   H147      1.0  0.44469  0.04233  0.93740  1.0000
  H   H148      1.0  0.43996  0.05882  0.98539  1.0000
  H   H149      1.0  0.47168  0.03170  0.92997  1.0000
  H   H150      1.0  0.41405  0.31592  0.02250  1.0000
  H   H151      1.0  0.47325  0.49751  0.84723  1.0000
  S   S46       1.0  0.41590  0.41836  0.97366  1.0000
  H   H152      1.0  0.12723  0.49747  0.78322  1.0000
  C   C106      1.0  0.06971  0.42863  0.02340  1.0000
  H   H153      1.0  0.03460  0.48095  0.92477  1.0000
  C   C107      1.0  0.02904  0.45777  0.92860  1.0000
  C   C108      1.0  0.05960  0.40040  0.01194  1.0000
  H   H154      1.0  0.05639  0.46853  0.99763  1.0000
  C   C109      1.0  0.12649  0.47648  0.78309  1.0000
  Fe  Fe23      1.0  0.12308  0.48772  0.92113  1.0000
  S   S47       1.0  0.09244  0.44015  0.90968  1.0000
  S   S48       1.0  0.07600  0.39449  0.98066  1.0000
  C   C110      1.0  0.05678  0.47172  0.97362  1.0000
  H   H155      1.0  0.07453  0.46836  0.96439  1.0000
  Fe  Fe24      1.0  0.10931  0.43076  0.95093  1.0000
  H   H156      1.0  0.13055  0.47560  0.83004  1.0000
  S   S49       1.0  0.13789  0.47831  0.96370  1.0000
  N   N12       1.0  0.02794  0.45135  0.96014  1.0000
  C   C111      1.0  0.12843  0.46415  0.80966  1.0000
  H   H157      1.0  0.03874  0.41704  0.95481  1.0000
  H   H158      1.0  0.04632  0.45501  0.91735  1.0000
  H   H159      1.0  0.02712  0.35436  0.01626  1.0000
  C   C112      1.0  0.02111  0.42060  0.96411  1.0000
  H   H160      1.0  0.06340  0.49518  0.96974  1.0000
  H   H161      1.0  0.08889  0.44726  0.01397  1.0000
  C   C113      1.0  0.03503  0.37632  0.02491  1.0000
  H   H162      1.0  0.01902  0.41468  0.98765  1.0000
  S   S50       1.0  0.22170  0.49987  0.94720  1.0000
  H   H163      1.0  0.21431  0.46535  0.89461  1.0000
  C   C114      1.0  0.27155  0.49530  0.94603  1.0000
  Fe  Fe25      1.0  0.13124  0.44234  0.88666  1.0000
  C   C115      1.0  0.12756  0.43708  0.80979  1.0000
  H   H164      1.0  0.16799  0.40299  0.87797  1.0000
  H   H165      1.0  0.19470  0.41320  0.90667  1.0000
  Fe  Fe26      1.0  0.17294  0.47654  0.93647  1.0000
  S   S51       1.0  0.14558  0.42817  0.92685  1.0000
  S   S52       1.0  0.13054  0.42123  0.84280  1.0000
  S   S53       1.0  0.16065  0.49068  0.89492  1.0000
  C   C116      1.0  0.24082  0.48018  0.94957  1.0000
  C   C117      1.0  0.22593  0.44973  0.95410  1.0000
  C   C118      1.0  0.24163  0.43447  0.95459  1.0000
  H   H166      1.0  0.20236  0.43796  0.95745  1.0000
  H   H167      1.0  0.22995  0.41088  0.95797  1.0000
  H   H168      1.0  0.25978  0.45641  0.85852  1.0000
  C   C119      1.0  0.24270  0.43856  0.87225  1.0000
  H   H169      1.0  0.22754  0.47868  0.85865  1.0000
  C   C120      1.0  0.21077  0.45932  0.87105  1.0000
  N   N13       1.0  0.21275  0.43265  0.86500  1.0000
  C   C121      1.0  0.20661  0.42472  0.83374  1.0000
  H   H170      1.0  0.18405  0.41994  0.82771  1.0000
  C   C122      1.0  0.19084  0.40798  0.88294  1.0000
  H   H171      1.0  0.24842  0.44578  0.89535  1.0000
  H   H172      1.0  0.24478  0.41859  0.86932  1.0000
  H   H173      1.0  0.19173  0.38749  0.87909  1.0000
  H   H174      1.0  0.18871  0.45593  0.86523  1.0000
  H   H175      1.0  0.22257  0.44291  0.81958  1.0000
  H   H176      1.0  0.20799  0.40469  0.82848  1.0000
  C   C123      1.0  0.28724  0.48002  0.94631  1.0000
  C   C124      1.0  0.27229  0.44949  0.95040  1.0000
  C   C125      1.0  0.38623  0.39575  0.02581  1.0000
  H   H177      1.0  0.31083  0.49183  0.94312  1.0000
  H   H178      1.0  0.43759  0.49577  0.00532  1.0000
  Fe  Fe27      1.0  0.40005  0.50267  0.95991  1.0000
  H   H179      1.0  0.41549  0.45830  0.01621  1.0000
  S   S54       1.0  0.40923  0.48753  0.85405  1.0000
  Fe  Fe28      1.0  0.39009  0.47337  0.89965  1.0000
  C   C126      1.0  0.40183  0.48136  0.79462  1.0000
  S   S55       1.0  0.36893  0.49583  0.92305  1.0000
  C   C127      1.0  0.38924  0.46978  0.82198  1.0000
  S   S56       1.0  0.35990  0.42822  0.91775  1.0000
  H   H180      1.0  0.32515  0.41072  0.79814  1.0000
  Fe  Fe29      1.0  0.34031  0.45133  0.94338  1.0000
  C   C128      1.0  0.34651  0.43055  0.79709  1.0000
  S   S57       1.0  0.36970  0.46018  0.98252  1.0000
  S   S58       1.0  0.29067  0.42906  0.94854  1.0000
  H   H181      1.0  0.36769  0.39604  0.01584  1.0000
  S   S59       1.0  0.42349  0.48402  0.93509  1.0000
  H   H182      1.0  0.35160  0.43518  0.84408  1.0000
  Fe  Fe30      1.0  0.39168  0.44086  0.95561  1.0000
  C   C129      1.0  0.36145  0.44437  0.82314  1.0000
  C   C130      1.0  0.43510  0.47959  0.02230  1.0000
  H   H183      1.0  0.42330  0.50099  0.79354  1.0000
  H   H184      1.0  0.49499  0.49597  0.87690  1.0000
  H   H185      1.0  0.45624  0.41203  0.01095  1.0000
  C   C131      1.0  0.41225  0.40539  0.00994  1.0000
  H   H186      1.0  0.46114  0.49549  0.88397  1.0000
  H   H187      1.0  0.45264  0.01095  0.00736  1.0000
  H   H188      1.0  0.45456  0.47652  0.02085  1.0000
  C   C132      1.0  0.43604  0.40461  0.02311  1.0000
  C   C133      1.0  0.45111  0.01381  0.98348  1.0000
  H   H189      1.0  0.00942  0.47840  0.97182  1.0000
  C   C134      1.0  0.00485  0.45538  0.97430  1.0000
  H   H190      1.0  0.00770  0.44290  0.91760  1.0000
  H   H191      1.0  0.42775  0.00655  0.97833  1.0000
  H   H192      1.0  0.12377  0.40138  0.78300  1.0000
  C   C135      1.0  0.12476  0.42248  0.78307  1.0000
  H   H193      1.0  0.46377  0.06175  0.01480  1.0000
  C   C136      1.0  0.02065  0.64341  0.03083  1.0000
  H   H194      1.0  0.11525  0.61273  0.06524  1.0000
  C   C137      1.0  0.01094  0.64711  0.05832  1.0000
  H   H195      1.0  0.06925  0.59650  0.03781  1.0000
  H   H196      1.0  0.06164  0.62179  0.05740  1.0000
  C   C138      1.0  0.02342  0.67511  0.07109  1.0000
  C   C139      1.0  0.07361  0.61956  0.03830  1.0000
  H   H197      1.0  0.09855  0.67396  0.06082  1.0000
  C   C140      1.0  0.11011  0.67128  0.04163  1.0000
  H   H198      1.0  0.40415  0.50574  0.03632  1.0000
  N   N14       1.0  0.10552  0.64112  0.03975  1.0000
  S   S60       1.0  0.00931  0.68087  0.10413  1.0000
  H   H199      1.0  0.10774  0.63726  0.08629  1.0000
  C   C141      1.0  0.11829  0.63531  0.06590  1.0000
  H   H200      1.0  0.14238  0.65121  0.06762  1.0000
  H   H201      1.0  0.45833  0.53512  0.04194  1.0000
  C   C142      1.0  0.45703  0.51863  0.05808  1.0000
  H   H202      1.0  0.45527  0.52651  0.08021  1.0000
  H   H203      1.0  0.47818  0.51854  0.05706  1.0000
  C   C143      1.0  0.05680  0.69536  0.02927  1.0000
  C   C144      1.0  0.04644  0.69921  0.05648  1.0000
  H   H204      1.0  0.05619  0.72098  0.06617  1.0000
  H   H205      1.0  0.13391  0.68814  0.04339  1.0000
  S   S61       1.0  0.03433  0.63702  0.47810  1.0000
  C   C145      1.0  0.04240  0.64409  0.51593  1.0000
  H   H206      1.0  0.08827  0.65791  0.50988  1.0000
  H   H207      1.0  0.15921  0.77867  0.51300  1.0000
  H   H208      1.0  0.10626  0.52467  0.50892  1.0000
  H   H209      1.0  0.12214  0.74840  0.50919  1.0000
  H   H210      1.0  0.05430  0.51270  0.51858  1.0000
  C   C146      1.0  0.07154  0.65492  0.52556  1.0000
  H   H211      1.0  0.12876  0.78234  0.52573  1.0000
  C   C147      1.0  0.13732  0.76680  0.52391  1.0000
  N   N15       1.0  0.06177  0.58639  0.64245  1.0000
  C   C148      1.0  0.08526  0.60508  0.62163  1.0000
  H   H212      1.0  0.10089  0.62668  0.63167  1.0000
  H   H213      1.0  0.09836  0.59469  0.61489  1.0000
  H   H214      1.0  0.03242  0.55889  0.60853  1.0000
  C   C149      1.0  0.04264  0.55708  0.62916  1.0000
  H   H215      1.0  0.07615  0.60960  0.60160  1.0000
  C   C150      1.0  0.04403  0.60037  0.64944  1.0000
  H   H216      1.0  0.08961  0.60480  0.68028  1.0000
  H   H217      1.0  0.03374  0.60342  0.62946  1.0000
  C   C151      1.0  0.07523  0.58309  0.66950  1.0000
  H   H218      1.0  0.08943  0.57333  0.66491  1.0000
  C   C152      1.0  0.02862  0.64745  0.56602  1.0000
  H   H219      1.0  0.05786  0.62268  0.65922  1.0000
  H   H220      1.0  0.01191  0.64482  0.58155  1.0000
  H   H221      1.0  0.05826  0.56876  0.68565  1.0000
  H   H222      1.0  0.05537  0.54588  0.62393  1.0000
  H   H223      1.0  0.02450  0.54247  0.64421  1.0000
  H   H224      1.0  0.02614  0.58704  0.66522  1.0000
  C   C153      1.0  0.02089  0.64009  0.53640  1.0000
  H   H225      1.0  0.49695  0.57410  0.73628  1.0000
  S   S62       1.0  0.15389  0.62952  0.67454  1.0000
  S   S63       1.0  0.15231  0.53250  0.59077  1.0000
  C   C154      1.0  0.15305  0.55990  0.61362  1.0000
  C   C155      1.0  0.14936  0.55530  0.64373  1.0000
  C   C156      1.0  0.14985  0.57699  0.66205  1.0000
  C   C157      1.0  0.15392  0.60340  0.65042  1.0000
  C   C158      1.0  0.15742  0.60808  0.62024  1.0000
  C   C159      1.0  0.15700  0.58629  0.60183  1.0000
  H   H226      1.0  0.14656  0.53517  0.65308  1.0000
  H   H227      1.0  0.14722  0.57331  0.68538  1.0000
  H   H228      1.0  0.16084  0.62857  0.61119  1.0000
  H   H229      1.0  0.16008  0.59001  0.57854  1.0000
  H   H230      1.0  0.11377  0.53385  0.54703  1.0000
  H   H231      1.0  0.21584  0.50935  0.73930  1.0000
  C   C160      1.0  0.10567  0.51543  0.53089  1.0000
  H   H232      1.0  0.24828  0.50694  0.70228  1.0000
  H   H233      1.0  0.27320  0.50676  0.61087  1.0000
  H   H234      1.0  0.47229  0.93053  0.76560  1.0000
  H   H235      1.0  0.06243  0.52057  0.55684  1.0000
  C   C161      1.0  0.47852  0.95117  0.75348  1.0000
  N   N16       1.0  0.49847  0.60362  0.70313  1.0000
  C   C162      1.0  0.47318  0.54303  0.63034  1.0000
  C   C163      1.0  0.45802  0.55716  0.62119  1.0000
  H   H236      1.0  0.43487  0.54777  0.62623  1.0000
  H   H237      1.0  0.46227  0.59678  0.60231  1.0000
  C   C164      1.0  0.47352  0.58486  0.60766  1.0000
  H   H238      1.0  0.46107  0.56052  0.69490  1.0000
  H   H239      1.0  0.46366  0.58900  0.67149  1.0000
  C   C165      1.0  0.46743  0.58424  0.69424  1.0000
  H   H240      1.0  0.45202  0.58716  0.70868  1.0000
  S   S64       1.0  0.45679  0.51269  0.65383  1.0000
  H   H241      1.0  0.49194  0.63981  0.71437  1.0000
  C   C166      1.0  0.50396  0.59805  0.60296  1.0000
  H   H242      1.0  0.49895  0.96921  0.76363  1.0000
  H   H243      1.0  0.48819  0.60137  0.74887  1.0000
  H   H244      1.0  0.12189  0.50762  0.53100  1.0000
  N   N17       1.0  0.48263  0.94795  0.72198  1.0000
  C   C167      1.0  0.07916  0.66181  0.55525  1.0000
  C   C168      1.0  0.05779  0.65857  0.57554  1.0000
  H   H245      1.0  0.10156  0.66987  0.56236  1.0000
  C   C169      1.0  0.15084  0.73518  0.54938  1.0000
  H   H246      1.0  0.09381  0.72169  0.55250  1.0000
  C   C170      1.0  0.15991  0.78081  0.57165  1.0000
  H   H247      1.0  0.15247  0.72623  0.57081  1.0000
  S   S65       1.0  0.11582  0.67267  0.67747  1.0000
  H   H248      1.0  0.10426  0.68475  0.74097  1.0000
  C   C171      1.0  0.14096  0.72066  0.76312  1.0000
  S   S66       1.0  0.14199  0.73599  0.64516  1.0000
  Fe  Fe31      1.0  0.11232  0.68829  0.63280  1.0000
  Fe  Fe32      1.0  0.14922  0.71943  0.68792  1.0000
  N   N18       1.0  0.13951  0.75574  0.55289  1.0000
  S   S67       1.0  0.06664  0.66870  0.61278  1.0000
  C   C172      1.0  0.11499  0.69333  0.76178  1.0000
  C   C173      1.0  0.11000  0.74014  0.56655  1.0000
  H   H249      1.0  0.11050  0.73042  0.58796  1.0000
  H   H250      1.0  0.16205  0.77327  0.59371  1.0000
  H   H251      1.0  0.10114  0.75517  0.57052  1.0000
  S   S68       1.0  0.15580  0.74245  0.73164  1.0000
  H   H252      1.0  0.15231  0.79699  0.57470  1.0000
  H   H253      1.0  0.18256  0.79270  0.56230  1.0000
  H   H254      1.0  0.13630  0.71619  0.53499  1.0000
  C   C174      1.0  0.50247  0.59743  0.73372  1.0000
  H   H255      1.0  0.50110  0.91999  0.72926  1.0000
  H   H256      1.0  0.17341  0.74637  0.53982  1.0000
  Fe  Fe33      1.0  0.15366  0.66979  0.65851  1.0000
  S   S69       1.0  0.14812  0.68235  0.61313  1.0000
  Fe  Fe34      1.0  0.17834  0.72910  0.62842  1.0000
  S   S70       1.0  0.21293  0.76253  0.59802  1.0000
  S   S71       1.0  0.18764  0.71576  0.67181  1.0000
  C   C175      1.0  0.23224  0.80395  0.64226  1.0000
  C   C176      1.0  0.23567  0.79790  0.61320  1.0000
  C   C177      1.0  0.25768  0.82024  0.59605  1.0000
  H   H257      1.0  0.21522  0.78698  0.65564  1.0000
  H   H258      1.0  0.26021  0.81580  0.57344  1.0000
  N   N19       1.0  0.33657  0.82340  0.63060  1.0000
  H   H259      1.0  0.30165  0.78099  0.64472  1.0000
  C   C178      1.0  0.30495  0.80127  0.63367  1.0000
  H   H260      1.0  0.29319  0.81014  0.64678  1.0000
  H   H261      1.0  0.29373  0.79453  0.61204  1.0000
  C   C179      1.0  0.25085  0.83211  0.65414  1.0000
  H   H262      1.0  0.34883  0.81227  0.67136  1.0000
  H   H263      1.0  0.32816  0.84434  0.59456  1.0000
  H   H264      1.0  0.34172  0.80496  0.59051  1.0000
  C   C180      1.0  0.35138  0.81102  0.61285  1.0000
  C   C181      1.0  0.35035  0.83161  0.65985  1.0000
  H   H265      1.0  0.34940  0.79089  0.62305  1.0000
  H   H266      1.0  0.37535  0.82730  0.61037  1.0000
  H   H267      1.0  0.33945  0.84079  0.67385  1.0000
  H   H268      1.0  0.24793  0.83667  0.67661  1.0000
  H   H269      1.0  0.37412  0.84872  0.65833  1.0000
  C   C182      1.0  0.33968  0.84987  0.61603  1.0000
  H   H270      1.0  0.36315  0.86637  0.61188  1.0000
  C   C183      1.0  0.27641  0.84841  0.60802  1.0000
  S   S72       1.0  0.42967  0.96929  0.65012  1.0000
  H   H271      1.0  0.33051  0.86096  0.62970  1.0000
  C   C184      1.0  0.36616  0.95107  0.76335  1.0000
  C   C185      1.0  0.27329  0.85431  0.63727  1.0000
  H   H272      1.0  0.39355  0.98859  0.54584  1.0000
  Fe  Fe35      1.0  0.39742  0.97651  0.62410  1.0000
  S   S73       1.0  0.37310  0.93007  0.60593  1.0000
  Fe  Fe36      1.0  0.39748  0.95542  0.68721  1.0000
  S   S74       1.0  0.37383  0.90810  0.67352  1.0000
  Fe  Fe37      1.0  0.34514  0.91926  0.64654  1.0000
  S   S75       1.0  0.29593  0.88933  0.65328  1.0000
  S   S76       1.0  0.36708  0.96632  0.66289  1.0000
  H   H273      1.0  0.29297  0.86572  0.59457  1.0000
  H   H274      1.0  0.35539  0.94767  0.74237  1.0000
  C   C186      1.0  0.39626  0.96063  0.76460  1.0000
  S   S77       1.0  0.41767  0.96762  0.73259  1.0000
  Fe  Fe38      1.0  0.40365  0.92260  0.63462  1.0000
  H   H275      1.0  0.49357  0.97407  0.68301  1.0000
  C   C187      1.0  0.45490  0.92394  0.70945  1.0000
  H   H276      1.0  0.43654  0.92863  0.71192  1.0000
  S   S78       1.0  0.42331  0.89395  0.62361  1.0000
  H   H277      1.0  0.47334  0.98195  0.70950  1.0000
  H   H278      1.0  0.44806  0.90254  0.72029  1.0000
  H   H279      1.0  0.46818  0.95548  0.62078  1.0000
  C   C188      1.0  0.49071  0.97584  0.70687  1.0000
  H   H280      1.0  0.46331  0.87192  0.63174  1.0000
  C   C189      1.0  0.46197  0.91205  0.62636  1.0000
  C   C190      1.0  0.47611  0.89574  0.63113  1.0000
  C   C191      1.0  0.47868  0.94278  0.62542  1.0000
  H   H281      1.0  0.45717  0.92101  0.68569  1.0000
  H   H282      1.0  0.46074  0.95653  0.75718  1.0000
  C   C192      1.0  0.50301  0.55507  0.62341  1.0000
  H   H283      1.0  0.50382  0.64017  0.67737  1.0000
  S   S79       1.0  0.10121  0.65456  0.92722  1.0000
  S   S80       1.0  0.05417  0.66112  0.98133  1.0000
  C   C193      1.0  0.11115  0.60976  0.86146  1.0000
  H   H284      1.0  0.09468  0.60747  0.84478  1.0000
  H   H285      1.0  0.13500  0.64493  0.81508  1.0000
  H   H286      1.0  0.08162  0.65690  0.78645  1.0000
  H   H287      1.0  0.11062  0.64217  0.99304  1.0000
  H   H288      1.0  0.10753  0.60857  0.94179  1.0000
  H   H289      1.0  0.12104  0.59229  0.80954  1.0000
  H   H290      1.0  0.11756  0.61605  0.01114  1.0000
  C   C194      1.0  0.12008  0.63835  0.01319  1.0000
  H   H291      1.0  0.48990  0.57364  0.86149  1.0000
  C   C195      1.0  0.04359  0.66744  0.01616  1.0000
  H   H292      1.0  0.11279  0.62643  0.87761  1.0000
  H   H293      1.0  0.10222  0.58837  0.87308  1.0000
  H   H294      1.0  0.12904  0.57418  0.83837  1.0000
  H   H295      1.0  0.08209  0.55661  0.92612  1.0000
  C   C196      1.0  0.15072  0.64692  0.83251  1.0000
  C   C197      1.0  0.13702  0.59574  0.82724  1.0000
  C   C198      1.0  0.16137  0.62253  0.87121  1.0000
  C   C199      1.0  0.12063  0.55226  0.92974  1.0000
  C   C200      1.0  0.15052  0.56653  0.93721  1.0000
  C   C201      1.0  0.16514  0.59646  0.94555  1.0000
  C   C202      1.0  0.14993  0.61212  0.94643  1.0000
  C   C203      1.0  0.11983  0.59735  0.94000  1.0000
  C   C204      1.0  0.10530  0.56766  0.93149  1.0000
  H   H296      1.0  0.16248  0.55470  0.93607  1.0000
  H   H297      1.0  0.18841  0.60762  0.95075  1.0000
  N   N20       1.0  0.14009  0.61874  0.84809  1.0000
  S   S81       1.0  0.16910  0.65022  0.95444  1.0000
  S   S82       1.0  0.10168  0.51563  0.91712  1.0000
  H   H298      1.0  0.17246  0.65442  0.82201  1.0000
  H   H299      1.0  0.16385  0.63939  0.88766  1.0000
  H   H300      1.0  0.15415  0.60156  0.88317  1.0000
  H   H301      1.0  0.18360  0.62967  0.86208  1.0000
  H   H302      1.0  0.14415  0.65466  0.01316  1.0000
  N   N21       1.0  0.49720  0.53787  0.87188  1.0000
  H   H303      1.0  0.15845  0.60178  0.81670  1.0000
  H   H304      1.0  0.15316  0.66470  0.84766  1.0000
  H   H305      1.0  0.28324  0.51888  0.94267  1.0000
  H   H306      1.0  0.39940  0.98509  0.02724  1.0000
  H   H307      1.0  0.46980  0.54127  0.83895  1.0000
  H   H308      1.0  0.49184  0.58866  0.99328  1.0000
  C   C205      1.0  0.48566  0.58944  0.97091  1.0000
  S   S83       1.0  0.43090  0.54366  0.98540  1.0000
  C   C206      1.0  0.45678  0.56997  0.96148  1.0000
  C   C207      1.0  0.44887  0.57097  0.93257  1.0000
  H   H309      1.0  0.42656  0.55621  0.92524  1.0000
  C   C208      1.0  0.46969  0.59126  0.91312  1.0000
  H   H310      1.0  0.46320  0.59211  0.89088  1.0000
  C   C209      1.0  0.49885  0.60978  0.92205  1.0000
  H   H311      1.0  0.48596  0.53940  0.91684  1.0000
  H   H312      1.0  0.45823  0.54134  0.87565  1.0000
  C   C210      1.0  0.47805  0.54911  0.86150  1.0000
  H   H313      1.0  0.48783  0.66380  0.90940  1.0000
  C   C211      1.0  0.50382  0.68757  0.90546  1.0000
  H   H314      1.0  0.49317  0.69622  0.89065  1.0000
  C   C212      1.0  0.47801  0.94650  0.92862  1.0000
  H   H315      1.0  0.07439  0.71408  0.01813  1.0000
  S   S84       1.0  0.09790  0.66931  0.84672  1.0000
  Fe  Fe39      1.0  0.15508  0.73736  0.93262  1.0000
  S   S85       1.0  0.10768  0.71836  0.91819  1.0000
  S   S86       1.0  0.18297  0.78721  0.93063  1.0000
  Fe  Fe40      1.0  0.11641  0.68766  0.89142  1.0000
  Fe  Fe41      1.0  0.09680  0.68697  0.95573  1.0000
  C   C213      1.0  0.13541  0.79671  0.88246  1.0000
  C   C214      1.0  0.11537  0.68902  0.81480  1.0000
  C   C215      1.0  0.14200  0.71571  0.81608  1.0000
  N   N22       1.0  0.14293  0.78954  0.85358  1.0000
  H   H316      1.0  0.09748  0.76470  0.84018  1.0000
  C   C216      1.0  0.11739  0.76241  0.84184  1.0000
  H   H317      1.0  0.11162  0.74300  0.85594  1.0000
  H   H318      1.0  0.12946  0.77858  0.89832  1.0000
  H   H319      1.0  0.16295  0.76590  0.87129  1.0000
  C   C217      1.0  0.10216  0.67765  0.78758  1.0000
  C   C218      1.0  0.15455  0.73169  0.79031  1.0000
  H   H320      1.0  0.15270  0.72411  0.83690  1.0000
  C   C219      1.0  0.16834  0.78490  0.85673  1.0000
  S   S87       1.0  0.14350  0.70807  0.97221  1.0000
  H   H321      1.0  0.18764  0.80450  0.86669  1.0000
  H   H322      1.0  0.17532  0.78043  0.83528  1.0000
  H   H323      1.0  0.12194  0.75697  0.81957  1.0000
  H   H324      1.0  0.15441  0.81675  0.89222  1.0000
  C   C220      1.0  0.15070  0.81420  0.83327  1.0000
  H   H325      1.0  0.15653  0.80951  0.81124  1.0000
  H   H326      1.0  0.11647  0.80060  0.88107  1.0000
  H   H327      1.0  0.13201  0.81832  0.83037  1.0000
  H   H328      1.0  0.17489  0.75260  0.79127  1.0000
  S   S88       1.0  0.16409  0.70821  0.90336  1.0000
  Fe  Fe42      1.0  0.14808  0.67700  0.94141  1.0000
  C   C221      1.0  0.26696  0.80643  0.94839  1.0000
  C   C222      1.0  0.23633  0.79072  0.94329  1.0000
  C   C223      1.0  0.22135  0.80593  0.93752  1.0000
  H   H329      1.0  0.27839  0.79453  0.95297  1.0000
  H   H330      1.0  0.22433  0.76689  0.94404  1.0000
  H   H331      1.0  0.28413  0.81985  0.82207  1.0000
  H   H332      1.0  0.25834  0.81977  0.84803  1.0000
  H   H333      1.0  0.31772  0.82511  0.86320  1.0000
  H   H334      1.0  0.29163  0.82510  0.88874  1.0000
  C   C224      1.0  0.27806  0.83427  0.83460  1.0000
  C   C225      1.0  0.31056  0.83935  0.87431  1.0000
  C   C226      1.0  0.23726  0.83687  0.93673  1.0000
  C   C227      1.0  0.28288  0.83740  0.94761  1.0000
  H   H335      1.0  0.47700  0.71239  0.93446  1.0000
  C   C228      1.0  0.48768  0.70286  0.94813  1.0000
  H   H336      1.0  0.47072  0.67963  0.95307  1.0000
  H   H337      1.0  0.16992  0.83501  0.84147  1.0000
  H   H338      1.0  0.22583  0.84885  0.93255  1.0000
  H   H339      1.0  0.27156  0.84587  0.81854  1.0000
  Fe  Fe43      1.0  0.36270  0.94694  0.89327  1.0000
  H   H340      1.0  0.43330  0.97268  0.79320  1.0000
  C   C229      1.0  0.35011  0.94670  0.78935  1.0000
  S   S89       1.0  0.37817  0.91513  0.90281  1.0000
  Fe  Fe44      1.0  0.37325  0.97010  0.95712  1.0000
  S   S90       1.0  0.34302  0.94578  0.84884  1.0000
  S   S91       1.0  0.32154  0.85620  0.95298  1.0000
  Fe  Fe45      1.0  0.35067  0.90504  0.94346  1.0000
  S   S92       1.0  0.38852  0.93886  0.97116  1.0000
  Fe  Fe46      1.0  0.41403  0.95163  0.92908  1.0000
  H   H341      1.0  0.32887  0.85473  0.88895  1.0000
  N   N23       1.0  0.30274  0.85552  0.85314  1.0000
  C   C230      1.0  0.26786  0.85255  0.94182  1.0000
  S   S93       1.0  0.33339  0.93524  0.93275  1.0000
  H   H342      1.0  0.27975  0.87636  0.94154  1.0000
  C   C231      1.0  0.39385  0.96031  0.81798  1.0000
  C   C232      1.0  0.36392  0.95145  0.81672  1.0000
  H   H343      1.0  0.33621  0.86090  0.82237  1.0000
  H   H344      1.0  0.34734  0.89088  0.84771  1.0000
  H   H345      1.0  0.40471  0.96404  0.83895  1.0000
  H   H346      1.0  0.32697  0.93993  0.78820  1.0000
  C   C233      1.0  0.32849  0.87416  0.83452  1.0000
  S   S94       1.0  0.40066  0.98453  0.91623  1.0000
  H   H347      1.0  0.31144  0.88978  0.88425  1.0000
  H   H348      1.0  0.32329  0.88664  0.81826  1.0000
  H   H349      1.0  0.27371  0.86094  0.88246  1.0000
  C   C234      1.0  0.41000  0.96512  0.79200  1.0000
  H   H350      1.0  0.28913  0.88802  0.85396  1.0000
  C   C235      1.0  0.29377  0.87429  0.86912  1.0000
  C   C236      1.0  0.47860  0.90525  0.95190  1.0000
  C   C237      1.0  0.46436  0.92144  0.94628  1.0000
  S   S95       1.0  0.46289  0.96949  0.92353  1.0000
  H   H351      1.0  0.46836  0.88633  0.96618  1.0000
  H   H352      1.0  0.45655  0.99842  0.97204  1.0000
  H   H353      1.0  0.44323  0.91497  0.95615  1.0000
  H   H354      1.0  0.01027  0.62174  0.02085  1.0000
  H   H355      1.0  0.10148  0.67668  0.02188  1.0000
  H   H356      1.0  0.06351  0.62271  0.01828  1.0000
  H   H357      1.0  0.49418  0.71527  0.96920  1.0000
  C   C238      1.0  0.48110  0.50533  0.86990  1.0000
  C   C239      1.0  0.55947  0.13583  0.13211  1.0000
  C   C240      1.0  0.57242  0.11912  0.12391  1.0000
  C   C241      1.0  0.59990  0.12583  0.13522  1.0000
  C   C242      1.0  0.61425  0.14914  0.15511  1.0000
  H   H358      1.0  0.53821  0.13046  0.12327  1.0000
  H   H359      1.0  0.56112  0.10100  0.10864  1.0000
  H   H360      1.0  0.54806  0.10314  0.22414  1.0000
  C   C243      1.0  0.53686  0.11619  0.22121  1.0000
  N   N24       1.0  0.54435  0.13813  0.24486  1.0000
  C   C244      1.0  0.57663  0.15786  0.24608  1.0000
  H   H361      1.0  0.54344  0.12697  0.19947  1.0000
  C   C245      1.0  0.53359  0.12266  0.27300  1.0000
  C   C246      1.0  0.53016  0.15582  0.23906  1.0000
  H   H362      1.0  0.58821  0.14533  0.25011  1.0000
  C   C247      1.0  0.57431  0.15981  0.15111  1.0000
  H   H363      1.0  0.51267  0.10035  0.22034  1.0000
  C   C248      1.0  0.60177  0.16652  0.16255  1.0000
  H   H364      1.0  0.50614  0.14146  0.23556  1.0000
  H   H365      1.0  0.67933  0.18653  0.04159  1.0000
  Fe  Fe47      1.0  0.50885  0.15534  0.15767  1.0000
  S   S96       1.0  0.61663  0.10623  0.12213  1.0000
  Fe  Fe48      1.0  0.70334  0.09392  0.13360  1.0000
  S   S97       1.0  0.69536  0.12483  0.10693  1.0000
  S   S98       1.0  0.70910  0.05864  0.11035  1.0000
  Fe  Fe49      1.0  0.70024  0.12187  0.19133  1.0000
  S   S99       1.0  0.69154  0.15448  0.16816  1.0000
  S   S100      1.0  0.69744  0.12848  0.24000  1.0000
  Fe  Fe50      1.0  0.66072  0.11651  0.14007  1.0000
  S   S101      1.0  0.66637  0.08312  0.16514  1.0000
  S   S102      1.0  0.73832  0.13030  0.16195  1.0000
  C   C249      1.0  0.68970  0.04319  0.07724  1.0000
  C   C250      1.0  0.72297  0.09978  0.26807  1.0000
  C   C251      1.0  0.67300  0.05404  0.06419  1.0000
  H   H366      1.0  0.67054  0.07101  0.07495  1.0000
  H   H367      1.0  0.72229  0.08937  0.24739  1.0000
  Fe  Fe51      1.0  0.72701  0.16022  0.13720  1.0000
  C   C252      1.0  0.71382  0.12065  0.26964  1.0000
  C   C253      1.0  0.69203  0.02060  0.06301  1.0000
  H   H368      1.0  0.73335  0.10966  0.07260  1.0000
  C   C254      1.0  0.75178  0.11325  0.05798  1.0000
  H   H369      1.0  0.76474  0.11206  0.11484  1.0000
  H   H370      1.0  0.76667  0.15707  0.09726  1.0000
  H   H371      1.0  0.67368  0.15958  0.06876  1.0000
  H   H372      1.0  0.74789  0.09097  0.05187  1.0000
  H   H373      1.0  0.63511  0.15405  0.16446  1.0000
  H   H374      1.0  0.74999  0.12397  0.03781  1.0000
  S   S103      1.0  0.97501  0.41016  0.16008  1.0000
  H   H375      1.0  0.78259  0.17226  0.06249  1.0000
  H   H376      1.0  0.80238  0.11471  0.04508  1.0000
  C   C255      1.0  0.80445  0.13602  0.05218  1.0000
  N   N25       1.0  0.78060  0.13120  0.07259  1.0000
  H   H377      1.0  0.82652  0.14947  0.06251  1.0000
  H   H378      1.0  0.80370  0.12810  0.11006  1.0000
  H   H379      1.0  0.77842  0.09327  0.09307  1.0000
  C   C256      1.0  0.78207  0.11555  0.09874  1.0000
  H   H380      1.0  0.80401  0.14783  0.03221  1.0000
  C   C257      1.0  0.78408  0.15992  0.08149  1.0000
  H   H381      1.0  0.80573  0.17423  0.09230  1.0000
  H   H382      1.0  0.50644  0.28210  0.23032  1.0000
  H   H383      1.0  0.51863  0.27776  0.12759  1.0000
  H   H384      1.0  0.53907  0.16931  0.21902  1.0000
  H   H385      1.0  0.53328  0.17107  0.25746  1.0000
  H   H386      1.0  0.62704  0.15574  0.08274  1.0000
  H   H387      1.0  0.58299  0.17470  0.26368  1.0000
  H   H388      1.0  0.58510  0.16983  0.22505  1.0000
  H   H389      1.0  0.62550  0.18741  0.09492  1.0000
  H   H390      1.0  0.61324  0.18499  0.17738  1.0000
  S   S104      1.0  0.55845  0.18100  0.16142  1.0000
  C   C258      1.0  0.63690  0.17992  0.07948  1.0000
  H   H391      1.0  0.63140  0.18319  0.05686  1.0000
  H   H392      1.0  0.67149  0.23715  0.09321  1.0000
  H   H393      1.0  0.66486  0.20037  0.13073  1.0000
  H   H394      1.0  0.66604  0.16801  0.11997  1.0000
  H   H395      1.0  0.69915  0.20329  0.11989  1.0000
  C   C259      1.0  0.67507  0.19175  0.11515  1.0000
  H   H396      1.0  0.70718  0.19456  0.06887  1.0000
  N   N26       1.0  0.66910  0.19572  0.08453  1.0000
  C   C260      1.0  0.68295  0.18362  0.06498  1.0000
  S   S105      1.0  0.75551  0.20485  0.11650  1.0000
  C   C261      1.0  0.79337  0.22576  0.12528  1.0000
  C   C262      1.0  0.80951  0.25547  0.11694  1.0000
  H   H397      1.0  0.79844  0.26554  0.10619  1.0000
  C   C263      1.0  0.68157  0.22748  0.07873  1.0000
  H   H398      1.0  0.79563  0.19016  0.14590  1.0000
  C   C264      1.0  0.80787  0.21295  0.13918  1.0000
  C   C265      1.0  0.84002  0.27227  0.12227  1.0000
  H   H399      1.0  0.85231  0.29511  0.11563  1.0000
  H   H400      1.0  0.85380  0.26633  0.23039  1.0000
  H   H401      1.0  0.70582  0.23994  0.08266  1.0000
  H   H402      1.0  0.67766  0.23139  0.05572  1.0000
  H   H403      1.0  0.62502  0.05645  0.27607  1.0000
  C   C266      1.0  0.87378  0.27225  0.21712  1.0000
  N   N27       1.0  0.89991  0.28085  0.23575  1.0000
  H   H404      1.0  0.87720  0.29039  0.20223  1.0000
  H   H405      1.0  0.92200  0.26934  0.20301  1.0000
  H   H406      1.0  0.93051  0.30678  0.20209  1.0000
  S   S106      1.0  0.89323  0.27864  0.14029  1.0000
  C   C267      1.0  0.83849  0.22949  0.14373  1.0000
  C   C268      1.0  0.85467  0.25918  0.13528  1.0000
  H   H407      1.0  0.84972  0.21922  0.15377  1.0000
  Fe  Fe52      1.0  0.91998  0.32860  0.14040  1.0000
  H   H408      1.0  0.86891  0.25301  0.20292  1.0000
  C   C269      1.0  0.92572  0.28830  0.21706  1.0000
  H   H409      1.0  0.94599  0.29536  0.23031  1.0000
  H   H410      1.0  0.91091  0.32614  0.24013  1.0000
  C   C270      1.0  0.90589  0.30673  0.25384  1.0000
  H   H411      1.0  0.88431  0.50117  0.16698  1.0000
  H   H412      1.0  0.61230  0.49095  0.24774  1.0000
  C   C271      1.0  0.67795  0.00912  0.03589  1.0000
  S   S107      1.0  0.53052  0.46088  0.16798  1.0000
  C   C272      1.0  0.60671  0.47927  0.12697  1.0000
  C   C273      1.0  0.57749  0.46389  0.13728  1.0000
  C   C274      1.0  0.56669  0.47854  0.15444  1.0000
  H   H413      1.0  0.61504  0.46792  0.11369  1.0000
  H   H414      1.0  0.56335  0.44080  0.13198  1.0000
  H   H415      1.0  0.63140  0.49789  0.19724  1.0000
  H   H416      1.0  0.88959  0.23610  0.24210  1.0000
  H   H417      1.0  0.66465  0.49984  0.21014  1.0000
  C   C275      1.0  0.86505  0.50003  0.15565  1.0000
  H   H418      1.0  0.88521  0.46743  0.12829  1.0000
  C   C276      1.0  0.93870  0.50217  0.16524  1.0000
  H   H419      1.0  0.81865  0.47491  0.11910  1.0000
  H   H420      1.0  0.86450  0.46132  0.09550  1.0000
  H   H421      1.0  0.84580  0.44777  0.12982  1.0000
  N   N28       1.0  0.86557  0.49466  0.12396  1.0000
  H   H422      1.0  0.84485  0.48223  0.16616  1.0000
  C   C277      1.0  0.92181  0.47209  0.17211  1.0000
  H   H423      1.0  0.90563  0.46491  0.18942  1.0000
  C   C278      1.0  0.86515  0.46655  0.11917  1.0000
  C   C279      1.0  0.83947  0.49317  0.10998  1.0000
  H   H424      1.0  0.83933  0.48966  0.08597  1.0000
  S   S108      1.0  0.90290  0.41353  0.16334  1.0000
  C   C280      1.0  0.97334  0.37402  0.25922  1.0000
  H   H425      1.0  0.00107  0.36182  0.05805  1.0000
  Fe  Fe53      1.0  0.92628  0.38846  0.15329  1.0000
  C   C281      1.0  0.92578  0.45125  0.15652  1.0000
  Fe  Fe54      1.0  0.96497  0.36947  0.18477  1.0000
  Fe  Fe55      1.0  0.97442  0.38560  0.11916  1.0000
  H   H426      1.0  0.95031  0.44461  0.12252  1.0000
  S   S109      1.0  0.92556  0.36575  0.11113  1.0000
  S   S110      1.0  0.98521  0.36503  0.22664  1.0000
  H   H427      1.0  0.95266  0.39536  0.23766  1.0000
  C   C282      1.0  0.94713  0.46059  0.13460  1.0000
  H   H428      1.0  0.97977  0.49761  0.11011  1.0000
  S   S111      1.0  0.96886  0.34667  0.14487  1.0000
  C   C283      1.0  0.95754  0.38893  0.25841  1.0000
  C   C284      1.0  0.96373  0.49056  0.12755  1.0000
  S   S112      1.0  0.91630  0.34986  0.18146  1.0000
  H   H429      1.0  0.50936  0.10713  0.27220  1.0000
  H   H430      1.0  0.88676  0.30216  0.26793  1.0000
  C   C285      1.0  0.89427  0.25604  0.25502  1.0000
  H   H431      1.0  0.87500  0.24991  0.26952  1.0000
  H   H432      1.0  0.92524  0.31353  0.26842  1.0000
  H   H433      1.0  0.64536  0.49276  0.26124  1.0000
  H   H434      1.0  0.70485  0.01200  0.07295  1.0000
  C   C286      1.0  0.65954  0.04310  0.03692  1.0000
  H   H435      1.0  0.91360  0.26177  0.26932  1.0000
  C   C287      1.0  0.58525  0.14529  0.45260  1.0000
  C   C288      1.0  0.60904  0.14377  0.46452  1.0000
  C   C289      1.0  0.59527  0.13098  0.40539  1.0000
  C   C290      1.0  0.57829  0.13880  0.42302  1.0000
  H   H436      1.0  0.56005  0.14011  0.41368  1.0000
  H   H437      1.0  0.61448  0.14881  0.48741  1.0000
  Fe  Fe56      1.0  0.52335  0.15230  0.45703  1.0000
  H   H438      1.0  0.59000  0.12621  0.38244  1.0000
  S   S113      1.0  0.56467  0.15523  0.47536  1.0000
  H   H439      1.0  0.55721  0.10277  0.50624  1.0000
  H   H440      1.0  0.51507  0.09743  0.47784  1.0000
  H   H441      1.0  0.53780  0.13839  0.29130  1.0000
  C   C291      1.0  0.54180  0.08176  0.51747  1.0000
  N   N29       1.0  0.51199  0.07794  0.51983  1.0000
  C   C292      1.0  0.94853  0.39618  0.28457  1.0000
  Fe  Fe57      1.0  0.94096  0.37884  0.38831  1.0000
  H   H442      1.0  0.54154  0.06354  0.50463  1.0000
  H   H443      1.0  0.52826  0.12436  0.52557  1.0000
  C   C293      1.0  0.97665  0.47430  0.35521  1.0000
  C   C294      1.0  0.96992  0.37254  0.31251  1.0000
  H   H444      1.0  0.73803  0.07469  0.29268  1.0000
  C   C295      1.0  0.61896  0.12929  0.41737  1.0000
  C   C296      1.0  0.62577  0.13563  0.44698  1.0000
  H   H445      1.0  0.60559  0.02852  0.35243  1.0000
  H   H446      1.0  0.60306  0.02435  0.29789  1.0000
  H   H447      1.0  0.64813  0.03322  0.32463  1.0000
  Fe  Fe58      1.0  0.67529  0.11380  0.41648  1.0000
  S   S114      1.0  0.67523  0.07184  0.40792  1.0000
  S   S115      1.0  0.64014  0.11996  0.39472  1.0000
  Fe  Fe59      1.0  0.73410  0.14089  0.44835  1.0000
  S   S116      1.0  0.73863  0.10057  0.44208  1.0000
  Fe  Fe60      1.0  0.72267  0.10061  0.39611  1.0000
  Fe  Fe61      1.0  0.69042  0.07507  0.45447  1.0000
  S   S117      1.0  0.66177  0.03318  0.48041  1.0000
  S   S118      1.0  0.72185  0.14257  0.40190  1.0000
  S   S119      1.0  0.68696  0.11536  0.46377  1.0000
  C   C297      1.0  0.73114  0.10369  0.32098  1.0000
  C   C298      1.0  0.72315  0.12536  0.32206  1.0000
  H   H448      1.0  0.72303  0.13535  0.34259  1.0000
  H   H449      1.0  0.64393  0.13433  0.45637  1.0000
  C   C299      1.0  0.66950  0.01906  0.51213  1.0000
  S   S120      1.0  0.73796  0.09011  0.35358  1.0000
  H   H450      1.0  0.66022  0.10779  0.33783  1.0000
  C   C300      1.0  0.71477  0.13392  0.29657  1.0000
  C   C301      1.0  0.64381  0.09567  0.32021  1.0000
  H   H451      1.0  0.62625  0.10153  0.32232  1.0000
  H   H452      1.0  0.71490  0.05306  0.51665  1.0000
  N   N30       1.0  0.63175  0.06352  0.32240  1.0000
  C   C302      1.0  0.65622  0.05721  0.32267  1.0000
  H   H453      1.0  0.67150  0.06839  0.34133  1.0000
  H   H454      1.0  0.66950  0.06501  0.30230  1.0000
  H   H455      1.0  0.62845  0.06387  0.36913  1.0000
  C   C303      1.0  0.61251  0.04866  0.29697  1.0000
  H   H456      1.0  0.59586  0.05691  0.35024  1.0000
  H   H457      1.0  0.70809  0.15034  0.29790  1.0000
  C   C304      1.0  0.61457  0.05260  0.34967  1.0000
  C   C305      1.0  0.69708  0.03304  0.52583  1.0000
  H   H458      1.0  0.65501  0.10430  0.29887  1.0000
  H   H459      1.0  0.59391  0.05310  0.29593  1.0000
  C   C306      1.0  0.73176  0.09143  0.29375  1.0000
  S   S121      1.0  0.89509  0.35026  0.40544  1.0000
  H   H460      1.0  0.54882  0.30360  0.48538  1.0000
  H   H461      1.0  0.51202  0.29180  0.44771  1.0000
  H   H462      1.0  0.53856  0.31257  0.42023  1.0000
  C   C307      1.0  0.52532  0.31425  0.43834  1.0000
  H   H463      1.0  0.51208  0.31811  0.49520  1.0000
  H   H464      1.0  0.57710  0.34115  0.49203  1.0000
  C   C308      1.0  0.56268  0.32547  0.47482  1.0000
  H   H465      1.0  0.57702  0.32284  0.45859  1.0000
  S   S122      1.0  0.52062  0.18911  0.43544  1.0000
  H   H466      1.0  0.67038  0.19328  0.41457  1.0000
  H   H467      1.0  0.69055  0.23755  0.44673  1.0000
  H   H468      1.0  0.68379  0.19061  0.46601  1.0000
  H   H469      1.0  0.69386  0.17992  0.40213  1.0000
  H   H470      1.0  0.72858  0.25573  0.45780  1.0000
  H   H471      1.0  0.71918  0.25825  0.42061  1.0000
  H   H472      1.0  0.72209  0.20833  0.47651  1.0000
  H   H473      1.0  0.70687  0.17678  0.45311  1.0000
  C   C309      1.0  0.70634  0.19725  0.45814  1.0000
  H   H474      1.0  0.76098  0.23693  0.44067  1.0000
  H   H475      1.0  0.74662  0.20527  0.41750  1.0000
  H   H476      1.0  0.75162  0.23934  0.40338  1.0000
  H   H477      1.0  0.69882  0.21399  0.38821  1.0000
  S   S123      1.0  0.76400  0.18427  0.47132  1.0000
  N   N31       1.0  0.71441  0.21642  0.43221  1.0000
  C   C310      1.0  0.74467  0.22493  0.42296  1.0000
  C   C311      1.0  0.69349  0.20030  0.40822  1.0000
  C   C312      1.0  0.71310  0.24319  0.43966  1.0000
  H   H478      1.0  0.80536  0.24529  0.48313  1.0000
  C   C313      1.0  0.79861  0.20883  0.45573  1.0000
  C   C314      1.0  0.81447  0.23807  0.46590  1.0000
  H   H479      1.0  0.99014  0.32156  0.50398  1.0000
  H   H480      1.0  0.93679  0.40822  0.28376  1.0000
  H   H481      1.0  0.95895  0.32646  0.50155  1.0000
  C   C315      1.0  0.95466  0.38804  0.31170  1.0000
  H   H482      1.0  0.79860  0.17720  0.42554  1.0000
  C   C316      1.0  0.81060  0.19969  0.43352  1.0000
  H   H483      1.0  0.85424  0.28053  0.46203  1.0000
  C   C317      1.0  0.84217  0.25807  0.45400  1.0000
  S   S124      1.0  0.89016  0.27236  0.41839  1.0000
  C   C318      1.0  0.83859  0.21947  0.42213  1.0000
  C   C319      1.0  0.85446  0.24871  0.43226  1.0000
  H   H484      1.0  0.84798  0.21205  0.40536  1.0000
  N   N32       1.0  0.95125  0.28450  0.48573  1.0000
  C   C320      1.0  0.91886  0.27014  0.48875  1.0000
  Fe  Fe62      1.0  0.91184  0.32188  0.42368  1.0000
  H   H485      1.0  0.91081  0.28558  0.48350  1.0000
  C   C321      1.0  0.95971  0.29493  0.45542  1.0000
  H   H486      1.0  0.95264  0.31094  0.44964  1.0000
  H   H487      1.0  0.94905  0.27649  0.43932  1.0000
  H   H488      1.0  0.90728  0.25110  0.47342  1.0000
  C   C322      1.0  0.96079  0.26306  0.49255  1.0000
  H   H489      1.0  0.91153  0.26197  0.51132  1.0000
  C   C323      1.0  0.96568  0.30987  0.50607  1.0000
  H   H490      1.0  0.95031  0.24369  0.47752  1.0000
  H   H491      1.0  0.98401  0.30630  0.45226  1.0000
  S   S125      1.0  0.95774  0.40771  0.42854  1.0000
  Fe  Fe63      1.0  0.96918  0.37436  0.44542  1.0000
  H   H492      1.0  0.95476  0.25472  0.51529  1.0000
  H   H493      1.0  0.98512  0.27321  0.49040  1.0000
  H   H494      1.0  0.97491  0.36634  0.33332  1.0000
  S   S126      1.0  0.94403  0.39899  0.34388  1.0000
  N   N33       1.0  0.54423  0.33590  0.46079  1.0000
  C   C324      1.0  0.52563  0.33903  0.48318  1.0000
  H   H495      1.0  0.50951  0.32011  0.42862  1.0000
  H   H496      1.0  0.53916  0.35638  0.49957  1.0000
  H   H497      1.0  0.55010  0.37333  0.43627  1.0000
  C   C325      1.0  0.62041  0.48191  0.42512  1.0000
  S   S127      1.0  0.54488  0.41532  0.48207  1.0000
  C   C326      1.0  0.59276  0.46280  0.41285  1.0000
  C   C327      1.0  0.56944  0.44279  0.43041  1.0000
  C   C328      1.0  0.57380  0.44132  0.46031  1.0000
  C   C329      1.0  0.60148  0.46038  0.47271  1.0000
  H   H498      1.0  0.58933  0.46349  0.38960  1.0000
  H   H499      1.0  0.54820  0.42826  0.42062  1.0000
  H   H500      1.0  0.60494  0.45920  0.49585  1.0000
  C   C330      1.0  0.62477  0.48081  0.45514  1.0000
  H   H501      1.0  0.64624  0.49517  0.46462  1.0000
  C   C331      1.0  0.56334  0.36481  0.44696  1.0000
  H   H502      1.0  0.57783  0.36349  0.42999  1.0000
  H   H503      1.0  0.51030  0.34541  0.47324  1.0000
  H   H504      1.0  0.99736  0.49537  0.35089  1.0000
  Fe  Fe64      1.0  0.91284  0.37695  0.44651  1.0000
  H   H505      1.0  0.57765  0.38177  0.46335  1.0000
  H   H506      1.0  0.97180  0.46019  0.33539  1.0000
  H   H507      1.0  0.80174  0.47359  0.45102  1.0000
  H   H508      1.0  0.83302  0.48340  0.47401  1.0000
  C   C332      1.0  0.81281  0.48517  0.47164  1.0000
  H   H509      1.0  0.92779  0.49716  0.34093  1.0000
  H   H510      1.0  0.79797  0.47298  0.49016  1.0000
  H   H511      1.0  0.93141  0.49533  0.44855  1.0000
  H   H512      1.0  0.85849  0.46054  0.50819  1.0000
  C   C333      1.0  0.91430  0.47690  0.46038  1.0000
  C   C334      1.0  0.88938  0.42496  0.47392  1.0000
  C   C335      1.0  0.87321  0.45739  0.49402  1.0000
  C   C336      1.0  0.87033  0.42950  0.49170  1.0000
  C   C337      1.0  0.91148  0.44869  0.45814  1.0000
  C   C338      1.0  0.89510  0.48116  0.47845  1.0000
  H   H513      1.0  0.85336  0.41132  0.50400  1.0000
  H   H514      1.0  0.90684  0.45433  0.37611  1.0000
  S   S128      1.0  0.88419  0.38910  0.47257  1.0000
  C   C339      1.0  0.92550  0.45112  0.36971  1.0000
  H   H515      1.0  0.91806  0.43536  0.35098  1.0000
  C   C340      1.0  0.94564  0.49211  0.33631  1.0000
  H   H516      1.0  0.93872  0.47683  0.31722  1.0000
  C   C341      1.0  0.97950  0.36582  0.28632  1.0000
  S   S129      1.0  0.95663  0.34848  0.40319  1.0000
  H   H517      1.0  0.99172  0.35426  0.28709  1.0000
  C   C342      1.0  0.96027  0.50001  0.38712  1.0000
  H   H518      1.0  0.92985  0.44015  0.38824  1.0000
  S   S130      1.0  0.92541  0.34578  0.46664  1.0000
  H   H519      1.0  0.92638  0.44530  0.44455  1.0000
  C   C343      1.0  0.99860  0.38683  0.52451  1.0000
  N   N34       1.0  0.95201  0.47938  0.36211  1.0000
  H   H520      1.0  0.98089  0.46289  0.37341  1.0000
  H   H521      1.0  0.97706  0.38189  0.51695  1.0000
  H   H522      1.0  0.96498  0.49096  0.40701  1.0000
  H   H523      1.0  0.54426  0.10957  0.27843  1.0000
  H   H524      1.0  0.52215  0.10425  0.55899  1.0000
  H   H525      1.0  0.66287  0.02310  0.61241  1.0000
  H   H526      1.0  0.98889  0.38915  0.57001  1.0000
  C   C344      1.0  0.51359  0.10294  0.53649  1.0000
  H   H527      1.0  0.50572  0.46576  0.59368  1.0000
  H   H528      1.0  0.72294  0.03199  0.56206  1.0000
  H   H529      1.0  0.55123  0.08237  0.53939  1.0000
  H   H530      1.0  0.62262  0.01464  0.64704  1.0000
  H   H531      1.0  0.59655  0.02558  0.63739  1.0000
  H   H532      1.0  0.60052  0.04931  0.58936  1.0000
  H   H533      1.0  0.66590  0.04109  0.57824  1.0000
  C   C345      1.0  0.62000  0.03150  0.63485  1.0000
  C   C346      1.0  0.70159  0.02100  0.55151  1.0000
  C   C347      1.0  0.62384  0.05453  0.58819  1.0000
  N   N35       1.0  0.62794  0.03222  0.60373  1.0000
  H   H534      1.0  0.63795  0.07692  0.59770  1.0000
  H   H535      1.0  0.63403  0.05313  0.64580  1.0000
  H   H536      1.0  0.62976  0.05557  0.56463  1.0000
  H   H537      1.0  0.67418  0.06155  0.61180  1.0000
  C   C348      1.0  0.65907  0.03985  0.60148  1.0000
  H   H538      1.0  0.96004  0.30299  0.52923  1.0000
  H   H539      1.0  0.50468  0.05116  0.00489  1.0000
  H   H540      1.0  0.51713  0.07620  0.97457  1.0000
  H   H541      1.0  0.64723  0.05218  0.02681  1.0000
  C   C349      1.0  0.66191  0.02064  0.02260  1.0000
  H   H542      1.0  0.00006  0.40462  0.95327  1.0000
  H   H543      1.0  0.98277  0.44033  0.96469  1.0000
  S   S131      1.0  0.64526  0.00906  0.98775  1.0000
  H   H544      1.0  0.50800  0.03854  0.96915  1.0000
  H   H545      1.0  0.00348  0.45064  0.99816  1.0000
  H   H546      1.0  0.63941  0.67076  0.06434  1.0000
  C   C350      1.0  0.65385  0.51310  0.20604  1.0000
  H   H547      1.0  0.61056  0.52001  0.03442  1.0000
  H   H548      1.0  0.58753  0.52289  0.06196  1.0000
  H   H549      1.0  0.66885  0.56016  0.06580  1.0000
  Fe  Fe65      1.0  0.70179  0.63822  0.12043  1.0000
  S   S132      1.0  0.71970  0.61072  0.10154  1.0000
  Fe  Fe66      1.0  0.70650  0.62025  0.18403  1.0000
  S   S133      1.0  0.72419  0.59117  0.16953  1.0000
  S   S134      1.0  0.68979  0.62021  0.22974  1.0000
  Fe  Fe67      1.0  0.75223  0.62827  0.13891  1.0000
  Fe  Fe68      1.0  0.69017  0.57627  0.13392  1.0000
  S   S135      1.0  0.67054  0.60270  0.15049  1.0000
  C   C351      1.0  0.70945  0.62106  0.26136  1.0000
  C   C352      1.0  0.67350  0.65969  0.05864  1.0000
  H   H550      1.0  0.62798  0.54626  0.15709  1.0000
  N   N36       1.0  0.62974  0.56208  0.05623  1.0000
  S   S136      1.0  0.73642  0.65860  0.15570  1.0000
  H   H551      1.0  0.74911  0.62992  0.23889  1.0000
  C   C353      1.0  0.73814  0.62588  0.25981  1.0000
  S   S137      1.0  0.68011  0.66063  0.09663  1.0000
  S   S138      1.0  0.66162  0.52833  0.12072  1.0000
  C   C354      1.0  0.62876  0.57380  0.08537  1.0000
  H   H552      1.0  0.60607  0.56849  0.09132  1.0000
  C   C355      1.0  0.68943  0.65336  0.03826  1.0000
  H   H553      1.0  0.70649  0.64906  0.04566  1.0000
  H   H554      1.0  0.69616  0.56570  0.22792  1.0000
  H   H555      1.0  0.63643  0.56432  0.10255  1.0000
  H   H556      1.0  0.64317  0.59819  0.08644  1.0000
  H   H557      1.0  0.65035  0.56193  0.20831  1.0000
  C   C356      1.0  0.66036  0.56985  0.04954  1.0000
  N   N37       1.0  0.65259  0.52829  0.23284  1.0000
  H   H558      1.0  0.57679  0.51977  0.17452  1.0000
  C   C357      1.0  0.61417  0.52353  0.15119  1.0000
  C   C358      1.0  0.63847  0.54587  0.22609  1.0000
  H   H559      1.0  0.61523  0.53167  0.21887  1.0000
  H   H560      1.0  0.61845  0.51929  0.07243  1.0000
  C   C359      1.0  0.61068  0.52965  0.05616  1.0000
  C   C360      1.0  0.58509  0.50836  0.16126  1.0000
  H   H561      1.0  0.66656  0.52913  0.18845  1.0000
  C   C361      1.0  0.61927  0.57508  0.03402  1.0000
  H   H562      1.0  0.59616  0.56948  0.03828  1.0000
  H   H563      1.0  0.67546  0.59413  0.04997  1.0000
  C   C362      1.0  0.65191  0.66598  0.04864  1.0000
  H   H564      1.0  0.63857  0.55896  0.24541  1.0000
  H   H565      1.0  0.63369  0.51711  0.27582  1.0000
  C   C363      1.0  0.63521  0.50627  0.25540  1.0000
  H   H566      1.0  0.63301  0.59957  0.03395  1.0000
  H   H567      1.0  0.83904  0.51401  0.11351  1.0000
  H   H568      1.0  0.89023  0.62890  0.06048  1.0000
  S   S139      1.0  0.80173  0.64800  0.13459  1.0000
  S   S140      1.0  0.86794  0.57452  0.13552  1.0000
  C   C364      1.0  0.81903  0.62660  0.13735  1.0000
  C   C365      1.0  0.84921  0.64069  0.14408  1.0000
  C   C366      1.0  0.86418  0.62472  0.14479  1.0000
  C   C367      1.0  0.84924  0.59467  0.13786  1.0000
  C   C368      1.0  0.81899  0.58049  0.13140  1.0000
  C   C369      1.0  0.80384  0.59632  0.13142  1.0000
  H   H569      1.0  0.80723  0.55723  0.12610  1.0000
  H   H570      1.0  0.78062  0.58531  0.12610  1.0000
  H   H571      1.0  0.86102  0.66407  0.14886  1.0000
  H   H572      1.0  0.88736  0.63583  0.15015  1.0000
  H   H573      1.0  0.88614  0.64898  0.09017  1.0000
  C   C370      1.0  0.90161  0.64291  0.07985  1.0000
  H   H574      1.0  0.90518  0.62896  0.09574  1.0000
  N   N38       1.0  0.92971  0.66936  0.07176  1.0000
  S   S141      1.0  0.99867  0.62400  0.16562  1.0000
  H   H575      1.0  0.99333  0.62834  0.06929  1.0000
  H   H576      1.0  0.89320  0.54040  0.11355  1.0000
  H   H577      1.0  0.93901  0.64777  0.03658  1.0000
  H   H578      1.0  0.93588  0.51828  0.17744  1.0000
  H   H579      1.0  0.86569  0.52128  0.15995  1.0000
  H   H580      1.0  0.91281  0.52152  0.12166  1.0000
  H   H581      1.0  0.95070  0.57386  0.25020  1.0000
  Fe  Fe69      1.0  0.91612  0.59544  0.14814  1.0000
  Fe  Fe70      1.0  0.96461  0.57968  0.14836  1.0000
  S   S142      1.0  0.97852  0.54822  0.13124  1.0000
  Fe  Fe71      1.0  0.96268  0.61921  0.19594  1.0000
  S   S143      1.0  0.97094  0.63654  0.24263  1.0000
  Fe  Fe72      1.0  0.97984  0.64178  0.13297  1.0000
  S   S144      1.0  0.92994  0.57309  0.18123  1.0000
  S   S145      1.0  0.94788  0.59783  0.11392  1.0000
  S   S146      1.0  0.94658  0.64119  0.16469  1.0000
  H   H582      1.0  0.95349  0.64591  0.07151  1.0000
  C   C371      1.0  0.95923  0.51132  0.14253  1.0000
  C   C372      1.0  0.94902  0.66025  0.05711  1.0000
  C   C373      1.0  0.89262  0.51904  0.11101  1.0000
  H   H583      1.0  0.97084  0.67963  0.05155  1.0000
  H   H584      1.0  0.89428  0.51544  0.08728  1.0000
  H   H585      1.0  0.94982  0.67349  0.11363  1.0000
  C   C374      1.0  0.95850  0.58497  0.27102  1.0000
  H   H586      1.0  0.68261  0.55909  0.26459  1.0000
  H   H587      1.0  0.67836  0.78419  0.04816  1.0000
  C   C375      1.0  0.97028  0.61548  0.27293  1.0000
  H   H588      1.0  0.64135  0.71913  0.03330  1.0000
  C   C376      1.0  0.62514  0.50918  0.13395  1.0000
  C   C377      1.0  0.68931  0.77234  0.03919  1.0000
  H   H589      1.0  0.68781  0.75641  0.05610  1.0000
  H   H590      1.0  0.91248  0.67552  0.03150  1.0000
  C   C378      1.0  0.92378  0.68782  0.05176  1.0000
  H   H591      1.0  0.94459  0.70790  0.04517  1.0000
  H   H592      1.0  0.90940  0.69521  0.06229  1.0000
  H   H593      1.0  0.93038  0.69334  0.11042  1.0000
  C   C379      1.0  0.94447  0.68653  0.09838  1.0000
  H   H594      1.0  0.96578  0.70670  0.09316  1.0000
  H   H595      1.0  0.56631  0.97856  0.06099  1.0000
  H   H596      1.0  0.56724  0.93589  0.03869  1.0000
  H   H597      1.0  0.51970  0.93556  0.04280  1.0000
  H   H598      1.0  0.71308  0.78879  0.03619  1.0000
  C   C380      1.0  0.68280  0.54797  0.24386  1.0000
  H   H599      1.0  0.69460  0.53575  0.24826  1.0000
  C   C381      1.0  0.56960  0.98822  0.03876  1.0000
  H   H600      1.0  0.59383  0.00245  0.03543  1.0000
  H   H601      1.0  0.55983  0.00276  0.03848  1.0000
  H   H602      1.0  0.55892  0.52048  0.44164  1.0000
  H   H603      1.0  0.57788  0.57347  0.45374  1.0000
  C   C382      1.0  0.59424  0.57249  0.46843  1.0000
  H   H604      1.0  0.58461  0.56699  0.49078  1.0000
  H   H605      1.0  0.59936  0.55918  0.41232  1.0000
  H   H606      1.0  0.63496  0.58195  0.42841  1.0000
  H   H607      1.0  0.61388  0.59514  0.46955  1.0000
  C   C383      1.0  0.61536  0.55932  0.42833  1.0000
  H   H608      1.0  0.62256  0.54394  0.41991  1.0000
  C   C384      1.0  0.57595  0.52112  0.45658  1.0000
  Fe  Fe73      1.0  0.68705  0.54917  0.41736  1.0000
  S   S147      1.0  0.68716  0.58835  0.39792  1.0000
  Fe  Fe74      1.0  0.73449  0.60440  0.38756  1.0000
  S   S148      1.0  0.75855  0.62218  0.34477  1.0000
  Fe  Fe75      1.0  0.70248  0.60883  0.44246  1.0000
  S   S149      1.0  0.69915  0.56841  0.46259  1.0000
  C   C385      1.0  0.73900  0.62100  0.31287  1.0000
  S   S150      1.0  0.75031  0.62917  0.43013  1.0000
  C   C386      1.0  0.71008  0.61559  0.31428  1.0000
  N   N39       1.0  0.60238  0.55085  0.45783  1.0000
  C   C387      1.0  0.67411  0.63563  0.49998  1.0000
  H   H609      1.0  0.69920  0.61183  0.33519  1.0000
  S   S151      1.0  0.68173  0.63388  0.46249  1.0000
  C   C388      1.0  0.69547  0.61586  0.28865  1.0000
  C   C389      1.0  0.75295  0.62612  0.28555  1.0000
  H   H610      1.0  0.67326  0.61212  0.28998  1.0000
  C   C390      1.0  0.66186  0.65296  0.50845  1.0000
  C   C391      1.0  0.62421  0.55056  0.47797  1.0000
  H   H611      1.0  0.61526  0.54426  0.50049  1.0000
  H   H612      1.0  0.63111  0.53475  0.47048  1.0000
  H   H613      1.0  0.64439  0.57265  0.47936  1.0000
  H   H614      1.0  0.74684  0.66002  0.48297  1.0000
  H   H615      1.0  0.65705  0.66476  0.49206  1.0000
  H   H616      1.0  0.58150  0.50444  0.44841  1.0000
  Fe  Fe76      1.0  0.74616  0.58731  0.44735  1.0000
  S   S152      1.0  0.73360  0.56378  0.40418  1.0000
  H   H617      1.0  0.99014  0.65332  0.30159  1.0000
  C   C392      1.0  0.75697  0.67165  0.50387  1.0000
  H   H618      1.0  0.56577  0.51376  0.47853  1.0000
  H   H619      1.0  0.64903  0.89805  0.51044  1.0000
  H   H620      1.0  0.94238  0.50477  0.39258  1.0000
  H   H621      1.0  0.82011  0.52005  0.51821  1.0000
  S   S153      1.0  0.64893  0.50602  0.40188  1.0000
  H   H622      1.0  0.84146  0.55438  0.49940  1.0000
  H   H623      1.0  0.86111  0.53107  0.44893  1.0000
  H   H624      1.0  0.77536  0.63043  0.28430  1.0000
  C   C393      1.0  0.79298  0.51786  0.46783  1.0000
  S   S154      1.0  0.78122  0.58927  0.47761  1.0000
  S   S155      1.0  0.90697  0.63262  0.42100  1.0000
  C   C394      1.0  0.81626  0.60201  0.46183  1.0000
  C   C395      1.0  0.83909  0.60324  0.47884  1.0000
  C   C396      1.0  0.86682  0.61194  0.46640  1.0000
  C   C397      1.0  0.87209  0.62025  0.43702  1.0000
  C   C398      1.0  0.84944  0.61971  0.42024  1.0000
  C   C399      1.0  0.82152  0.61028  0.43247  1.0000
  H   H625      1.0  0.80413  0.60958  0.41917  1.0000
  H   H626      1.0  0.88434  0.61287  0.47965  1.0000
  H   H627      1.0  0.83531  0.59744  0.50171  1.0000
  H   H628      1.0  0.85336  0.62643  0.39762  1.0000
  H   H629      1.0  0.78150  0.50747  0.44696  1.0000
  H   H630      1.0  0.84635  0.55517  0.44565  1.0000
  C   C400      1.0  0.84030  0.53161  0.44672  1.0000
  H   H631      1.0  0.83022  0.52125  0.42537  1.0000
  H   H632      1.0  0.89788  0.65209  0.36497  1.0000
  N   N40       1.0  0.90578  0.63306  0.32673  1.0000
  H   H633      1.0  0.79784  0.54111  0.46758  1.0000
  C   C401      1.0  0.90972  0.65886  0.34371  1.0000
  H   H634      1.0  0.87036  0.59329  0.30823  1.0000
  H   H635      1.0  0.86446  0.62422  0.30819  1.0000
  C   C402      1.0  0.87408  0.61304  0.32094  1.0000
  H   H636      1.0  0.86138  0.60520  0.34168  1.0000
  N   N41       1.0  0.82018  0.51633  0.47134  1.0000
  H   H637      1.0  0.91324  0.65471  0.28510  1.0000
  H   H638      1.0  0.90507  0.60820  0.36430  1.0000
  H   H639      1.0  0.79103  0.65308  0.47755  1.0000
  H   H640      1.0  0.90123  0.67143  0.33161  1.0000
  H   H641      1.0  0.93338  0.67424  0.34884  1.0000
  C   C403      1.0  0.83478  0.53067  0.49915  1.0000
  H   H642      1.0  0.85517  0.52954  0.50270  1.0000
  C   C404      1.0  0.79896  0.66458  0.49891  1.0000
  H   H643      1.0  0.81231  0.65576  0.50889  1.0000
  H   H644      1.0  0.73863  0.66918  0.51809  1.0000
  H   H645      1.0  0.96541  0.51315  0.32960  1.0000
  C   C405      1.0  0.92176  0.64306  0.29868  1.0000
  C   C406      1.0  0.91752  0.61727  0.34364  1.0000
  H   H646      1.0  0.91639  0.59854  0.33096  1.0000
  H   H647      1.0  0.94096  0.63218  0.34987  1.0000
  S   S156      1.0  0.89705  0.51548  0.48262  1.0000
  Fe  Fe77      1.0  0.98859  0.61189  0.45714  1.0000
  H   H648      1.0  0.98630  0.62464  0.34598  1.0000
  H   H649      1.0  0.94727  0.54517  0.29461  1.0000
  C   C407      1.0  0.98043  0.62965  0.30006  1.0000
  Fe  Fe78      1.0  0.93346  0.61088  0.43314  1.0000
  Fe  Fe79      1.0  0.92958  0.55542  0.45758  1.0000
  Fe  Fe80      1.0  0.96043  0.57980  0.39951  1.0000
  S   S157      1.0  0.94479  0.60028  0.47713  1.0000
  S   S158      1.0  0.91488  0.56518  0.41543  1.0000
  C   C408      1.0  0.96601  0.58292  0.32347  1.0000
  C   C409      1.0  0.97826  0.61345  0.32524  1.0000
  S   S159      1.0  0.97372  0.56590  0.44052  1.0000
  S   S160      1.0  0.97864  0.62660  0.41427  1.0000
  S   S161      1.0  0.96232  0.56193  0.35489  1.0000
  C   C410      1.0  0.95652  0.56877  0.29622  1.0000
  H   H650      1.0  0.98021  0.52161  0.38216  1.0000
  H   H651      1.0  0.91975  0.62424  0.28545  1.0000
  H   H652      1.0  0.94571  0.65850  0.30218  1.0000
  C   C411      1.0  0.65624  0.88411  0.52202  1.0000
  H   H653      1.0  0.77096  0.69549  0.49881  1.0000
  H   H654      1.0  0.81391  0.68839  0.49433  1.0000
  C   C412      1.0  0.64669  0.99295  0.52416  1.0000
  H   H655      1.0  0.62536  0.98186  0.51354  1.0000
  H   H656      1.0  0.64012  0.86065  0.51669  1.0000
  H   H657      1.0  0.67794  0.88926  0.51276  1.0000
  C   C413      1.0  0.75491  0.62782  0.52302  1.0000
  H   H658      1.0  0.74506  0.61586  0.50219  1.0000
  H   H659      1.0  0.68892  0.60649  0.51507  1.0000
  C   C414      1.0  0.68008  0.62039  0.52138  1.0000
  N   N42       1.0  0.77416  0.65975  0.51798  1.0000
  H   H660      1.0  0.77724  0.50661  0.48603  1.0000
  S   S162      1.0  0.58834  0.63531  0.63795  1.0000
  S   S163      1.0  0.52444  0.63537  0.59316  1.0000
  H   H661      1.0  0.54145  0.59186  0.60464  1.0000
  Fe  Fe81      1.0  0.57023  0.65905  0.61257  1.0000
  S   S164      1.0  0.58641  0.65933  0.71869  1.0000
  H   H662      1.0  0.52576  0.61176  0.74095  1.0000
  Fe  Fe82      1.0  0.63081  0.66536  0.61462  1.0000
  C   C415      1.0  0.51828  0.58236  0.60936  1.0000
  H   H663      1.0  0.51477  0.54406  0.63019  1.0000
  H   H664      1.0  0.54114  0.61031  0.69136  1.0000
  C   C416      1.0  0.51783  0.59803  0.68399  1.0000
  H   H665      1.0  0.51103  0.57422  0.68334  1.0000
  H   H666      1.0  0.52950  0.64999  0.70686  1.0000
  H   H667      1.0  0.65101  0.84659  0.56558  1.0000
  C   C417      1.0  0.65106  0.98117  0.54994  1.0000
  H   H668      1.0  0.63609  0.85564  0.63617  1.0000
  H   H669      1.0  0.67980  0.61186  0.56760  1.0000
  C   C418      1.0  0.67476  0.62335  0.55108  1.0000
  C   C419      1.0  0.66281  0.64101  0.55961  1.0000
  S   S165      1.0  0.65753  0.64499  0.59732  1.0000
  C   C420      1.0  0.65609  0.65555  0.53808  1.0000
  H   H670      1.0  0.73656  0.62335  0.53820  1.0000
  S   S166      1.0  0.63620  0.91576  0.73263  1.0000
  H   H671      1.0  0.51161  0.99445  0.71559  1.0000
  H   H672      1.0  0.64697  0.66925  0.54429  1.0000
  H   H673      1.0  0.51755  0.60526  0.66134  1.0000
  H   H674      1.0  0.58507  0.99592  0.59261  1.0000
  S   S167      1.0  0.68411  0.98178  0.59722  1.0000
  H   H675      1.0  0.76741  0.61784  0.53249  1.0000
  H   H676      1.0  0.99843  0.63187  0.52930  1.0000
  Fe  Fe83      1.0  0.60191  0.67122  0.67158  1.0000
  C   C421      1.0  0.60578  0.67678  0.75110  1.0000
  H   H677      1.0  0.65913  0.75223  0.71673  1.0000
  H   H678      1.0  0.60245  0.73178  0.74919  1.0000
  S   S168      1.0  0.58045  0.69279  0.64777  1.0000
  H   H679      1.0  0.65085  0.80125  0.68843  1.0000
  S   S169      1.0  0.61180  0.68731  0.58724  1.0000
  Fe  Fe84      1.0  0.62374  0.71906  0.62504  1.0000
  S   S170      1.0  0.64678  0.76901  0.62351  1.0000
  C   C422      1.0  0.63932  0.74732  0.70363  1.0000
  C   C423      1.0  0.61745  0.75590  0.74617  1.0000
  C   C424      1.0  0.62655  0.78752  0.62200  1.0000
  C   C425      1.0  0.59708  0.77331  0.61305  1.0000
  C   C426      1.0  0.58196  0.78914  0.61160  1.0000
  H   H680      1.0  0.58612  0.75032  0.60663  1.0000
  H   H681      1.0  0.55936  0.77821  0.60403  1.0000
  H   H682      1.0  0.60643  0.76748  0.75555  1.0000
  C   C427      1.0  0.63605  0.69694  0.75127  1.0000
  C   C428      1.0  0.59748  0.75423  0.69820  1.0000
  C   C429      1.0  0.64488  0.79528  0.71179  1.0000
  H   H683      1.0  0.63459  0.80809  0.71985  1.0000
  N   N43       1.0  0.62477  0.76321  0.71498  1.0000
  H   H684      1.0  0.66575  0.80280  0.72412  1.0000
  H   H685      1.0  0.58641  0.76658  0.70536  1.0000
  H   H686      1.0  0.60217  0.75843  0.67443  1.0000
  H   H687      1.0  0.64672  0.75351  0.68072  1.0000
  C   C430      1.0  0.64050  0.81734  0.63016  1.0000
  C   C431      1.0  0.59596  0.81902  0.61975  1.0000
  H   H688      1.0  0.58150  0.73027  0.70068  1.0000
  H   H689      1.0  0.66327  0.82845  0.63718  1.0000
  H   H690      1.0  0.63754  0.76214  0.75947  1.0000
  H   H691      1.0  0.64866  0.70117  0.73137  1.0000
  H   H692      1.0  0.62408  0.72308  0.70379  1.0000
  S   S171      1.0  0.64624  0.69941  0.65093  1.0000
  C   C432      1.0  0.62515  0.83286  0.62949  1.0000
  H   H693      1.0  0.76758  0.67176  0.56118  1.0000
  C   C433      1.0  0.78577  0.67492  0.54628  1.0000
  H   H694      1.0  0.80044  0.69908  0.54328  1.0000
  H   H695      1.0  0.79870  0.66638  0.55763  1.0000
  H   H696      1.0  0.67042  0.87485  0.59242  1.0000
  H   H697      1.0  0.62957  0.88593  0.58909  1.0000
  H   H698      1.0  0.50995  0.93813  0.69459  1.0000
  H   H699      1.0  0.52773  0.95863  0.72700  1.0000
  C   C434      1.0  0.50638  0.94086  0.71808  1.0000
  Fe  Fe85      1.0  0.62526  0.92390  0.68699  1.0000
  C   C435      1.0  0.50913  0.95721  0.63038  1.0000
  H   H700      1.0  0.51742  0.89758  0.64042  1.0000
  H   H701      1.0  0.61207  0.98573  0.60093  1.0000
  S   S172      1.0  0.63192  0.96489  0.66485  1.0000
  S   S173      1.0  0.57694  0.83874  0.61631  1.0000
  H   H702      1.0  0.52178  0.98104  0.63022  1.0000
  Fe  Fe86      1.0  0.58599  0.93615  0.64759  1.0000
  S   S174      1.0  0.56057  0.96028  0.64574  1.0000
  S   S175      1.0  0.59993  0.92266  0.60674  1.0000
  S   S176      1.0  0.57811  0.89623  0.67277  1.0000
  C   C436      1.0  0.52314  0.94102  0.63606  1.0000
  N   N44       1.0  0.65817  0.88943  0.55389  1.0000
  H   H703      1.0  0.64501  0.97440  0.74322  1.0000
  C   C437      1.0  0.63686  0.96168  0.76304  1.0000
  H   H704      1.0  0.63318  0.96120  0.55891  1.0000
  C   C438      1.0  0.50671  0.91021  0.63600  1.0000
  H   H705      1.0  0.68899  0.87414  0.55977  1.0000
  C   C439      1.0  0.66759  0.87042  0.56848  1.0000
  S   S177      1.0  0.64405  0.91138  0.64895  1.0000
  C   C440      1.0  0.62897  0.88248  0.56507  1.0000
  C   C441      1.0  0.67845  0.99528  0.56391  1.0000
  H   H706      1.0  0.67331  0.93576  0.54956  1.0000
  H   H707      1.0  0.61196  0.85903  0.56087  1.0000
  H   H708      1.0  0.62118  0.89658  0.55490  1.0000
  H   H709      1.0  0.68160  0.92555  0.58398  1.0000
  C   C442      1.0  0.62926  0.93204  0.76316  1.0000
  Fe  Fe87      1.0  0.59719  0.88552  0.63373  1.0000
  H   H710      1.0  0.70215  0.92690  0.55206  1.0000
  Fe  Fe88      1.0  0.64547  0.94944  0.62501  1.0000
  C   C443      1.0  0.67976  0.92072  0.56008  1.0000
  C   C444      1.0  0.60884  0.00295  0.59034  1.0000
  H   H711      1.0  0.61350  0.00291  0.56664  1.0000
  H   H712      1.0  0.56661  0.65466  0.77756  1.0000
  C   C445      1.0  0.65017  0.71133  0.77744  1.0000
  C   C446      1.0  0.58998  0.67041  0.77741  1.0000
  H   H713      1.0  0.67358  0.72701  0.77746  1.0000
  C   C447      1.0  0.50621  0.63477  0.70038  1.0000
  S   S178      1.0  0.52484  0.63188  0.89570  1.0000
  H   H714      1.0  0.52934  0.62323  0.95810  1.0000
  S   S179      1.0  0.61031  0.65940  0.89290  1.0000
  H   H715      1.0  0.53899  0.54215  0.86077  1.0000
  C   C448      1.0  0.52392  0.55005  0.85351  1.0000
  H   H716      1.0  0.51820  0.54351  0.83020  1.0000
  H   H717      1.0  0.53651  0.57462  0.85453  1.0000
  Fe  Fe89      1.0  0.57185  0.66312  0.90890  1.0000
  H   H718      1.0  0.51924  0.53807  0.91157  1.0000
  H   H719      1.0  0.64263  0.99861  0.78918  1.0000
  H   H720      1.0  0.61279  0.89282  0.78917  1.0000
  H   H721      1.0  0.62928  0.67027  0.01108  1.0000
  H   H722      1.0  0.51884  0.57153  0.90464  1.0000
  C   C449      1.0  0.50630  0.91386  0.93963  1.0000
  C   C450      1.0  0.50684  0.60909  0.95107  1.0000
  C   C451      1.0  0.68390  0.65347  0.00816  1.0000
  H   H723      1.0  0.69663  0.64895  0.99250  1.0000
  C   C452      1.0  0.66250  0.65998  0.99816  1.0000
  S   S180      1.0  0.65683  0.66039  0.96010  1.0000
  H   H724      1.0  0.62025  0.56725  0.01162  1.0000
  H   H725      1.0  0.66210  0.56168  0.02758  1.0000
  H   H726      1.0  0.52607  0.74603  0.91265  1.0000
  Fe  Fe90      1.0  0.63038  0.67791  0.93709  1.0000
  H   H727      1.0  0.54585  0.69202  0.94114  1.0000
  H   H728      1.0  0.51089  0.66831  0.95764  1.0000
  H   H729      1.0  0.55520  0.73765  0.91596  1.0000
  C   C453      1.0  0.53532  0.73560  0.92699  1.0000
  H   H730      1.0  0.59177  0.67936  0.82378  1.0000
  C   C454      1.0  0.60417  0.68439  0.80364  1.0000
  H   H731      1.0  0.54321  0.74894  0.94747  1.0000
  C   C455      1.0  0.64797  0.83316  0.92144  1.0000
  C   C456      1.0  0.52685  0.69170  0.95215  1.0000
  S   S181      1.0  0.58996  0.67725  0.95418  1.0000
  Fe  Fe91      1.0  0.62913  0.70646  0.87928  1.0000
  S   S182      1.0  0.58920  0.70893  0.89200  1.0000
  S   S183      1.0  0.65244  0.72395  0.83607  1.0000
  Fe  Fe92      1.0  0.61021  0.72319  0.93607  1.0000
  S   S184      1.0  0.60322  0.75489  0.96397  1.0000
  C   C457      1.0  0.63430  0.70507  0.80372  1.0000
  C   C458      1.0  0.60422  0.80774  0.96397  1.0000
  C   C459      1.0  0.61554  0.79102  0.95132  1.0000
  C   C460      1.0  0.63715  0.80368  0.92970  1.0000
  H   H732      1.0  0.58762  0.79818  0.98083  1.0000
  H   H733      1.0  0.64606  0.79103  0.91981  1.0000
  S   S185      1.0  0.65224  0.72510  0.92226  1.0000
  H   H734      1.0  0.53524  0.70437  0.97294  1.0000
  H   H735      1.0  0.66759  0.76838  0.96855  1.0000
  C   C461      1.0  0.64410  0.73556  0.01647  1.0000
  C   C462      1.0  0.67796  0.77906  0.98969  1.0000
  H   H736      1.0  0.70133  0.79580  0.98521  1.0000
  H   H737      1.0  0.66648  0.79094  0.99721  1.0000
  C   C463      1.0  0.61901  0.91585  0.78909  1.0000
  C   C464      1.0  0.61450  0.83701  0.95514  1.0000
  H   H738      1.0  0.60586  0.84982  0.96520  1.0000
  H   H739      1.0  0.63323  0.72329  0.99606  1.0000
  N   N45       1.0  0.51341  0.70445  0.93317  1.0000
  C   C465      1.0  0.63558  0.97537  0.78911  1.0000
  H   H740      1.0  0.68004  0.72864  0.98029  1.0000
  H   H741      1.0  0.71419  0.75741  0.99504  1.0000
  C   C466      1.0  0.69073  0.74170  0.00041  1.0000
  N   N46       1.0  0.67554  0.75717  0.01141  1.0000
  H   H742      1.0  0.69049  0.72600  0.01685  1.0000
  C   C467      1.0  0.50530  0.95461  0.91585  1.0000
  H   H743      1.0  0.58526  0.99391  0.98266  1.0000
  C   C468      1.0  0.56138  0.97896  0.98699  1.0000
  C   C469      1.0  0.52438  0.94634  0.02104  1.0000
  N   N47       1.0  0.55641  0.96505  0.01601  1.0000
  H   H744      1.0  0.51579  0.97375  0.90187  1.0000
  H   H745      1.0  0.59444  0.95986  0.01290  1.0000
  H   H746      1.0  0.55017  0.99206  0.98481  1.0000
  H   H747      1.0  0.56073  0.92876  0.00024  1.0000
  H   H748      1.0  0.55283  0.96208  0.96934  1.0000
  S   S186      1.0  0.59324  0.90641  0.89923  1.0000
  Fe  Fe93      1.0  0.57385  0.91815  0.93732  1.0000
  S   S187      1.0  0.52560  0.89572  0.94984  1.0000
  S   S188      1.0  0.59810  0.96623  0.92748  1.0000
  C   C470      1.0  0.51909  0.93805  0.92087  1.0000
  H   H749      1.0  0.53976  0.94421  0.91032  1.0000
  Fe  Fe94      1.0  0.62019  0.95513  0.89190  1.0000
  S   S189      1.0  0.62901  0.97824  0.84825  1.0000
  C   C471      1.0  0.62634  0.95942  0.81528  1.0000
  H   H750      1.0  0.51409  0.92850  0.00425  1.0000
  S   S190      1.0  0.60740  0.92115  0.97000  1.0000
  C   C472      1.0  0.57032  0.94658  0.01705  1.0000
  H   H751      1.0  0.51295  0.95934  0.01986  1.0000
  Fe  Fe95      1.0  0.63282  0.96929  0.95823  1.0000
  C   C473      1.0  0.61716  0.92938  0.81500  1.0000
  H   H752      1.0  0.60938  0.91679  0.83489  1.0000
  C   C474      1.0  0.68948  0.95795  0.83861  1.0000
  C   C475      1.0  0.50571  0.54709  0.90259  1.0000
  H   H753      1.0  0.68003  0.99189  0.02503  1.0000
  H   H754      1.0  0.70756  0.91816  0.88379  1.0000
  H   H755      1.0  0.64851  0.90013  0.83011  1.0000
  C   C476      1.0  0.70664  0.93774  0.87593  1.0000
  C   C477      1.0  0.66064  0.90640  0.85119  1.0000
  C   C478      1.0  0.70650  0.92445  0.82526  1.0000
  H   H756      1.0  0.66524  0.84304  0.90525  1.0000
  H   H757      1.0  0.69505  0.91981  0.80372  1.0000
  H   H758      1.0  0.69528  0.94323  0.89329  1.0000
  H   H759      1.0  0.66076  0.88661  0.85968  1.0000
  H   H760      1.0  0.67662  0.96330  0.85441  1.0000
  H   H761      1.0  0.71180  0.97775  0.83693  1.0000
  H   H762      1.0  0.72958  0.95655  0.87428  1.0000
  H   H763      1.0  0.70776  0.90460  0.83141  1.0000
  S   S191      1.0  0.65242  0.88746  0.92435  1.0000
  H   H764      1.0  0.64768  0.91160  0.86696  1.0000
  S   S192      1.0  0.65741  0.96256  0.92140  1.0000
  Fe  Fe96      1.0  0.62921  0.91386  0.93079  1.0000
  C   C479      1.0  0.63674  0.84996  0.93413  1.0000
  H   H765      1.0  0.72939  0.94301  0.82209  1.0000
  N   N48       1.0  0.69083  0.93166  0.84775  1.0000
  H   H766      1.0  0.67870  0.95455  0.81688  1.0000
  C   C480      1.0  0.64623  0.66588  0.01854  1.0000
  H   H767      1.0  0.63175  0.74656  0.02388  1.0000
  H   H768      1.0  0.52278  0.68851  0.89349  1.0000
