data_image0
_chemical_formula_structural       SFeSFe2SHSC2SHCH2CHCNH3C2HCSFeH2CH3CH2CH3CH2CHCHSH2C2H2SC2H4CH2SFeHCFeC3S2HFeSFeHSC2H3CSCH2CHCH4NCHCHS2H3CFeCH5NCH2CS2C3HC2H3CHCH2CHSC2H2CHSFeCHCH3FeHSC2H2SNSHC2SFeCNSCHC2HCH2CH3C2H3C2H5C3H3CH4CH4CS2FeS2C2HFe2HCH2NFeHCHCH2SH2NHS3CHCSH2CH4CHNHCHC2HCSC2HCHCH2CH3CHCH2S2FeHC2HFeH2CSNCHSFe2CSH3SCS2CFeCHFe2CH4CHCHNCH2CHC2H4C3H5CH2C2H8NCS3HC2FeSCHCH3CH2NHFeSFeS3NC2HCH6CHCH3CHCSCFe2SHSCH5C4H4C5HSNHCH7NH4CHCHSH4CSCH2SC3H2SCFeHCHC2HFeCH2FeHC2SFeSC4HSHS2H3CH3CH2CSCHCH2CHCH3CH5SCH2C2FeSFeS2CHNFeHSHC2SCH3FeH2CH9CNC4H4C2S2H2CHCH5CH3CNCH2CH5CH2SC4HSHC2SNHCH2CHCH3CSH3C2FeCHSFeSFeHFeS3C4HSNCH2C2H3CHCH3CHCHCHC2H2CHCSFeSFeS3C2H2CFeHFeSH8SHC2FeC2H3CHCHCH3SFeS3FeSCHC2HCHFeCHSH2NHCHCH3C2HNHCHCHCH7CH2SHCH3FeCH3C2SHC2HNHCHCH3SHNCH3C2HS2C4H3Fe2S2Fe2S2C3H2CHCH2CH2NH6CH4CSHC2FeS2CSHCSFe3CNCH3C2H3CH4CH2CSHCHCH4SCHCS2CH3CH2CH3CH3C2HNSH2FeSCHCFeSHC2HCNHC2H6CHCSCH4CH4NH6NSCHCHSFeCHSC2FeHCHCH2CHCHSCH3CHCNH6CH3SCHCNH2CHCH4CSHC5HCH4FeHCHCHCHSH3FeSC2SFeSC2
_chemical_formula_sum              "S128 Fe64 H512 C320 N32"
_cell_length_a       33.1991
_cell_length_b       31.4802
_cell_length_c       32.9478
_cell_angle_alpha    90.4521
_cell_angle_beta     92.3567
_cell_angle_gamma    92.1346

_space_group_name_H-M_alt    "P 1"
_space_group_IT_number       1

loop_
  _space_group_symop_operation_xyz
  'x, y, z'

loop_
  _atom_site_type_symbol
  _atom_site_label
  _atom_site_symmetry_multiplicity
  _atom_site_fract_x
  _atom_site_fract_y
  _atom_site_fract_z
  _atom_site_occupancy
  S   S1        1.0  0.29028  0.30713  0.16847  1.0000
  Fe  Fe1       1.0  0.27757  0.18737  0.19515  1.0000
  S   S2        1.0  0.23259  0.22050  0.15528  1.0000
  Fe  Fe2       1.0  0.28635  0.25066  0.12624  1.0000
  Fe  Fe3       1.0  0.24080  0.27336  0.20106  1.0000
  S   S3        1.0  0.28222  0.23826  0.24331  1.0000
  H   H1        1.0  0.24065  0.16580  0.27356  1.0000
  S   S4        1.0  0.26789  0.11710  0.20554  1.0000
  C   C1        1.0  0.23163  0.13291  0.27742  1.0000
  C   C2        1.0  0.24214  0.10238  0.24909  1.0000
  S   S5        1.0  0.18840  0.30416  0.22861  1.0000
  H   H2        1.0  0.15562  0.12230  0.23197  1.0000
  C   C3        1.0  0.20914  0.12083  0.31085  1.0000
  H   H3        1.0  0.18082  0.15576  0.19663  1.0000
  H   H4        1.0  0.13370  0.12927  0.18180  1.0000
  C   C4        1.0  0.15055  0.14594  0.20747  1.0000
  H   H5        1.0  0.18375  0.21423  0.24502  1.0000
  C   C5        1.0  0.15316  0.20468  0.25517  1.0000
  N   N1        1.0  0.12875  0.18278  0.22223  1.0000
  H   H6        1.0  0.15725  0.18399  0.28208  1.0000
  H   H7        1.0  0.13894  0.23423  0.26532  1.0000
  H   H8        1.0  0.18791  0.30793  0.14082  1.0000
  C   C6        1.0  0.15212  0.32048  0.19239  1.0000
  C   C7        1.0  0.15932  0.31850  0.15091  1.0000
  H   H9        1.0  0.15033  0.22589  0.17701  1.0000
  C   C8        1.0  0.12151  0.21269  0.18854  1.0000
  S   S6        1.0  0.33096  0.21293  0.16226  1.0000
  Fe  Fe4       1.0  0.33129  0.26740  0.20676  1.0000
  H   H10       1.0  0.10426  0.19715  0.16248  1.0000
  H   H11       1.0  0.10433  0.24040  0.19846  1.0000
  C   C9        1.0  0.12958  0.33081  0.12230  1.0000
  H   H12       1.0  0.13534  0.32973  0.09023  1.0000
  H   H13       1.0  0.09413  0.14510  0.26335  1.0000
  H   H14       1.0  0.10928  0.33552  0.23726  1.0000
  C   C10       1.0  0.11499  0.33413  0.20519  1.0000
  H   H15       1.0  0.33041  0.35781  0.23412  1.0000
  H   H16       1.0  0.33374  0.43187  0.26062  1.0000
  C   C11       1.0  0.09249  0.34470  0.13509  1.0000
  H   H17       1.0  0.20105  0.14453  0.33273  1.0000
  H   H18       1.0  0.33428  0.30843  0.36442  1.0000
  H   H19       1.0  0.33414  0.31708  0.43975  1.0000
  C   C12       1.0  0.08970  0.16789  0.23797  1.0000
  H   H20       1.0  0.32777  0.42291  0.39006  1.0000
  H   H21       1.0  0.30449  0.35474  0.35839  1.0000
  C   C13       1.0  0.33587  0.34372  0.36230  1.0000
  H   H22       1.0  0.30440  0.36346  0.43398  1.0000
  C   C14       1.0  0.33577  0.35210  0.43538  1.0000
  H   H23       1.0  0.09298  0.33815  0.57998  1.0000
  S   S7        1.0  0.12163  0.27081  0.75268  1.0000
  H   H24       1.0  0.19651  0.31129  0.73130  1.0000
  H   H25       1.0  0.27220  0.32041  0.75174  1.0000
  C   C15       1.0  0.13331  0.32276  0.73659  1.0000
  C   C16       1.0  0.17307  0.33400  0.72711  1.0000
  H   H26       1.0  0.18191  0.22204  0.78980  1.0000
  H   H27       1.0  0.23470  0.21914  0.80188  1.0000
  S   S8        1.0  0.31259  0.25617  0.79681  1.0000
  C   C17       1.0  0.31812  0.31190  0.79885  1.0000
  C   C18       1.0  0.29409  0.33608  0.77262  1.0000
  H   H28       1.0  0.18433  0.29827  0.81050  1.0000
  H   H29       1.0  0.28177  0.56328  0.86910  1.0000
  H   H30       1.0  0.11084  0.31124  0.64919  1.0000
  H   H31       1.0  0.23725  0.29500  0.82184  1.0000
  C   C19       1.0  0.20436  0.21618  0.81491  1.0000
  H   H32       1.0  0.09319  0.25895  0.63268  1.0000
  H   H33       1.0  0.29641  0.54342  0.82086  1.0000
  S   S9        1.0  0.31675  0.55046  0.72768  1.0000
  Fe  Fe5       1.0  0.29830  0.52592  0.66564  1.0000
  H   H34       1.0  0.22062  0.58418  0.81914  1.0000
  C   C20       1.0  0.10316  0.35223  0.73104  1.0000
  Fe  Fe6       1.0  0.22123  0.48374  0.69573  1.0000
  C   C21       1.0  0.18244  0.37423  0.71111  1.0000
  C   C22       1.0  0.15184  0.40289  0.70374  1.0000
  C   C23       1.0  0.11231  0.39196  0.71405  1.0000
  S   S10       1.0  0.28327  0.45948  0.68648  1.0000
  S   S11       1.0  0.23511  0.54768  0.66885  1.0000
  H   H35       1.0  0.21300  0.38249  0.70305  1.0000
  Fe  Fe7       1.0  0.25256  0.56778  0.73250  1.0000
  S   S12       1.0  0.16151  0.45089  0.67860  1.0000
  Fe  Fe8       1.0  0.29638  0.48634  0.74932  1.0000
  H   H36       1.0  0.27958  0.39893  0.75283  1.0000
  S   S13       1.0  0.23338  0.50589  0.76024  1.0000
  C   C24       1.0  0.29842  0.38057  0.77302  1.0000
  C   C25       1.0  0.32704  0.40106  0.79946  1.0000
  H   H37       1.0  0.08875  0.41440  0.70897  1.0000
  H   H38       1.0  0.19966  0.18268  0.82463  1.0000
  H   H39       1.0  0.20490  0.31394  0.85977  1.0000
  C   C26       1.0  0.20704  0.29033  0.83473  1.0000
  S   S14       1.0  0.28615  0.26174  0.05867  1.0000
  C   C27       1.0  0.32697  0.24402  0.03154  1.0000
  H   H40       1.0  0.26240  0.24116  0.87012  1.0000
  H   H41       1.0  0.15367  0.20847  0.87609  1.0000
  C   C28       1.0  0.23128  0.23751  0.88146  1.0000
  H   H42       1.0  0.22942  0.25966  0.90779  1.0000
  C   C29       1.0  0.15976  0.24134  0.86510  1.0000
  H   H43       1.0  0.15573  0.26367  0.89086  1.0000
  H   H44       1.0  0.22753  0.20452  0.89298  1.0000
  H   H45       1.0  0.30074  0.26239  0.97372  1.0000
  H   H46       1.0  0.13607  0.24787  0.84120  1.0000
  N   N2        1.0  0.20060  0.24632  0.84908  1.0000
  C   C30       1.0  0.32651  0.24887  0.98927  1.0000
  H   H47       1.0  0.31387  0.51872  0.86660  1.0000
  C   C31       1.0  0.30717  0.55000  0.85279  1.0000
  H   H48       1.0  0.33529  0.45992  0.61191  1.0000
  S   S15       1.0  0.33489  0.45648  0.79821  1.0000
  S   S16       1.0  0.33703  0.55250  0.61673  1.0000
  H   H49       1.0  0.28573  0.81990  0.27301  1.0000
  H   H50       1.0  0.12695  0.75411  0.30414  1.0000
  H   H51       1.0  0.31061  0.74080  0.12299  1.0000
  C   C32       1.0  0.32686  0.76989  0.11540  1.0000
  Fe  Fe9       1.0  0.15932  0.99410  0.36676  1.0000
  C   C33       1.0  0.29778  0.83743  0.29940  1.0000
  H   H52       1.0  0.26566  0.96049  0.17502  1.0000
  H   H53       1.0  0.32502  0.84494  0.20111  1.0000
  H   H54       1.0  0.25650  0.91483  0.14227  1.0000
  H   H55       1.0  0.31322  0.95620  0.23527  1.0000
  H   H56       1.0  0.32946  0.91238  0.13276  1.0000
  N   N3        1.0  0.30141  0.90684  0.19024  1.0000
  C   C34       1.0  0.20837  0.04746  0.28832  1.0000
  H   H57       1.0  0.19947  0.01445  0.29240  1.0000
  H   H58       1.0  0.23892  0.03585  0.23299  1.0000
  C   C35       1.0  0.23076  0.05959  0.25478  1.0000
  S   S17       1.0  0.22094  0.86284  0.30796  1.0000
  S   S18       1.0  0.13856  0.94657  0.31866  1.0000
  C   C36       1.0  0.27193  0.85966  0.32367  1.0000
  C   C37       1.0  0.19715  0.07820  0.31614  1.0000
  C   C38       1.0  0.30938  0.92097  0.23282  1.0000
  H   H59       1.0  0.28399  0.91126  0.25225  1.0000
  C   C39       1.0  0.26359  0.92509  0.17431  1.0000
  C   C40       1.0  0.29737  0.85992  0.18844  1.0000
  H   H60       1.0  0.29239  0.84814  0.15658  1.0000
  H   H61       1.0  0.23752  0.91488  0.19264  1.0000
  H   H62       1.0  0.27149  0.84786  0.20605  1.0000
  C   C41       1.0  0.33518  0.92141  0.16531  1.0000
  H   H63       1.0  0.33725  0.90711  0.24622  1.0000
  C   C42       1.0  0.32915  0.88182  0.36815  1.0000
  H   H64       1.0  0.12786  0.77432  0.35518  1.0000
  H   H65       1.0  0.12664  0.71788  0.34609  1.0000
  C   C43       1.0  0.11487  0.74844  0.33475  1.0000
  H   H66       1.0  0.28551  0.82856  0.45414  1.0000
  S   S19       1.0  0.33012  0.80773  0.52765  1.0000
  C   C44       1.0  0.28480  0.83369  0.51944  1.0000
  C   C45       1.0  0.26990  0.84066  0.47976  1.0000
  H   H67       1.0  0.30086  0.93599  0.57595  1.0000
  H   H68       1.0  0.22498  0.87138  0.44239  1.0000
  C   C46       1.0  0.21601  0.88153  0.50615  1.0000
  H   H69       1.0  0.26774  0.89685  0.37826  1.0000
  S   S20       1.0  0.17729  0.91726  0.49864  1.0000
  Fe  Fe10      1.0  0.18504  0.90489  0.34730  1.0000
  C   C47       1.0  0.23560  0.86482  0.47309  1.0000
  H   H70       1.0  0.24540  0.01756  0.51833  1.0000
  C   C48       1.0  0.28754  0.88087  0.35866  1.0000
  H   H71       1.0  0.28088  0.04834  0.55031  1.0000
  H   H72       1.0  0.25224  0.95757  0.56476  1.0000
  H   H73       1.0  0.26389  0.95048  0.48931  1.0000
  Fe  Fe11      1.0  0.16331  0.92748  0.43240  1.0000
  H   H74       1.0  0.30984  0.97167  0.47000  1.0000
  S   S21       1.0  0.11488  0.97115  0.41191  1.0000
  C   C49       1.0  0.22986  0.87281  0.54575  1.0000
  C   C50       1.0  0.29629  0.95771  0.49744  1.0000
  H   H75       1.0  0.28918  0.04226  0.49691  1.0000
  H   H76       1.0  0.31072  0.92693  0.50371  1.0000
  S   S22       1.0  0.20962  0.95509  0.39154  1.0000
  N   N4        1.0  0.30093  0.98696  0.53278  1.0000
  S   S23       1.0  0.14257  0.87403  0.39031  1.0000
  H   H77       1.0  0.21444  0.88525  0.57134  1.0000
  C   C51       1.0  0.27816  0.02558  0.52422  1.0000
  C   C52       1.0  0.28505  0.96585  0.56906  1.0000
  S   S24       1.0  0.16696  0.06449  0.35686  1.0000
  Fe  Fe12      1.0  0.09821  0.92022  0.36593  1.0000
  C   C53       1.0  0.26440  0.84923  0.55238  1.0000
  N   N5        1.0  0.29613  0.69844  0.65573  1.0000
  S   S25       1.0  0.24201  0.63546  0.74965  1.0000
  C   C54       1.0  0.24207  0.69041  0.81351  1.0000
  H   H78       1.0  0.24964  0.71474  0.79175  1.0000
  C   C55       1.0  0.23585  0.64809  0.80078  1.0000
  C   C56       1.0  0.25291  0.68578  0.65733  1.0000
  H   H79       1.0  0.23576  0.69482  0.62921  1.0000
  C   C57       1.0  0.30040  0.74498  0.65060  1.0000
  H   H80       1.0  0.23886  0.70100  0.68364  1.0000
  H   H81       1.0  0.24863  0.65076  0.66098  1.0000
  C   C58       1.0  0.30194  0.80523  0.81665  1.0000
  H   H82       1.0  0.28814  0.76237  0.67670  1.0000
  H   H83       1.0  0.33263  0.75543  0.64908  1.0000
  H   H84       1.0  0.30495  0.70230  0.72073  1.0000
  C   C59       1.0  0.32783  0.78480  0.79078  1.0000
  C   C60       1.0  0.22606  0.61681  0.82904  1.0000
  H   H85       1.0  0.28452  0.75554  0.62222  1.0000
  H   H86       1.0  0.29864  0.68528  0.59173  1.0000
  H   H87       1.0  0.31087  0.64143  0.62402  1.0000
  C   C61       1.0  0.31380  0.67668  0.62113  1.0000
  C   C62       1.0  0.31743  0.68629  0.69394  1.0000
  H   H88       1.0  0.31458  0.65139  0.69891  1.0000
  H   H89       1.0  0.32208  0.61331  0.80173  1.0000
  H   H90       1.0  0.33509  0.75203  0.79604  1.0000
  H   H91       1.0  0.28930  0.98656  0.59661  1.0000
  H   H92       1.0  0.27506  0.84296  0.58302  1.0000
  C   C63       1.0  0.29194  0.84737  0.80952  1.0000
  C   C64       1.0  0.33469  0.84912  0.75150  1.0000
  C   C65       1.0  0.30830  0.86924  0.77688  1.0000
  H   H93       1.0  0.30084  0.90193  0.77134  1.0000
  H   H94       1.0  0.30973  0.63649  0.84928  1.0000
  H   H95       1.0  0.09046  0.63775  0.90998  1.0000
  C   C66       1.0  0.10640  0.65812  0.93378  1.0000
  H   H96       1.0  0.11056  0.72288  0.98844  1.0000
  H   H97       1.0  0.21555  0.60387  0.89215  1.0000
  H   H98       1.0  0.10292  0.69520  0.86088  1.0000
  H   H99       1.0  0.28944  0.78826  0.84180  1.0000
  C   C67       1.0  0.12293  0.72927  0.95813  1.0000
  H   H100      1.0  0.12059  0.76383  0.95252  1.0000
  H   H101      1.0  0.13893  0.65023  0.93433  1.0000
  H   H102      1.0  0.28837  0.78201  0.06267  1.0000
  H   H103      1.0  0.15557  0.72242  0.96020  1.0000
  C   C68       1.0  0.23936  0.70142  0.85451  1.0000
  S   S26       1.0  0.21907  0.78751  0.00061  1.0000
  S   S27       1.0  0.28889  0.79650  0.93197  1.0000
  Fe  Fe13      1.0  0.23328  0.75558  0.94195  1.0000
  S   S28       1.0  0.22731  0.68437  0.93427  1.0000
  S   S29       1.0  0.19228  0.79486  0.90324  1.0000
  C   C69       1.0  0.22315  0.62796  0.87021  1.0000
  C   C70       1.0  0.23017  0.67027  0.88294  1.0000
  H   H104      1.0  0.24477  0.73404  0.86415  1.0000
  Fe  Fe14      1.0  0.18192  0.83008  0.96091  1.0000
  Fe  Fe15      1.0  0.27113  0.83220  0.98737  1.0000
  H   H105      1.0  0.15087  0.70837  0.88576  1.0000
  C   C71       1.0  0.11802  0.71444  0.88598  1.0000
  H   H106      1.0  0.11423  0.74855  0.87859  1.0000
  H   H107      1.0  0.33019  0.60420  0.91347  1.0000
  N   N6        1.0  0.10129  0.70377  0.92569  1.0000
  Fe  Fe16      1.0  0.24628  0.83867  0.89841  1.0000
  H   H108      1.0  0.11816  0.83286  0.89336  1.0000
  C   C72       1.0  0.33490  0.83107  0.07160  1.0000
  H   H109      1.0  0.09452  0.64894  0.96370  1.0000
  C   C73       1.0  0.33345  0.61932  0.83363  1.0000
  H   H110      1.0  0.29161  0.00385  0.88804  1.0000
  H   H111      1.0  0.32064  0.89285  0.90856  1.0000
  S   S30       1.0  0.12050  0.84810  0.98056  1.0000
  H   H112      1.0  0.28633  0.97659  0.93556  1.0000
  H   H113      1.0  0.32816  0.92893  0.84321  1.0000
  N   N7        1.0  0.33735  0.95899  0.90183  1.0000
  H   H114      1.0  0.27376  0.94939  0.88845  1.0000
  S   S31       1.0  0.25961  0.87364  0.84131  1.0000
  S   S32       1.0  0.23262  0.87773  0.95283  1.0000
  S   S33       1.0  0.31865  0.86223  0.03045  1.0000
  C   C74       1.0  0.29542  0.97291  0.90362  1.0000
  H   H115      1.0  0.33315  0.92050  0.95547  1.0000
  C   C75       1.0  0.31424  0.79319  0.08126  1.0000
  S   S34       1.0  0.39058  0.29290  0.23438  1.0000
  H   H116      1.0  0.38545  0.28207  0.14367  1.0000
  H   H117      1.0  0.43750  0.29588  0.15367  1.0000
  C   C76       1.0  0.41284  0.29580  0.12969  1.0000
  H   H118      1.0  0.42077  0.27379  0.10491  1.0000
  H   H119      1.0  0.34386  0.32374  0.09677  1.0000
  H   H120      1.0  0.36098  0.22260  0.08392  1.0000
  H   H121      1.0  0.45223  0.34152  0.27877  1.0000
  C   C77       1.0  0.39600  0.36694  0.14861  1.0000
  H   H122      1.0  0.42060  0.36832  0.17270  1.0000
  N   N8        1.0  0.40588  0.33903  0.11441  1.0000
  H   H123      1.0  0.36827  0.35502  0.16333  1.0000
  C   C78       1.0  0.39118  0.34474  0.25449  1.0000
  H   H124      1.0  0.39070  0.39996  0.13850  1.0000
  C   C79       1.0  0.42786  0.40269  0.29067  1.0000
  C   C80       1.0  0.42621  0.36106  0.27503  1.0000
  H   H125      1.0  0.45523  0.41518  0.30601  1.0000
  C   C81       1.0  0.39463  0.42837  0.28534  1.0000
  S   S35       1.0  0.39595  0.48015  0.30571  1.0000
  C   C82       1.0  0.35774  0.37026  0.24952  1.0000
  C   C83       1.0  0.35964  0.41219  0.26456  1.0000
  H   H126      1.0  0.38542  0.57208  0.27752  1.0000
  C   C84       1.0  0.44272  0.35592  0.09558  1.0000
  H   H127      1.0  0.43839  0.56722  0.28763  1.0000
  C   C85       1.0  0.41572  0.58455  0.26893  1.0000
  H   H128      1.0  0.46885  0.35758  0.11792  1.0000
  H   H129      1.0  0.41945  0.57558  0.23661  1.0000
  C   C86       1.0  0.37196  0.33732  0.08384  1.0000
  H   H130      1.0  0.43850  0.38851  0.08364  1.0000
  H   H131      1.0  0.39897  0.31323  0.40542  1.0000
  H   H132      1.0  0.47241  0.58459  0.52304  1.0000
  C   C87       1.0  0.37317  0.44490  0.56233  1.0000
  H   H133      1.0  0.35157  0.35178  0.33400  1.0000
  C   C88       1.0  0.39878  0.34831  0.40174  1.0000
  H   H134      1.0  0.41593  0.36304  0.42840  1.0000
  H   H135      1.0  0.41573  0.35620  0.37411  1.0000
  S   S36       1.0  0.41443  0.51534  0.41682  1.0000
  S   S37       1.0  0.46912  0.43475  0.39240  1.0000
  Fe  Fe17      1.0  0.52237  0.48052  0.39888  1.0000
  H   H136      1.0  0.53069  0.54700  0.55208  1.0000
  C   C89       1.0  0.53627  0.57390  0.57403  1.0000
  C   C90       1.0  0.38513  0.53282  0.55498  1.0000
  H   H137      1.0  0.38946  0.56683  0.55177  1.0000
  Fe  Fe18      1.0  0.43863  0.48801  0.36030  1.0000
  H   H138      1.0  0.37348  0.42632  0.42110  1.0000
  H   H139      1.0  0.37560  0.42020  0.36716  1.0000
  C   C91       1.0  0.39761  0.46130  0.53202  1.0000
  S   S38       1.0  0.50572  0.50677  0.45928  1.0000
  N   N9        1.0  0.35720  0.36356  0.39834  1.0000
  C   C92       1.0  0.35852  0.41026  0.39397  1.0000
  H   H140      1.0  0.56099  0.43010  0.46239  1.0000
  S   S39       1.0  0.41966  0.42702  0.49769  1.0000
  Fe  Fe19      1.0  0.47232  0.55411  0.42171  1.0000
  Fe  Fe20      1.0  0.44940  0.46563  0.44941  1.0000
  C   C93       1.0  0.40385  0.50527  0.52869  1.0000
  S   S40       1.0  0.49344  0.53153  0.36177  1.0000
  H   H141      1.0  0.42289  0.51817  0.50566  1.0000
  H   H142      1.0  0.36828  0.41090  0.56500  1.0000
  H   H143      1.0  0.35142  0.36670  0.46301  1.0000
  S   S41       1.0  0.58437  0.46118  0.38356  1.0000
  C   C94       1.0  0.58707  0.41344  0.45321  1.0000
  S   S42       1.0  0.39803  0.17956  0.77738  1.0000
  S   S43       1.0  0.50874  0.22674  0.77707  1.0000
  C   C95       1.0  0.53237  0.27482  0.79359  1.0000
  Fe  Fe21      1.0  0.36501  0.21928  0.82115  1.0000
  C   C96       1.0  0.50996  0.30694  0.81006  1.0000
  H   H144      1.0  0.47772  0.30293  0.81158  1.0000
  Fe  Fe22      1.0  0.45349  0.20687  0.81043  1.0000
  Fe  Fe23      1.0  0.39768  0.13037  0.82636  1.0000
  C   C97       1.0  0.34589  0.33246  0.82613  1.0000
  H   H145      1.0  0.43232  0.27038  0.74836  1.0000
  H   H146      1.0  0.37302  0.09686  0.74001  1.0000
  H   H147      1.0  0.48336  0.32235  0.72505  1.0000
  H   H148      1.0  0.37951  0.28042  0.74188  1.0000
  C   C98       1.0  0.40996  0.29593  0.74759  1.0000
  H   H149      1.0  0.43957  0.28141  0.67463  1.0000
  C   C99       1.0  0.57422  0.28070  0.79116  1.0000
  H   H150      1.0  0.41035  0.31065  0.77838  1.0000
  N   N10       1.0  0.41916  0.32793  0.71641  1.0000
  C   C100      1.0  0.41743  0.30711  0.67598  1.0000
  H   H151      1.0  0.42434  0.33025  0.65160  1.0000
  H   H152      1.0  0.38695  0.29239  0.66865  1.0000
  C   C101      1.0  0.52934  0.34459  0.82466  1.0000
  H   H153      1.0  0.46237  0.36303  0.75529  1.0000
  C   C102      1.0  0.46005  0.34696  0.72499  1.0000
  C   C103      1.0  0.57133  0.34976  0.82377  1.0000
  H   H154      1.0  0.39027  0.37840  0.74704  1.0000
  H   H155      1.0  0.46817  0.37113  0.70195  1.0000
  H   H156      1.0  0.35791  0.34817  0.71184  1.0000
  H   H157      1.0  0.39468  0.38593  0.69349  1.0000
  C   C104      1.0  0.38923  0.36156  0.71714  1.0000
  C   C105      1.0  0.35056  0.37696  0.82624  1.0000
  C   C106      1.0  0.35450  0.47257  0.58886  1.0000
  H   H158      1.0  0.56911  0.57546  0.58249  1.0000
  H   H159      1.0  0.51989  0.56585  0.60193  1.0000
  H   H160      1.0  0.36509  0.36943  0.07221  1.0000
  H   H161      1.0  0.36845  0.55141  0.80217  1.0000
  H   H162      1.0  0.38414  0.52848  0.84927  1.0000
  C   C107      1.0  0.36030  0.51660  0.58497  1.0000
  H   H163      1.0  0.37240  0.39272  0.84709  1.0000
  H   H164      1.0  0.58267  0.23231  0.86342  1.0000
  C   C108      1.0  0.36050  0.22680  0.05150  1.0000
  C   C109      1.0  0.56660  0.26292  0.96044  1.0000
  H   H165      1.0  0.54151  0.25911  0.98174  1.0000
  H   H166      1.0  0.36343  0.31424  0.84753  1.0000
  H   H167      1.0  0.57388  0.18046  0.94144  1.0000
  H   H168      1.0  0.52511  0.29569  0.89691  1.0000
  H   H169      1.0  0.37853  0.31697  0.05730  1.0000
  H   H170      1.0  0.49360  0.25795  0.92262  1.0000
  H   H171      1.0  0.53956  0.17938  0.89777  1.0000
  H   H172      1.0  0.51047  0.24552  0.87310  1.0000
  N   N11       1.0  0.55594  0.24197  0.92096  1.0000
  C   C110      1.0  0.35929  0.23629  0.96703  1.0000
  S   S44       1.0  0.35942  0.16769  0.86758  1.0000
  S   S45       1.0  0.45628  0.15456  0.85595  1.0000
  S   S46       1.0  0.42068  0.25044  0.85048  1.0000
  H   H173      1.0  0.41946  0.20157  0.04495  1.0000
  C   C111      1.0  0.39362  0.21497  0.02939  1.0000
  C   C112      1.0  0.39294  0.21943  0.98710  1.0000
  Fe  Fe24      1.0  0.41825  0.19568  0.89330  1.0000
  S   S47       1.0  0.43456  0.20443  0.95980  1.0000
  C   C113      1.0  0.51970  0.26119  0.90259  1.0000
  H   H174      1.0  0.35868  0.24010  0.93442  1.0000
  C   C114      1.0  0.54742  0.19608  0.92713  1.0000
  H   H175      1.0  0.52139  0.19061  0.94704  1.0000
  H   H176      1.0  0.57309  0.29763  0.95668  1.0000
  H   H177      1.0  0.45097  0.33540  0.06973  1.0000
  C   C115      1.0  0.37655  0.55909  0.83457  1.0000
  H   H178      1.0  0.51195  0.36936  0.83760  1.0000
  H   H179      1.0  0.36226  0.55940  0.91434  1.0000
  N   N12       1.0  0.34304  0.57934  0.85461  1.0000
  H   H180      1.0  0.40431  0.58005  0.83544  1.0000
  Fe  Fe25      1.0  0.49797  0.77480  0.27493  1.0000
  S   S48       1.0  0.54230  0.72678  0.29556  1.0000
  Fe  Fe26      1.0  0.42366  0.79030  0.22111  1.0000
  S   S49       1.0  0.48940  0.78880  0.20878  1.0000
  S   S50       1.0  0.43191  0.76967  0.28571  1.0000
  S   S51       1.0  0.37458  0.75600  0.18351  1.0000
  N   N13       1.0  0.42036  0.63104  0.27539  1.0000
  C   C116      1.0  0.36020  0.78435  0.13985  1.0000
  C   C117      1.0  0.46116  0.64583  0.26415  1.0000
  H   H181      1.0  0.35918  0.82246  0.28897  1.0000
  C   C118      1.0  0.38112  0.82196  0.12988  1.0000
  H   H182      1.0  0.48504  0.63053  0.28305  1.0000
  H   H183      1.0  0.46564  0.68081  0.26852  1.0000
  H   H184      1.0  0.46652  0.63867  0.23174  1.0000
  H   H185      1.0  0.39224  0.68781  0.25406  1.0000
  H   H186      1.0  0.40724  0.83301  0.14821  1.0000
  H   H187      1.0  0.39327  0.64620  0.21697  1.0000
  C   C119      1.0  0.38977  0.65264  0.24990  1.0000
  H   H188      1.0  0.35858  0.64215  0.25735  1.0000
  C   C120      1.0  0.41490  0.64109  0.31868  1.0000
  H   H189      1.0  0.38443  0.63044  0.32831  1.0000
  H   H190      1.0  0.41853  0.67588  0.32482  1.0000
  H   H191      1.0  0.57870  0.78692  0.24036  1.0000
  C   C121      1.0  0.33940  0.83878  0.30854  1.0000
  H   H192      1.0  0.36398  0.90708  0.17565  1.0000
  C   C122      1.0  0.57052  0.92786  0.21992  1.0000
  S   S52       1.0  0.50564  0.84266  0.29483  1.0000
  C   C123      1.0  0.36848  0.84523  0.09583  1.0000
  Fe  Fe27      1.0  0.43843  0.83929  0.29941  1.0000
  Fe  Fe28      1.0  0.49190  0.85704  0.22927  1.0000
  S   S53       1.0  0.42490  0.86010  0.23554  1.0000
  H   H193      1.0  0.54456  0.92248  0.27850  1.0000
  S   S54       1.0  0.52941  0.90267  0.19310  1.0000
  C   C124      1.0  0.57086  0.93216  0.26220  1.0000
  H   H194      1.0  0.38484  0.87427  0.08820  1.0000
  H   H195      1.0  0.56542  0.64857  0.33207  1.0000
  H   H196      1.0  0.43743  0.62508  0.33873  1.0000
  H   H197      1.0  0.52138  0.68029  0.57432  1.0000
  H   H198      1.0  0.54054  0.59814  0.49631  1.0000
  C   C125      1.0  0.47933  0.61062  0.54566  1.0000
  C   C126      1.0  0.54558  0.62382  0.51963  1.0000
  C   C127      1.0  0.52589  0.70066  0.33892  1.0000
  C   C128      1.0  0.54163  0.66147  0.34939  1.0000
  H   H199      1.0  0.48385  0.74815  0.35423  1.0000
  H   H200      1.0  0.46828  0.64035  0.53173  1.0000
  H   H201      1.0  0.42834  0.78442  0.41257  1.0000
  H   H202      1.0  0.47914  0.78229  0.43385  1.0000
  C   C129      1.0  0.45331  0.80335  0.42851  1.0000
  C   C130      1.0  0.52570  0.63814  0.38142  1.0000
  C   C131      1.0  0.49423  0.65416  0.40316  1.0000
  C   C132      1.0  0.47976  0.69426  0.39396  1.0000
  C   C133      1.0  0.49550  0.71748  0.36170  1.0000
  H   H203      1.0  0.45530  0.70648  0.41073  1.0000
  S   S55       1.0  0.47074  0.62296  0.43965  1.0000
  N   N14       1.0  0.44017  0.82186  0.46691  1.0000
  H   H204      1.0  0.45514  0.76666  0.50174  1.0000
  C   C134      1.0  0.42930  0.78735  0.49505  1.0000
  H   H205      1.0  0.40351  0.76706  0.48235  1.0000
  H   H206      1.0  0.41995  0.80039  0.52455  1.0000
  H   H207      1.0  0.50045  0.82998  0.49318  1.0000
  H   H208      1.0  0.37934  0.82894  0.44330  1.0000
  H   H209      1.0  0.46317  0.82857  0.40720  1.0000
  H   H210      1.0  0.53580  0.65379  0.50514  1.0000
  H   H211      1.0  0.53777  0.60771  0.38922  1.0000
  N   N15       1.0  0.52300  0.61440  0.55649  1.0000
  H   H212      1.0  0.57865  0.62733  0.52663  1.0000
  H   H213      1.0  0.58112  0.79133  0.56752  1.0000
  H   H214      1.0  0.46126  0.60364  0.57271  1.0000
  H   H215      1.0  0.46454  0.86378  0.51433  1.0000
  C   C135      1.0  0.40468  0.84796  0.45857  1.0000
  H   H216      1.0  0.34860  0.02125  0.56666  1.0000
  C   C136      1.0  0.34410  0.99875  0.54045  1.0000
  H   H217      1.0  0.41206  0.87510  0.43843  1.0000
  S   S56       1.0  0.40785  0.88769  0.57613  1.0000
  H   H218      1.0  0.39308  0.86116  0.48704  1.0000
  H   H219      1.0  0.34116  0.89908  0.39474  1.0000
  H   H220      1.0  0.48282  0.87488  0.46494  1.0000
  H   H221      1.0  0.35743  0.01415  0.51361  1.0000
  C   C137      1.0  0.35519  0.86161  0.34254  1.0000
  S   S57       1.0  0.40746  0.86601  0.35237  1.0000
  C   C138      1.0  0.47347  0.84881  0.48555  1.0000
  H   H222      1.0  0.36185  0.97036  0.54814  1.0000
  H   H223      1.0  0.33990  0.95660  0.16681  1.0000
  S   S58       1.0  0.40851  0.79200  0.61506  1.0000
  C   C139      1.0  0.52006  0.77971  0.64742  1.0000
  C   C140      1.0  0.53517  0.79602  0.61150  1.0000
  C   C141      1.0  0.53970  0.74686  0.66765  1.0000
  H   H224      1.0  0.52822  0.73475  0.69576  1.0000
  H   H225      1.0  0.49361  0.79291  0.66005  1.0000
  S   S59       1.0  0.37566  0.78096  0.72517  1.0000
  C   C142      1.0  0.56948  0.77885  0.59541  1.0000
  Fe  Fe29      1.0  0.38856  0.82267  0.67202  1.0000
  H   H226      1.0  0.35013  0.69545  0.69385  1.0000
  C   C143      1.0  0.53081  0.64915  0.58659  1.0000
  H   H227      1.0  0.51431  0.64326  0.61487  1.0000
  C   C144      1.0  0.34414  0.80675  0.75811  1.0000
  C   C145      1.0  0.57431  0.73011  0.65190  1.0000
  H   H228      1.0  0.56345  0.65271  0.59564  1.0000
  Fe  Fe30      1.0  0.36399  0.83308  0.58344  1.0000
  C   C146      1.0  0.34109  0.91798  0.92302  1.0000
  H   H229      1.0  0.34649  0.68524  0.61926  1.0000
  H   H230      1.0  0.36715  0.06513  0.67074  1.0000
  Fe  Fe31      1.0  0.45104  0.84846  0.61208  1.0000
  H   H231      1.0  0.39031  0.94223  0.72030  1.0000
  C   C147      1.0  0.37362  0.04521  0.69660  1.0000
  C   C148      1.0  0.37840  0.00151  0.69081  1.0000
  S   S60       1.0  0.43560  0.87594  0.67240  1.0000
  Fe  Fe32      1.0  0.38795  0.91033  0.63653  1.0000
  S   S61       1.0  0.37361  0.97955  0.64138  1.0000
  C   C149      1.0  0.37718  0.06329  0.73582  1.0000
  C   C150      1.0  0.38537  0.03771  0.76948  1.0000
  C   C151      1.0  0.38671  0.97595  0.72441  1.0000
  C   C152      1.0  0.39020  0.99402  0.76358  1.0000
  H   H232      1.0  0.39708  0.97406  0.78924  1.0000
  S   S62       1.0  0.38846  0.05907  0.81930  1.0000
  H   H233      1.0  0.34792  0.86665  0.72705  1.0000
  S   S63       1.0  0.51184  0.83831  0.58703  1.0000
  S   S64       1.0  0.33960  0.85896  0.64052  1.0000
  H   H234      1.0  0.36032  0.64143  0.83267  1.0000
  H   H235      1.0  0.38189  0.61099  0.90008  1.0000
  H   H236      1.0  0.34387  0.98373  0.84172  1.0000
  C   C153      1.0  0.34774  0.95378  0.85894  1.0000
  H   H237      1.0  0.37232  0.90645  0.92233  1.0000
  H   H238      1.0  0.39702  0.98184  0.92088  1.0000
  H   H239      1.0  0.35795  0.99671  0.95385  1.0000
  C   C154      1.0  0.36513  0.99144  0.92153  1.0000
  H   H240      1.0  0.36346  0.02253  0.90562  1.0000
  H   H241      1.0  0.37951  0.94448  0.85628  1.0000
  C   C155      1.0  0.35494  0.58886  0.89754  1.0000
  S   S65       1.0  0.81064  0.13717  0.25553  1.0000
  C   C156      1.0  0.80889  0.14978  0.30753  1.0000
  H   H242      1.0  0.79780  0.21587  0.29684  1.0000
  C   C157      1.0  0.80456  0.24222  0.20030  1.0000
  H   H243      1.0  0.78706  0.25650  0.22471  1.0000
  H   H244      1.0  0.78992  0.25046  0.17052  1.0000
  C   C158      1.0  0.80185  0.19159  0.31948  1.0000
  H   H245      1.0  0.80170  0.20708  0.20338  1.0000
  C   C159      1.0  0.70927  0.09396  0.31023  1.0000
  H   H246      1.0  0.72533  0.12250  0.29807  1.0000
  H   H247      1.0  0.63354  0.11921  0.29820  1.0000
  H   H248      1.0  0.66592  0.16416  0.31309  1.0000
  C   C160      1.0  0.65109  0.13443  0.32432  1.0000
  H   H249      1.0  0.83218  0.32074  0.21989  1.0000
  H   H250      1.0  0.83767  0.31256  0.16626  1.0000
  H   H251      1.0  0.83543  0.40020  0.09757  1.0000
  H   H252      1.0  0.81974  0.41229  0.29217  1.0000
  H   H253      1.0  0.72700  0.10617  0.38997  1.0000
  S   S66       1.0  0.83668  0.29971  0.45632  1.0000
  C   C161      1.0  0.81042  0.12882  0.37830  1.0000
  H   H254      1.0  0.81362  0.10444  0.40105  1.0000
  H   H255      1.0  0.72000  0.15651  0.36615  1.0000
  C   C162      1.0  0.70389  0.12698  0.37610  1.0000
  C   C163      1.0  0.80266  0.17045  0.39020  1.0000
  Fe  Fe33      1.0  0.72446  0.31356  0.48066  1.0000
  S   S67       1.0  0.76389  0.27024  0.51661  1.0000
  Fe  Fe34      1.0  0.78587  0.25042  0.45590  1.0000
  S   S68       1.0  0.79489  0.18144  0.44156  1.0000
  S   S69       1.0  0.74153  0.28877  0.42001  1.0000
  C   C164      1.0  0.79889  0.20198  0.36075  1.0000
  H   H256      1.0  0.79308  0.23422  0.36971  1.0000
  N   N16       1.0  0.68114  0.10549  0.34179  1.0000
  Fe  Fe35      1.0  0.81054  0.32317  0.51377  1.0000
  H   H257      1.0  0.68375  0.13623  0.40059  1.0000
  S   S70       1.0  0.66295  0.32783  0.50159  1.0000
  H   H258      1.0  0.62926  0.14372  0.34727  1.0000
  C   C165      1.0  0.81363  0.11855  0.33709  1.0000
  C   C166      1.0  0.83734  0.36875  0.33923  1.0000
  S   S71       1.0  0.83228  0.58413  0.41611  1.0000
  C   C167      1.0  0.69799  0.41397  0.56864  1.0000
  H   H259      1.0  0.74998  0.35016  0.56548  1.0000
  H   H260      1.0  0.71443  0.41302  0.53993  1.0000
  H   H261      1.0  0.69112  0.44771  0.57500  1.0000
  Fe  Fe36      1.0  0.79072  0.33970  0.42418  1.0000
  H   H262      1.0  0.68136  0.35451  0.42086  1.0000
  H   H263      1.0  0.66871  0.39607  0.56288  1.0000
  C   C168      1.0  0.72059  0.45706  0.36164  1.0000
  H   H264      1.0  0.69037  0.46103  0.34647  1.0000
  H   H265      1.0  0.77177  0.45192  0.42632  1.0000
  H   H266      1.0  0.59240  0.37763  0.50868  1.0000
  H   H267      1.0  0.74341  0.45779  0.33781  1.0000
  H   H268      1.0  0.73409  0.55839  0.39703  1.0000
  H   H269      1.0  0.69906  0.45593  0.43953  1.0000
  H   H270      1.0  0.77828  0.50814  0.43565  1.0000
  H   H271      1.0  0.66828  0.49178  0.41108  1.0000
  H   H272      1.0  0.64848  0.40480  0.37390  1.0000
  C   C169      1.0  0.63688  0.39969  0.40367  1.0000
  N   N17       1.0  0.72975  0.49022  0.39300  1.0000
  C   C170      1.0  0.63930  0.36297  0.46803  1.0000
  C   C171      1.0  0.69925  0.48745  0.42442  1.0000
  C   C172      1.0  0.72896  0.53257  0.37399  1.0000
  C   C173      1.0  0.77018  0.48373  0.41191  1.0000
  H   H273      1.0  0.79397  0.48557  0.38908  1.0000
  H   H274      1.0  0.75283  0.53660  0.35142  1.0000
  H   H275      1.0  0.78959  0.56282  0.48794  1.0000
  H   H276      1.0  0.72076  0.42468  0.37504  1.0000
  C   C174      1.0  0.65520  0.37089  0.43009  1.0000
  C   C175      1.0  0.60344  0.42173  0.41550  1.0000
  S   S72       1.0  0.79923  0.38352  0.37120  1.0000
  S   S73       1.0  0.76954  0.36800  0.48165  1.0000
  H   H277      1.0  0.69926  0.53777  0.35820  1.0000
  H   H278      1.0  0.70510  0.51228  0.44841  1.0000
  C   C176      1.0  0.60493  0.38388  0.47943  1.0000
  H   H279      1.0  0.62627  0.32196  0.80593  1.0000
  C   C177      1.0  0.59383  0.31790  0.80688  1.0000
  H   H280      1.0  0.59162  0.25597  0.77816  1.0000
  H   H281      1.0  0.79786  0.19625  0.67882  1.0000
  H   H282      1.0  0.78114  0.28066  0.71897  1.0000
  H   H283      1.0  0.76195  0.22931  0.73444  1.0000
  H   H284      1.0  0.78882  0.26382  0.77046  1.0000
  C   C178      1.0  0.78782  0.25270  0.73824  1.0000
  H   H285      1.0  0.70333  0.33141  0.58544  1.0000
  H   H286      1.0  0.81979  0.24655  0.66362  1.0000
  H   H287      1.0  0.80944  0.17226  0.75094  1.0000
  C   C179      1.0  0.82359  0.21941  0.68477  1.0000
  N   N18       1.0  0.82618  0.23382  0.72766  1.0000
  C   C180      1.0  0.83405  0.19718  0.75426  1.0000
  H   H288      1.0  0.83656  0.20702  0.78683  1.0000
  H   H289      1.0  0.74856  0.33628  0.61781  1.0000
  C   C181      1.0  0.73121  0.35135  0.59255  1.0000
  H   H290      1.0  0.77831  0.40814  0.63560  1.0000
  H   H291      1.0  0.80334  0.35052  0.82591  1.0000
  H   H292      1.0  0.75364  0.45468  0.61777  1.0000
  H   H293      1.0  0.68821  0.42844  0.64672  1.0000
  H   H294      1.0  0.71547  0.38462  0.66663  1.0000
  C   C182      1.0  0.69783  0.39586  0.63961  1.0000
  H   H295      1.0  0.77709  0.53790  0.67210  1.0000
  H   H296      1.0  0.66781  0.47434  0.70860  1.0000
  S   S74       1.0  0.69646  0.51990  0.63961  1.0000
  C   C183      1.0  0.76061  0.52001  0.69437  1.0000
  C   C184      1.0  0.69914  0.48384  0.71477  1.0000
  C   C185      1.0  0.72034  0.50712  0.68602  1.0000
  C   C186      1.0  0.77977  0.50923  0.73140  1.0000
  H   H297      1.0  0.81107  0.51876  0.73770  1.0000
  S   S75       1.0  0.70871  0.37466  0.81532  1.0000
  H   H298      1.0  0.70114  0.45706  0.77472  1.0000
  C   C187      1.0  0.75839  0.48648  0.76042  1.0000
  C   C188      1.0  0.71804  0.47389  0.75213  1.0000
  S   S76       1.0  0.78197  0.47545  0.80747  1.0000
  N   N19       1.0  0.72169  0.39557  0.60272  1.0000
  H   H299      1.0  0.66992  0.37528  0.63568  1.0000
  C   C189      1.0  0.75965  0.42106  0.61005  1.0000
  H   H300      1.0  0.74388  0.55763  0.81890  1.0000
  H   H301      1.0  0.79627  0.56738  0.83176  1.0000
  C   C190      1.0  0.76621  0.58199  0.83173  1.0000
  H   H302      1.0  0.75882  0.58765  0.86391  1.0000
  C   C191      1.0  0.82619  0.32830  0.83435  1.0000
  H   H303      1.0  0.83639  0.22781  0.86939  1.0000
  H   H304      1.0  0.59391  0.24927  0.97519  1.0000
  H   H305      1.0  0.82450  0.10551  0.93746  1.0000
  C   C192      1.0  0.81520  0.28837  0.84952  1.0000
  S   S77       1.0  0.76450  0.27608  0.85850  1.0000
  H   H306      1.0  0.80499  0.29839  0.01282  1.0000
  H   H307      1.0  0.61787  0.23394  0.90639  1.0000
  H   H308      1.0  0.59673  0.28213  0.88792  1.0000
  C   C193      1.0  0.80025  0.33008  0.02418  1.0000
  C   C194      1.0  0.58982  0.24779  0.89352  1.0000
  Fe  Fe37      1.0  0.66131  0.39125  0.85894  1.0000
  C   C195      1.0  0.77177  0.35542  0.00445  1.0000
  H   H309      1.0  0.78344  0.44397  0.06425  1.0000
  S   S78       1.0  0.69408  0.45064  0.88242  1.0000
  Fe  Fe38      1.0  0.72076  0.40757  0.92922  1.0000
  S   S79       1.0  0.59485  0.39574  0.84501  1.0000
  Fe  Fe39      1.0  0.74376  0.43044  0.84355  1.0000
  H   H310      1.0  0.75445  0.34318  0.97810  1.0000
  Fe  Fe40      1.0  0.73522  0.33848  0.86762  1.0000
  S   S80       1.0  0.73113  0.42894  0.99384  1.0000
  S   S81       1.0  0.68432  0.34929  0.90891  1.0000
  S   S82       1.0  0.77384  0.39315  0.89289  1.0000
  C   C196      1.0  0.76560  0.39646  0.01900  1.0000
  C   C197      1.0  0.78803  0.41214  0.05312  1.0000
  C   C198      1.0  0.82352  0.34627  0.05758  1.0000
  C   C199      1.0  0.81736  0.38729  0.07207  1.0000
  H   H311      1.0  0.77846  0.42117  0.58281  1.0000
  S   S83       1.0  0.82188  0.74683  0.29068  1.0000
  N   N20       1.0  0.63444  0.81365  0.26668  1.0000
  C   C200      1.0  0.65208  0.77158  0.27249  1.0000
  H   H312      1.0  0.62871  0.74720  0.28089  1.0000
  H   H313      1.0  0.67607  0.77255  0.29716  1.0000
  C   C201      1.0  0.61627  0.82708  0.30470  1.0000
  C   C202      1.0  0.60296  0.81083  0.23358  1.0000
  H   H314      1.0  0.66574  0.76020  0.24431  1.0000
  H   H315      1.0  0.61556  0.80158  0.20417  1.0000
  H   H316      1.0  0.77498  0.81951  0.27488  1.0000
  C   C203      1.0  0.80648  0.82966  0.27525  1.0000
  H   H317      1.0  0.59214  0.80392  0.31371  1.0000
  C   C204      1.0  0.83624  0.80042  0.28426  1.0000
  H   H318      1.0  0.79564  0.79427  0.17406  1.0000
  H   H319      1.0  0.78271  0.80476  0.12156  1.0000
  H   H320      1.0  0.68095  0.83595  0.22759  1.0000
  C   C205      1.0  0.80778  0.79605  0.14304  1.0000
  H   H321      1.0  0.81687  0.76352  0.13469  1.0000
  C   C206      1.0  0.66030  0.06651  0.35631  1.0000
  H   H322      1.0  0.80515  0.88095  0.13082  1.0000
  C   C207      1.0  0.82869  0.86978  0.15288  1.0000
  H   H323      1.0  0.81571  0.86990  0.18341  1.0000
  C   C208      1.0  0.82408  0.96275  0.09369  1.0000
  C   C209      1.0  0.60510  0.94966  0.28344  1.0000
  H   H324      1.0  0.60237  0.85854  0.30129  1.0000
  H   H325      1.0  0.69032  0.84874  0.28056  1.0000
  C   C210      1.0  0.66635  0.84513  0.25599  1.0000
  H   H326      1.0  0.65380  0.87701  0.25096  1.0000
  C   C211      1.0  0.81736  0.87198  0.26667  1.0000
  S   S84       1.0  0.79261  0.01545  0.28243  1.0000
  Fe  Fe41      1.0  0.76795  0.01137  0.16661  1.0000
  S   S85       1.0  0.76163  0.95336  0.20523  1.0000
  Fe  Fe42      1.0  0.73411  0.99695  0.24969  1.0000
  S   S86       1.0  0.68268  0.98129  0.28976  1.0000
  S   S87       1.0  0.73443  0.05301  0.20829  1.0000
  S   S88       1.0  0.75387  0.00512  0.09943  1.0000
  C   C212      1.0  0.63906  0.96292  0.26241  1.0000
  C   C213      1.0  0.63846  0.95963  0.22005  1.0000
  H   H327      1.0  0.66455  0.97001  0.20360  1.0000
  H   H328      1.0  0.79422  0.89438  0.26023  1.0000
  C   C214      1.0  0.60414  0.94219  0.19883  1.0000
  Fe  Fe43      1.0  0.82042  0.97723  0.23424  1.0000
  H   H329      1.0  0.60388  0.93915  0.16607  1.0000
  Fe  Fe44      1.0  0.79517  0.06888  0.23811  1.0000
  S   S89       1.0  0.82898  0.03250  0.19254  1.0000
  H   H330      1.0  0.73254  0.07236  0.32242  1.0000
  H   H331      1.0  0.83305  0.97664  0.12288  1.0000
  H   H332      1.0  0.68225  0.04331  0.36833  1.0000
  H   H333      1.0  0.64221  0.04998  0.33124  1.0000
  H   H334      1.0  0.60537  0.95251  0.31619  1.0000
  H   H335      1.0  0.69308  0.07707  0.28422  1.0000
  H   H336      1.0  0.82017  0.08657  0.32836  1.0000
  H   H337      1.0  0.73561  0.59920  0.52263  1.0000
  S   S90       1.0  0.69973  0.68026  0.50732  1.0000
  H   H338      1.0  0.80372  0.75226  0.53554  1.0000
  C   C215      1.0  0.73214  0.64989  0.47932  1.0000
  C   C216      1.0  0.79188  0.60770  0.43893  1.0000
  Fe  Fe45      1.0  0.70103  0.66242  0.57301  1.0000
  C   C217      1.0  0.77525  0.64403  0.42205  1.0000
  C   C218      1.0  0.80866  0.71988  0.52337  1.0000
  H   H339      1.0  0.80261  0.72054  0.48988  1.0000
  H   H340      1.0  0.78540  0.69801  0.53618  1.0000
  H   H341      1.0  0.63916  0.82980  0.33031  1.0000
  C   C219      1.0  0.77699  0.59104  0.47483  1.0000
  H   H342      1.0  0.78537  0.65598  0.39340  1.0000
  C   C220      1.0  0.74700  0.61208  0.49493  1.0000
  H   H343      1.0  0.73352  0.69403  0.42974  1.0000
  C   C221      1.0  0.74544  0.66516  0.44226  1.0000
  H   H344      1.0  0.83285  0.63962  0.52839  1.0000
  H   H345      1.0  0.63948  0.07368  0.38086  1.0000
  H   H346      1.0  0.58836  0.84177  0.22890  1.0000
  S   S91       1.0  0.75082  0.62631  0.60305  1.0000
  Fe  Fe46      1.0  0.65519  0.66950  0.64971  1.0000
  S   S92       1.0  0.70094  0.71292  0.62147  1.0000
  S   S93       1.0  0.80340  0.70216  0.68259  1.0000
  S   S94       1.0  0.65097  0.62263  0.59825  1.0000
  Fe  Fe47      1.0  0.74633  0.67317  0.65396  1.0000
  S   S95       1.0  0.70061  0.63393  0.68687  1.0000
  C   C222      1.0  0.75622  0.73425  0.74104  1.0000
  H   H347      1.0  0.73109  0.71774  0.72515  1.0000
  C   C223      1.0  0.75002  0.75737  0.77669  1.0000
  C   C224      1.0  0.79501  0.73228  0.72627  1.0000
  H   H348      1.0  0.72019  0.75831  0.78852  1.0000
  C   C225      1.0  0.78232  0.77956  0.79700  1.0000
  H   H349      1.0  0.61537  0.73257  0.60289  1.0000
  Fe  Fe48      1.0  0.70059  0.59054  0.63267  1.0000
  C   C226      1.0  0.82110  0.77748  0.78228  1.0000
  H   H350      1.0  0.79583  0.68335  0.80878  1.0000
  S   S96       1.0  0.59972  0.69098  0.67907  1.0000
  H   H351      1.0  0.65307  0.79993  0.66103  1.0000
  H   H352      1.0  0.77759  0.64161  0.74709  1.0000
  N   N21       1.0  0.76570  0.62159  0.80790  1.0000
  H   H353      1.0  0.71117  0.81054  0.71203  1.0000
  C   C227      1.0  0.64063  0.77835  0.73763  1.0000
  H   H354      1.0  0.65796  0.75451  0.72113  1.0000
  C   C228      1.0  0.77650  0.61232  0.76577  1.0000
  H   H355      1.0  0.72322  0.66833  0.78966  1.0000
  H   H356      1.0  0.64873  0.77572  0.77060  1.0000
  H   H357      1.0  0.60809  0.76871  0.73315  1.0000
  C   C229      1.0  0.82746  0.75367  0.74705  1.0000
  C   C230      1.0  0.63715  0.82376  0.67903  1.0000
  H   H358      1.0  0.60417  0.81706  0.67372  1.0000
  N   N22       1.0  0.64893  0.82185  0.72272  1.0000
  H   H359      1.0  0.80662  0.59804  0.76478  1.0000
  C   C231      1.0  0.69246  0.83300  0.72868  1.0000
  H   H360      1.0  0.70241  0.83211  0.76140  1.0000
  C   C232      1.0  0.72482  0.63867  0.80764  1.0000
  H   H361      1.0  0.70190  0.61545  0.79394  1.0000
  C   C233      1.0  0.79518  0.65323  0.82630  1.0000
  H   H362      1.0  0.82630  0.64116  0.82710  1.0000
  H   H363      1.0  0.75414  0.58957  0.75062  1.0000
  H   H364      1.0  0.83401  0.68204  0.59228  1.0000
  H   H365      1.0  0.59232  0.84446  0.74187  1.0000
  H   H366      1.0  0.64407  0.85570  0.66627  1.0000
  H   H367      1.0  0.69988  0.86556  0.71763  1.0000
  H   H368      1.0  0.63051  0.88535  0.73480  1.0000
  C   C234      1.0  0.62532  0.85222  0.74553  1.0000
  H   H369      1.0  0.63360  0.85180  0.77864  1.0000
  H   H370      1.0  0.71572  0.64619  0.83896  1.0000
  S   S97       1.0  0.77326  0.80961  0.84055  1.0000
  H   H371      1.0  0.78779  0.66143  0.85801  1.0000
  C   C235      1.0  0.58891  0.74568  0.61546  1.0000
  H   H372      1.0  0.83406  0.83749  0.07750  1.0000
  H   H373      1.0  0.82066  0.03017  0.02360  1.0000
  H   H374      1.0  0.79269  0.91264  0.98863  1.0000
  Fe  Fe49      1.0  0.82715  0.84889  0.86556  1.0000
  C   C236      1.0  0.77524  0.95311  0.03756  1.0000
  H   H375      1.0  0.78699  0.99592  0.96183  1.0000
  H   H376      1.0  0.80016  0.01365  0.91239  1.0000
  H   H377      1.0  0.80531  0.08088  0.00584  1.0000
  C   C237      1.0  0.79689  0.02429  0.94442  1.0000
  C   C238      1.0  0.80179  0.92709  0.01758  1.0000
  S   S98       1.0  0.81705  0.90632  0.90437  1.0000
  H   H378      1.0  0.74592  0.95916  0.02367  1.0000
  C   C239      1.0  0.82948  0.05743  0.00417  1.0000
  C   C240      1.0  0.78638  0.97097  0.07565  1.0000
  H   H379      1.0  0.77216  0.04717  0.94450  1.0000
  N   N23       1.0  0.83513  0.04354  0.96188  1.0000
  H   H380      1.0  0.89776  0.25798  0.24618  1.0000
  C   C241      1.0  0.89752  0.32995  0.32721  1.0000
  H   H381      1.0  0.07038  0.15149  0.21380  1.0000
  C   C242      1.0  0.86534  0.24741  0.24347  1.0000
  H   H382      1.0  0.90203  0.24712  0.17237  1.0000
  H   H383      1.0  0.86349  0.21267  0.24947  1.0000
  H   H384      1.0  0.07274  0.19495  0.24973  1.0000
  S   S99       1.0  0.95712  0.32458  0.14867  1.0000
  H   H385      1.0  0.85716  0.24367  0.14021  1.0000
  N   N24       1.0  0.84726  0.25734  0.20303  1.0000
  C   C243      1.0  0.90868  0.53196  0.33976  1.0000
  H   H386      1.0  0.84991  0.26380  0.26820  1.0000
  H   H387      1.0  0.86837  0.20111  0.17466  1.0000
  H   H388      1.0  0.88135  0.31604  0.20029  1.0000
  C   C244      1.0  0.86968  0.23628  0.17117  1.0000
  C   C245      1.0  0.84959  0.30375  0.19707  1.0000
  H   H389      1.0  0.88914  0.58304  0.18447  1.0000
  S   S100      1.0  0.94419  0.34112  0.26191  1.0000
  S   S101      1.0  0.94909  0.40654  0.08783  1.0000
  C   C246      1.0  0.84127  0.38907  0.30188  1.0000
  C   C247      1.0  0.91807  0.57636  0.19889  1.0000
  C   C248      1.0  0.08511  0.34596  0.17657  1.0000
  C   C249      1.0  0.90204  0.35099  0.29037  1.0000
  H   H390      1.0  0.93012  0.45291  0.27397  1.0000
  H   H391      1.0  0.98322  0.52324  0.31321  1.0000
  H   H392      1.0  0.05650  0.35639  0.18663  1.0000
  Fe  Fe50      1.0  0.90785  0.35750  0.11481  1.0000
  Fe  Fe51      1.0  0.94544  0.36937  0.19954  1.0000
  S   S102      1.0  0.05574  0.36029  0.09892  1.0000
  S   S103      1.0  0.99082  0.41924  0.18084  1.0000
  Fe  Fe52      1.0  0.99760  0.37692  0.12648  1.0000
  Fe  Fe53      1.0  0.93883  0.44486  0.14404  1.0000
  S   S104      1.0  0.92127  0.51303  0.14216  1.0000
  S   S105      1.0  0.89270  0.39845  0.16737  1.0000
  C   C250      1.0  0.99300  0.55959  0.23585  1.0000
  C   C251      1.0  0.94078  0.54368  0.18362  1.0000
  C   C252      1.0  0.97842  0.53553  0.20197  1.0000
  H   H393      1.0  0.02215  0.55316  0.24990  1.0000
  H   H394      1.0  0.99659  0.51117  0.18963  1.0000
  C   C253      1.0  0.87355  0.38013  0.27745  1.0000
  H   H395      1.0  0.87685  0.39664  0.24924  1.0000
  C   C254      1.0  0.91544  0.48197  0.28472  1.0000
  H   H396      1.0  0.92457  0.50832  0.26437  1.0000
  H   H397      1.0  0.88224  0.47668  0.28016  1.0000
  C   C255      1.0  0.97145  0.49692  0.33228  1.0000
  H   H398      1.0  0.98631  0.46743  0.32294  1.0000
  H   H399      1.0  0.91931  0.55897  0.32086  1.0000
  N   N25       1.0  0.92705  0.49195  0.32764  1.0000
  H   H400      1.0  0.87518  0.52965  0.33620  1.0000
  H   H401      1.0  0.91941  0.30726  0.33730  1.0000
  H   H402      1.0  0.86230  0.32272  0.38006  1.0000
  H   H403      1.0  0.85395  0.25920  0.55369  1.0000
  H   H404      1.0  0.04232  0.33032  0.55907  1.0000
  H   H405      1.0  0.07452  0.28587  0.56439  1.0000
  C   C256      1.0  0.86511  0.33866  0.35149  1.0000
  H   H406      1.0  0.91651  0.54043  0.37207  1.0000
  H   H407      1.0  0.98140  0.50449  0.36426  1.0000
  H   H408      1.0  0.87922  0.45316  0.35190  1.0000
  H   H409      1.0  0.92509  0.42609  0.34467  1.0000
  C   C257      1.0  0.91271  0.45702  0.35376  1.0000
  S   S106      1.0  0.84323  0.34813  0.57082  1.0000
  H   H410      1.0  0.92182  0.46299  0.38623  1.0000
  C   C258      1.0  0.87125  0.26790  0.58127  1.0000
  C   C259      1.0  0.06595  0.31602  0.57906  1.0000
  Fe  Fe54      1.0  0.97545  0.22432  0.72307  1.0000
  S   S107      1.0  0.94133  0.20802  0.66420  1.0000
  S   S108      1.0  0.03153  0.18985  0.74023  1.0000
  C   C260      1.0  0.91642  0.28988  0.65257  1.0000
  S   S109      1.0  0.00247  0.28860  0.73966  1.0000
  H   H411      1.0  0.93362  0.29859  0.68012  1.0000
  C   C261      1.0  0.91570  0.24799  0.63797  1.0000
  S   S110      1.0  0.94704  0.21320  0.78280  1.0000
  Fe  Fe55      1.0  0.05632  0.25348  0.76246  1.0000
  Fe  Fe56      1.0  0.00545  0.18410  0.80164  1.0000
  Fe  Fe57      1.0  0.97879  0.27475  0.80117  1.0000
  C   C262      1.0  0.89424  0.32062  0.63170  1.0000
  N   N26       1.0  0.05140  0.30844  0.62027  1.0000
  C   C263      1.0  0.87155  0.30963  0.59608  1.0000
  H   H412      1.0  0.93607  0.12260  0.79075  1.0000
  H   H413      1.0  0.86258  0.27731  0.76546  1.0000
  H   H414      1.0  0.86281  0.18218  0.74699  1.0000
  C   C264      1.0  0.89329  0.23718  0.60219  1.0000
  C   C265      1.0  0.85946  0.26603  0.73342  1.0000
  H   H415      1.0  0.88880  0.25288  0.72558  1.0000
  H   H416      1.0  0.02259  0.24775  0.60425  1.0000
  H   H417      1.0  0.89272  0.20484  0.59068  1.0000
  C   C266      1.0  0.08363  0.28949  0.64573  1.0000
  H   H418      1.0  0.99036  0.29224  0.59921  1.0000
  H   H419      1.0  0.91519  0.43277  0.92012  1.0000
  H   H420      1.0  0.85152  0.20342  0.67645  1.0000
  H   H421      1.0  0.85457  0.29437  0.71410  1.0000
  C   C267      1.0  0.93452  0.09813  0.81345  1.0000
  H   H422      1.0  0.07334  0.28253  0.67680  1.0000
  H   H423      1.0  0.00421  0.27243  0.64849  1.0000
  C   C268      1.0  0.01563  0.27900  0.61782  1.0000
  S   S111      1.0  0.03491  0.24509  0.82557  1.0000
  H   H424      1.0  0.06663  0.37251  0.64024  1.0000
  C   C269      1.0  0.04043  0.34927  0.63852  1.0000
  H   H425      1.0  0.03013  0.34493  0.66999  1.0000
  C   C270      1.0  0.86683  0.33969  0.82968  1.0000
  H   H426      1.0  0.07273  0.34430  0.73933  1.0000
  H   H427      1.0  0.89456  0.35295  0.64320  1.0000
  H   H428      1.0  0.87514  0.37095  0.81855  1.0000
  H   H429      1.0  0.01559  0.36407  0.62058  1.0000
  S   S112      1.0  0.94716  0.32578  0.83328  1.0000
  C   C271      1.0  0.89656  0.31057  0.83872  1.0000
  H   H430      1.0  0.87671  0.09532  0.94890  1.0000
  C   C272      1.0  0.96716  0.09275  0.84087  1.0000
  S   S113      1.0  0.86249  0.31637  0.07871  1.0000
  S   S114      1.0  0.01142  0.12469  0.83870  1.0000
  C   C273      1.0  0.88559  0.26980  0.85209  1.0000
  H   H431      1.0  0.90861  0.24728  0.85929  1.0000
  H   H432      1.0  0.88800  0.31748  0.92891  1.0000
  H   H433      1.0  0.87467  0.32080  0.98116  1.0000
  C   C274      1.0  0.84484  0.25880  0.85780  1.0000
  H   H434      1.0  0.88193  0.39085  0.01786  1.0000
  H   H435      1.0  0.91352  0.38266  0.89394  1.0000
  C   C275      1.0  0.87513  0.33846  0.95201  1.0000
  H   H436      1.0  0.94178  0.35308  0.99943  1.0000
  H   H437      1.0  0.84321  0.34370  0.94209  1.0000
  H   H438      1.0  0.84820  0.41152  0.97952  1.0000
  C   C276      1.0  0.94070  0.37035  0.97001  1.0000
  H   H439      1.0  0.95548  0.35043  0.94723  1.0000
  H   H440      1.0  0.95935  0.40028  0.97444  1.0000
  H   H441      1.0  0.89661  0.43753  0.99089  1.0000
  C   C277      1.0  0.89866  0.40143  0.91744  1.0000
  C   C278      1.0  0.88054  0.40597  0.98749  1.0000
  H   H442      1.0  0.86736  0.40708  0.90577  1.0000
  N   N27       1.0  0.89875  0.37908  0.95672  1.0000
  S   S115      1.0  0.98627  0.61781  0.29693  1.0000
  H   H443      1.0  0.91447  0.62485  0.24492  1.0000
  H   H444      1.0  0.90008  0.79140  0.29176  1.0000
  Fe  Fe58      1.0  0.86676  0.70895  0.32668  1.0000
  S   S116      1.0  0.86976  0.63837  0.31707  1.0000
  C   C279      1.0  0.05622  0.78883  0.31811  1.0000
  H   H445      1.0  0.02271  0.78988  0.31751  1.0000
  C   C280      1.0  0.93226  0.59983  0.23327  1.0000
  Fe  Fe59      1.0  0.93653  0.64961  0.32823  1.0000
  S   S117      1.0  0.93398  0.72042  0.33150  1.0000
  H   H446      1.0  0.06613  0.79511  0.28680  1.0000
  C   C281      1.0  0.87694  0.81380  0.28525  1.0000
  C   C282      1.0  0.96957  0.59118  0.25201  1.0000
  H   H447      1.0  0.06483  0.71692  0.27464  1.0000
  C   C283      1.0  0.85768  0.82814  0.10036  1.0000
  N   N28       1.0  0.07026  0.74767  0.33337  1.0000
  H   H448      1.0  0.86825  0.79660  0.09084  1.0000
  C   C284      1.0  0.05425  0.71296  0.30604  1.0000
  C   C285      1.0  0.87451  0.81454  0.17090  1.0000
  H   H449      1.0  0.90027  0.83828  0.17219  1.0000
  H   H450      1.0  0.86321  0.81182  0.20207  1.0000
  H   H451      1.0  0.88637  0.78312  0.16275  1.0000
  H   H452      1.0  0.02065  0.71172  0.30406  1.0000
  H   H453      1.0  0.06363  0.68126  0.31693  1.0000
  H   H454      1.0  0.85417  0.89387  0.15384  1.0000
  C   C286      1.0  0.85806  0.88473  0.26536  1.0000
  H   H455      1.0  0.88020  0.93161  0.08735  1.0000
  C   C287      1.0  0.91769  0.02545  0.32509  1.0000
  S   S118      1.0  0.87234  0.93561  0.24859  1.0000
  C   C288      1.0  0.88785  0.85582  0.27528  1.0000
  H   H456      1.0  0.91938  0.86558  0.27423  1.0000
  H   H457      1.0  0.94777  0.97096  0.27200  1.0000
  H   H458      1.0  0.98398  0.01378  0.28243  1.0000
  H   H459      1.0  0.99334  0.96138  0.30050  1.0000
  C   C289      1.0  0.96950  0.98485  0.29546  1.0000
  H   H460      1.0  0.93040  0.05554  0.31249  1.0000
  H   H461      1.0  0.89445  0.01230  0.30251  1.0000
  H   H462      1.0  0.88357  0.85144  0.09819  1.0000
  H   H463      1.0  0.90877  0.93986  0.32775  1.0000
  N   N29       1.0  0.94946  0.99462  0.33352  1.0000
  H   H464      1.0  0.06837  0.81575  0.33767  1.0000
  H   H465      1.0  0.06542  0.70969  0.38714  1.0000
  H   H466      1.0  0.85046  0.66317  0.48265  1.0000
  H   H467      1.0  0.87714  0.76895  0.52936  1.0000
  H   H468      1.0  0.87573  0.73841  0.48308  1.0000
  H   H469      1.0  0.88577  0.65180  0.52338  1.0000
  N   N30       1.0  0.84986  0.70607  0.53374  1.0000
  S   S119      1.0  0.85936  0.70487  0.39391  1.0000
  C   C290      1.0  0.87972  0.73634  0.51674  1.0000
  H   H470      1.0  0.91123  0.72658  0.52331  1.0000
  C   C291      1.0  0.05569  0.74058  0.37466  1.0000
  H   H471      1.0  0.92898  0.79690  0.37745  1.0000
  S   S120      1.0  0.93489  0.64047  0.39546  1.0000
  Fe  Fe60      1.0  0.92661  0.71057  0.39819  1.0000
  C   C292      1.0  0.97751  0.79737  0.42288  1.0000
  H   H472      1.0  0.02898  0.80710  0.46439  1.0000
  S   S121      1.0  0.95990  0.75074  0.44602  1.0000
  C   C293      1.0  0.95750  0.81172  0.38777  1.0000
  C   C294      1.0  0.01352  0.81800  0.43707  1.0000
  Fe  Fe61      1.0  0.86792  0.63519  0.38471  1.0000
  H   H473      1.0  0.02213  0.74017  0.37482  1.0000
  C   C295      1.0  0.85498  0.66328  0.51634  1.0000
  H   H474      1.0  0.06727  0.76611  0.39613  1.0000
  C   C296      1.0  0.85599  0.70470  0.57844  1.0000
  H   H475      1.0  0.99446  0.04253  0.35237  1.0000
  H   H476      1.0  0.95944  0.85504  0.33776  1.0000
  C   C297      1.0  0.97972  0.01281  0.36362  1.0000
  H   H477      1.0  0.95415  0.93164  0.35726  1.0000
  C   C298      1.0  0.93099  0.95525  0.34992  1.0000
  H   H478      1.0  0.96585  0.02037  0.39286  1.0000
  S   S122      1.0  0.03384  0.90284  0.34774  1.0000
  C   C299      1.0  0.01142  0.86440  0.37860  1.0000
  H   H479      1.0  0.91505  0.96153  0.37826  1.0000
  H   H480      1.0  0.05898  0.86668  0.42522  1.0000
  H   H481      1.0  0.90189  0.03363  0.35309  1.0000
  C   C300      1.0  0.97448  0.84507  0.36561  1.0000
  H   H482      1.0  0.00408  0.99007  0.37038  1.0000
  C   C301      1.0  0.03066  0.85143  0.41474  1.0000
  N   N31       1.0  0.84218  0.82715  0.14177  1.0000
  H   H483      1.0  0.85756  0.75201  0.73585  1.0000
  H   H484      1.0  0.84627  0.79402  0.79812  1.0000
  H   H485      1.0  0.88682  0.69458  0.58749  1.0000
  H   H486      1.0  0.85192  0.73635  0.59272  1.0000
  H   H487      1.0  0.01612  0.03005  0.80571  1.0000
  H   H488      1.0  0.96557  0.92238  0.80777  1.0000
  C   C302      1.0  0.97811  0.95423  0.81786  1.0000
  H   H489      1.0  0.95730  0.97844  0.80568  1.0000
  H   H490      1.0  0.03561  0.89673  0.81043  1.0000
  H   H491      1.0  0.06640  0.01118  0.80889  1.0000
  S   S123      1.0  0.87058  0.88320  0.82576  1.0000
  C   C303      1.0  0.01932  0.95985  0.75939  1.0000
  H   H492      1.0  0.00763  0.92820  0.74781  1.0000
  C   C304      1.0  0.03503  0.00439  0.81832  1.0000
  N   N32       1.0  0.01961  0.96191  0.80423  1.0000
  H   H493      1.0  0.99977  0.98434  0.74559  1.0000
  H   H494      1.0  0.05019  0.96525  0.74803  1.0000
  C   C305      1.0  0.04590  0.92906  0.82133  1.0000
  H   H495      1.0  0.87497  0.07511  0.79333  1.0000
  C   C306      1.0  0.90012  0.07097  0.81470  1.0000
  H   H496      1.0  0.07774  0.93426  0.81266  1.0000
  H   H497      1.0  0.04068  0.69515  0.90047  1.0000
  H   H498      1.0  0.05344  0.74780  0.91945  1.0000
  H   H499      1.0  0.04429  0.70545  0.95434  1.0000
  C   C307      1.0  0.05799  0.71334  0.92493  1.0000
  S   S124      1.0  0.87519  0.82319  0.90769  1.0000
  H   H500      1.0  0.06127  0.82705  0.84250  1.0000
  C   C308      1.0  0.05560  0.83411  0.87390  1.0000
  C   C309      1.0  0.08786  0.83697  0.90277  1.0000
  C   C310      1.0  0.83967  0.91929  0.03552  1.0000
  C   C311      1.0  0.08082  0.84595  0.94345  1.0000
  C   C312      1.0  0.04137  0.85265  0.95498  1.0000
  H   H501      1.0  0.03573  0.85960  0.98642  1.0000
  C   C313      1.0  0.00914  0.85056  0.92597  1.0000
  H   H502      1.0  0.97882  0.85587  0.93515  1.0000
  H   H503      1.0  0.03527  0.00724  0.85203  1.0000
  H   H504      1.0  0.85906  0.98378  0.98044  1.0000
  H   H505      1.0  0.85116  0.07129  0.90508  1.0000
  Fe  Fe62      1.0  0.91805  0.86231  0.87102  1.0000
  H   H506      1.0  0.04572  0.92869  0.85515  1.0000
  C   C314      1.0  0.96530  0.06017  0.86947  1.0000
  H   H507      1.0  0.93033  0.00758  0.89234  1.0000
  C   C315      1.0  0.93124  0.03258  0.87025  1.0000
  H   H508      1.0  0.97729  0.95519  0.85157  1.0000
  C   C316      1.0  0.86677  0.01175  0.96147  1.0000
  H   H509      1.0  0.85770  0.07232  0.01816  1.0000
  S   S125      1.0  0.91597  0.92060  0.91007  1.0000
  H   H510      1.0  0.87064  0.99958  0.93021  1.0000
  H   H511      1.0  0.89647  0.02533  0.97315  1.0000
  H   H512      1.0  0.99039  0.05619  0.89097  1.0000
  Fe  Fe63      1.0  0.86479  0.93842  0.86808  1.0000
  S   S126      1.0  0.97676  0.84019  0.84823  1.0000
  C   C317      1.0  0.01625  0.84135  0.88538  1.0000
  C   C318      1.0  0.84741  0.08059  0.93734  1.0000
  S   S127      1.0  0.87361  0.88686  0.01162  1.0000
  Fe  Fe64      1.0  0.86875  0.88365  0.94325  1.0000
  S   S128      1.0  0.85547  0.00392  0.84333  1.0000
  C   C319      1.0  0.89866  0.03778  0.84271  1.0000
  C   C320      1.0  0.85073  0.93716  0.07357  1.0000
