data_image0
_chemical_formula_structural       FeCHS2HC7H5CHCH2C3H2C2H2SH3NH5C3HFe2S2FeSFeS3C2H2SH3CH6C2HCSCFeS2FeSFeSHS3FeSH2CH2SCH6C6H5CH4NC3HCHFeH2SHNC4H2CH7C2H8C2H6CHC4NCHFe2HCSHSH2CNCHSCFeS2Fe2SHSFeSFeS2CHCH2C6HCH6CS2CH3CSCSH2C3H2CHCNHCSCH2CH2C2H2NH2CH2FeCH3CH6CHCSH3SFeSH3C6H8CH2CHC2H7FeNH4CH2C2NCH2FeS2Fe2SFeCS2C2H4NHCS2H3C2H3CHC3HSHNC2HSHCHC2HC2H5CH4CSH2CHCHC6H2SH4CNSH2SHCHC3HCH7FeH2SC2HCHS2HSH3Fe2S2Fe2C2HCHNH6C2H3CSH2CHFeSFe2S2FeS2FeSFeHS2C6H4SH2CH6C3H3CN2HCH2NHCSCH7C4FeHCH3C2H7NSCH2SC2H3C3HSCH4C2H2CNH2C4H4C3HC2H2SFeS2FeS2FeSFeS2C2HCHCH3CH2C2H3C7H5SC2H3CH5CHFeC4NH9CNHCH3NH5C3H4FeHSFeSC2HSHCHCHC7H3C4H4NH2SCH4CHC2FeHSHC2H2SHCSC2H5NH2NHCH2CH3SHSCFeS2FeSFe2S2C3H5C2HCHCH2CH3SH2CHSFeSNHSH3C6FeCH8C3HFeH2SHNSHC2HCHSH3SHNFeHSHFeS3CFeS2CFeH3SC6H9NC4H6CH5C2H2CHCH2CHCHCHC3HSFeS2FeS2FeSFeS3C2H2C6H4C3H3CH5CHNCNC2H2SFeH4C3HCNH4CHCH3CH8CHFeHSH2C2SHFeS2FeS2FeSFeS3H2CH3CHCH2C6H4CH3CSHCH3CH3FeH3SH3CHNC4H2NHCHNCH2CH2CFeC2HCH2CH4CHSH2FeSH4C5H9SCSCSH3FeH2CSHCSHS2FeSHSCHCFeHN2HC6H4C4HFeHCH5CNCH3C3H2CH2CSH2C2HFeCSHCH4C4H3SHCH3NH2C2HSC3SH3NCFeSCS4CH7C7H5C2HFeSHSHFe2H2CNCHCH2CHC2H7C2HCHCH4SHCFeHFeSHFeSHSFeS2FeS2FeSFeS2CHC2HC3H5CHC8H5CHSHNC4H7CH6NH2SCH9CH2CH2CNCHCH5SFeSCHFeS2FeS2FeSFeS3CHC2H3NHC7H5CHCHC3H6CHCH2CHCHC2H2SCH4SFeHC2NFeS2HC2HCH3C2HC2H4CH2CNH3SHS2FeCFeS2FeSC2HSCSH3C6H5CH3C2NHCHFeHCH2CHFeCSH2SH2NH9CH2C
_chemical_formula_sum              "Fe96 C480 H768 S192 N48"
_cell_length_a       46.1875
_cell_length_b       46.1229
_cell_length_c       46.6072
_cell_angle_alpha    86.0868
_cell_angle_beta     86.7026
_cell_angle_gamma    86.2357

_space_group_name_H-M_alt    "P 1"
_space_group_IT_number       1

loop_
  _space_group_symop_operation_xyz
  'x, y, z'

loop_
  _atom_site_type_symbol
  _atom_site_label
  _atom_site_symmetry_multiplicity
  _atom_site_fract_x
  _atom_site_fract_y
  _atom_site_fract_z
  _atom_site_occupancy
  Fe  Fe1       1.0  0.18671  0.34034  0.22927  1.0000
  C   C1        1.0  0.28374  0.31976  0.09937  1.0000
  H   H1        1.0  0.29401  0.13636  0.23167  1.0000
  S   S1        1.0  0.20725  0.31422  0.19315  1.0000
  S   S2        1.0  0.15749  0.38157  0.22634  1.0000
  H   H2        1.0  0.30662  0.34205  0.20591  1.0000
  C   C2        1.0  0.34252  0.19391  0.00777  1.0000
  C   C3        1.0  0.24552  0.30915  0.19155  1.0000
  C   C4        1.0  0.25887  0.28383  0.18040  1.0000
  C   C5        1.0  0.28930  0.27920  0.17900  1.0000
  C   C6        1.0  0.33321  0.30175  0.10631  1.0000
  C   C7        1.0  0.29336  0.32560  0.19899  1.0000
  C   C8        1.0  0.26291  0.33010  0.20069  1.0000
  H   H3        1.0  0.24557  0.26755  0.17322  1.0000
  H   H4        1.0  0.29909  0.25923  0.17128  1.0000
  H   H5        1.0  0.31680  0.25461  0.08248  1.0000
  H   H6        1.0  0.25297  0.35017  0.20832  1.0000
  H   H7        1.0  0.04281  0.31314  0.20228  1.0000
  C   C9        1.0  0.03838  0.32562  0.22106  1.0000
  H   H8        1.0  0.29781  0.30850  0.04407  1.0000
  C   C10       1.0  0.30672  0.30014  0.18816  1.0000
  H   H9        1.0  0.35211  0.28762  0.09862  1.0000
  H   H10       1.0  0.34046  0.32428  0.10620  1.0000
  C   C11       1.0  0.31628  0.30935  0.05824  1.0000
  C   C12       1.0  0.29879  0.27005  0.08997  1.0000
  C   C13       1.0  0.06159  0.33657  0.23443  1.0000
  H   H11       1.0  0.33448  0.29479  0.04954  1.0000
  H   H12       1.0  0.32794  0.29447  0.12908  1.0000
  C   C14       1.0  0.00956  0.33098  0.23162  1.0000
  C   C15       1.0  0.33745  0.15058  0.22394  1.0000
  H   H13       1.0  0.27728  0.31352  0.12228  1.0000
  H   H14       1.0  0.08369  0.33265  0.22590  1.0000
  S   S3        1.0  0.33344  0.15862  0.18669  1.0000
  H   H15       1.0  0.28020  0.26799  0.07624  1.0000
  H   H16       1.0  0.27193  0.22630  0.21210  1.0000
  H   H17       1.0  0.29185  0.26260  0.11239  1.0000
  N   N1        1.0  0.30799  0.30024  0.08846  1.0000
  H   H18       1.0  0.02006  0.43602  0.22837  1.0000
  H   H19       1.0  0.02168  0.39879  0.21910  1.0000
  H   H20       1.0  0.32364  0.33192  0.05626  1.0000
  H   H21       1.0  0.26996  0.19103  0.23063  1.0000
  H   H22       1.0  0.28257  0.26912  0.23988  1.0000
  C   C16       1.0  0.36352  0.15465  0.23653  1.0000
  C   C17       1.0  0.28070  0.21197  0.23014  1.0000
  C   C18       1.0  0.31413  0.13989  0.24132  1.0000
  H   H23       1.0  0.26416  0.31899  0.08667  1.0000
  Fe  Fe2       1.0  0.36720  0.25592  0.16574  1.0000
  Fe  Fe3       1.0  0.42278  0.21614  0.15592  1.0000
  S   S4        1.0  0.39942  0.18654  0.12973  1.0000
  S   S5        1.0  0.46982  0.20102  0.16369  1.0000
  Fe  Fe4       1.0  0.37978  0.22794  0.10833  1.0000
  S   S6        1.0  0.37860  0.24595  0.06159  1.0000
  Fe  Fe5       1.0  0.36330  0.19118  0.16428  1.0000
  S   S7        1.0  0.40496  0.25727  0.13301  1.0000
  S   S8        1.0  0.38771  0.21808  0.19163  1.0000
  S   S9        1.0  0.34507  0.29536  0.18624  1.0000
  C   C19       1.0  0.36532  0.23128  0.03124  1.0000
  C   C20       1.0  0.35227  0.20468  0.03288  1.0000
  H   H24       1.0  0.38187  0.16217  0.22330  1.0000
  H   H25       1.0  0.47569  0.26289  0.14813  1.0000
  S   S10       1.0  0.34124  0.22922  0.13983  1.0000
  H   H26       1.0  0.34975  0.19238  0.05340  1.0000
  H   H27       1.0  0.28985  0.34276  0.09848  1.0000
  H   H28       1.0  0.23519  0.24749  0.24631  1.0000
  C   C21       1.0  0.00664  0.41728  0.22587  1.0000
  H   H29       1.0  0.01069  0.45298  0.17786  1.0000
  H   H30       1.0  0.01309  0.41568  0.16845  1.0000
  H   H31       1.0  0.30427  0.20711  0.22469  1.0000
  H   H32       1.0  0.31506  0.24888  0.25070  1.0000
  H   H33       1.0  0.33252  0.17325  0.00909  1.0000
  H   H34       1.0  0.44590  0.18601  0.00807  1.0000
  C   C22       1.0  0.99797  0.43348  0.17659  1.0000
  C   C23       1.0  0.36823  0.24711  0.00451  1.0000
  H   H35       1.0  0.99681  0.41078  0.24754  1.0000
  C   C24       1.0  0.35880  0.05002  0.36044  1.0000
  S   S11       1.0  0.26558  0.11060  0.34072  1.0000
  C   C25       1.0  0.34289  0.13782  0.28361  1.0000
  Fe  Fe6       1.0  0.28595  0.14002  0.41327  1.0000
  S   S12       1.0  0.24223  0.12391  0.40687  1.0000
  S   S13       1.0  0.29862  0.15891  0.45416  1.0000
  Fe  Fe7       1.0  0.26678  0.08718  0.38469  1.0000
  S   S14       1.0  0.26035  0.04025  0.40043  1.0000
  Fe  Fe8       1.0  0.24592  0.14912  0.36386  1.0000
  S   S15       1.0  0.20914  0.17823  0.34588  1.0000
  H   H36       1.0  0.30493  0.04441  0.31478  1.0000
  S   S16       1.0  0.28823  0.16745  0.37146  1.0000
  S   S17       1.0  0.15943  0.37955  0.29745  1.0000
  S   S18       1.0  0.08409  0.36854  0.27529  1.0000
  Fe  Fe9       1.0  0.18798  0.33839  0.29431  1.0000
  S   S19       1.0  0.21336  0.31580  0.33050  1.0000
  H   H37       1.0  0.21958  0.39886  0.34406  1.0000
  H   H38       1.0  0.22692  0.17288  0.44257  1.0000
  C   C26       1.0  0.02728  0.35764  0.26951  1.0000
  H   H39       1.0  0.28927  0.26337  0.27735  1.0000
  H   H40       1.0  0.24209  0.19925  0.48331  1.0000
  S   S20       1.0  0.31047  0.10199  0.39389  1.0000
  C   C27       1.0  0.15954  0.47228  0.27872  1.0000
  H   H41       1.0  0.28408  0.21519  0.30256  1.0000
  H   H42       1.0  0.21435  0.19277  0.41058  1.0000
  H   H43       1.0  0.36786  0.06337  0.30395  1.0000
  H   H44       1.0  0.25623  0.03149  0.33898  1.0000
  H   H45       1.0  0.25900  0.40130  0.27227  1.0000
  H   H46       1.0  0.24034  0.24359  0.28425  1.0000
  C   C28       1.0  0.21141  0.21632  0.34108  1.0000
  C   C29       1.0  0.23418  0.23041  0.35158  1.0000
  C   C30       1.0  0.23467  0.26093  0.34818  1.0000
  C   C31       1.0  0.21263  0.27752  0.33392  1.0000
  C   C32       1.0  0.19013  0.26340  0.32310  1.0000
  C   C33       1.0  0.18945  0.23295  0.32681  1.0000
  H   H47       1.0  0.25113  0.21794  0.36272  1.0000
  H   H48       1.0  0.25218  0.27172  0.35658  1.0000
  H   H49       1.0  0.17279  0.27594  0.31247  1.0000
  H   H50       1.0  0.17169  0.22226  0.31872  1.0000
  H   H51       1.0  0.25639  0.35761  0.30581  1.0000
  C   C34       1.0  0.25997  0.01053  0.35048  1.0000
  H   H52       1.0  0.14850  0.45219  0.28040  1.0000
  H   H53       1.0  0.24614  0.12904  0.47166  1.0000
  H   H54       1.0  0.31092  0.19977  0.27743  1.0000
  H   H55       1.0  0.29862  0.12563  0.28426  1.0000
  N   N2        1.0  0.25981  0.40122  0.31840  1.0000
  C   C35       1.0  0.26686  0.36948  0.32203  1.0000
  C   C36       1.0  0.27451  0.41614  0.34000  1.0000
  C   C37       1.0  0.26971  0.41211  0.28913  1.0000
  H   H56       1.0  0.25892  0.36029  0.34356  1.0000
  C   C38       1.0  0.18821  0.47254  0.26742  1.0000
  H   H57       1.0  0.29854  0.41220  0.33757  1.0000
  Fe  Fe10      1.0  0.30788  0.12758  0.35128  1.0000
  H   H58       1.0  0.26950  0.44012  0.33782  1.0000
  H   H59       1.0  0.29359  0.40817  0.28525  1.0000
  S   S21       1.0  0.34752  0.12928  0.32063  1.0000
  H   H60       1.0  0.26681  0.21817  0.45903  1.0000
  N   N3        1.0  0.22305  0.21922  0.44515  1.0000
  C   C39       1.0  0.22924  0.19318  0.42855  1.0000
  C   C40       1.0  0.22595  0.24565  0.42567  1.0000
  C   C41       1.0  0.24392  0.21886  0.46811  1.0000
  C   C42       1.0  0.19313  0.21896  0.45821  1.0000
  H   H61       1.0  0.25188  0.19231  0.41900  1.0000
  H   H62       1.0  0.02293  0.37008  0.28832  1.0000
  C   C43       1.0  0.31672  0.13382  0.27112  1.0000
  H   H63       1.0  0.21032  0.24659  0.40821  1.0000
  H   H64       1.0  0.27595  0.18486  0.28304  1.0000
  H   H65       1.0  0.01007  0.24322  0.28715  1.0000
  H   H66       1.0  0.29067  0.36409  0.31957  1.0000
  H   H67       1.0  0.38521  0.02816  0.31295  1.0000
  H   H68       1.0  0.21646  0.39648  0.30627  1.0000
  H   H69       1.0  0.35363  0.03137  0.29171  1.0000
  C   C44       1.0  0.33967  0.00665  0.34463  1.0000
  C   C45       1.0  0.22806  0.40717  0.32242  1.0000
  H   H70       1.0  0.26422  0.43592  0.28543  1.0000
  H   H71       1.0  0.18761  0.23837  0.47087  1.0000
  H   H72       1.0  0.26747  0.40840  0.36231  1.0000
  H   H73       1.0  0.24818  0.24617  0.41511  1.0000
  H   H74       1.0  0.17691  0.21889  0.44142  1.0000
  H   H75       1.0  0.22178  0.43090  0.31967  1.0000
  H   H76       1.0  0.38670  0.15096  0.27560  1.0000
  H   H77       1.0  0.30231  0.05348  0.35178  1.0000
  C   C46       1.0  0.26210  0.00890  0.38039  1.0000
  C   C47       1.0  0.25600  0.13490  0.49074  1.0000
  H   H78       1.0  0.19031  0.19923  0.47305  1.0000
  H   H79       1.0  0.34530  0.04792  0.38099  1.0000
  H   H80       1.0  0.24031  0.23836  0.48094  1.0000
  H   H81       1.0  0.36206  0.07364  0.35558  1.0000
  H   H82       1.0  0.31977  0.07691  0.32474  1.0000
  H   H83       1.0  0.22171  0.26581  0.43744  1.0000
  C   C48       1.0  0.28726  0.20556  0.28126  1.0000
  H   H84       1.0  0.38044  0.03888  0.36431  1.0000
  C   C49       1.0  0.28225  0.14854  0.48826  1.0000
  C   C50       1.0  0.31670  0.05377  0.33179  1.0000
  C   C51       1.0  0.36629  0.14806  0.26617  1.0000
  C   C52       1.0  0.36374  0.04011  0.31016  1.0000
  N   N4        1.0  0.34478  0.03757  0.33674  1.0000
  C   C53       1.0  0.05608  0.35280  0.25862  1.0000
  H   H85       1.0  0.32867  0.99665  0.32745  1.0000
  Fe  Fe11      1.0  0.18560  0.39747  0.25910  1.0000
  Fe  Fe12      1.0  0.13266  0.36101  0.26481  1.0000
  H   H86       1.0  0.32531  0.00432  0.36464  1.0000
  C   C54       1.0  0.00408  0.34689  0.25603  1.0000
  S   S22       1.0  0.15939  0.31826  0.26487  1.0000
  H   H87       1.0  0.00177  0.27395  0.30865  1.0000
  S   S23       1.0  0.21649  0.35787  0.25877  1.0000
  H   H88       1.0  0.00420  0.27903  0.27010  1.0000
  H   H89       1.0  0.23220  0.21258  0.26567  1.0000
  C   C55       1.0  0.24456  0.23262  0.26375  1.0000
  N   N5        1.0  0.27599  0.22576  0.25790  1.0000
  C   C56       1.0  0.29144  0.25294  0.25644  1.0000
  H   H90       1.0  0.36035  0.99363  0.34859  1.0000
  S   S24       1.0  0.20711  0.44063  0.25568  1.0000
  C   C57       1.0  0.99673  0.26412  0.28850  1.0000
  Fe  Fe13      1.0  0.14924  0.30970  0.72650  1.0000
  S   S25       1.0  0.15615  0.28042  0.68948  1.0000
  S   S26       1.0  0.12196  0.35184  0.72345  1.0000
  Fe  Fe14      1.0  0.28989  0.14604  0.67007  1.0000
  Fe  Fe15      1.0  0.25302  0.12822  0.62164  1.0000
  S   S27       1.0  0.22968  0.09625  0.65205  1.0000
  H   H91       1.0  0.23189  0.02794  0.67102  1.0000
  S   S28       1.0  0.27003  0.11420  0.70243  1.0000
  Fe  Fe16      1.0  0.27402  0.08285  0.66732  1.0000
  S   S29       1.0  0.29379  0.03635  0.67217  1.0000
  Fe  Fe17      1.0  0.22810  0.13105  0.68383  1.0000
  S   S30       1.0  0.19386  0.14721  0.71641  1.0000
  S   S31       1.0  0.24762  0.16394  0.65238  1.0000
  C   C58       1.0  0.25474  0.13642  0.54314  1.0000
  H   H92       1.0  0.25337  0.23382  0.63825  1.0000
  C   C59       1.0  0.28136  0.14940  0.54078  1.0000
  H   H93       1.0  0.26168  0.00001  0.60490  1.0000
  H   H94       1.0  0.29905  0.04894  0.58135  1.0000
  C   C60       1.0  0.18156  0.18377  0.70911  1.0000
  C   C61       1.0  0.17610  0.20221  0.73179  1.0000
  C   C62       1.0  0.16806  0.23191  0.72609  1.0000
  C   C63       1.0  0.16475  0.24310  0.69770  1.0000
  C   C64       1.0  0.16951  0.22446  0.67513  1.0000
  C   C65       1.0  0.17803  0.19492  0.68078  1.0000
  H   H95       1.0  0.29126  0.15504  0.55996  1.0000
  C   C66       1.0  0.00806  0.30519  0.74133  1.0000
  H   H96       1.0  0.16678  0.23294  0.65316  1.0000
  H   H97       1.0  0.18174  0.18073  0.66321  1.0000
  H   H98       1.0  0.28237  0.00103  0.57113  1.0000
  H   H99       1.0  0.24863  0.07237  0.54390  1.0000
  H   H100      1.0  0.22156  0.28268  0.69353  1.0000
  H   H101      1.0  0.28773  0.22677  0.65416  1.0000
  C   C67       1.0  0.24392  0.00770  0.66644  1.0000
  S   S32       1.0  0.18776  0.33011  0.74192  1.0000
  S   S33       1.0  0.16682  0.41631  0.72291  1.0000
  C   C68       1.0  0.25375  0.04849  0.54715  1.0000
  H   H102      1.0  0.22011  0.07071  0.59026  1.0000
  H   H103      1.0  0.27763  0.04880  0.61469  1.0000
  H   H104      1.0  0.32394  0.12689  0.72374  1.0000
  C   C69       1.0  0.26962  0.24362  0.65081  1.0000
  S   S34       1.0  0.23585  0.12923  0.57670  1.0000
  C   C70       1.0  0.33657  0.19618  0.73766  1.0000
  S   S35       1.0  0.29768  0.11351  0.63579  1.0000
  H   H105      1.0  0.07677  0.42543  0.74461  1.0000
  H   H106      1.0  0.26958  0.27339  0.71557  1.0000
  C   C71       1.0  0.27426  0.00609  0.66559  1.0000
  C   C72       1.0  0.17497  0.44575  0.74269  1.0000
  C   C73       1.0  0.22577  0.04685  0.59253  1.0000
  H   H107      1.0  0.20811  0.03574  0.58333  1.0000
  H   H108      1.0  0.24006  0.29489  0.66039  1.0000
  C   C74       1.0  0.24210  0.12935  0.51801  1.0000
  H   H109      1.0  0.22554  0.04048  0.61600  1.0000
  C   C75       1.0  0.23242  0.27529  0.67308  1.0000
  N   N6        1.0  0.25652  0.25322  0.67855  1.0000
  H   H110      1.0  0.33649  0.21793  0.72744  1.0000
  C   C76       1.0  0.29484  0.15581  0.51337  1.0000
  S   S36       1.0  0.31731  0.17989  0.68656  1.0000
  C   C77       1.0  0.26094  0.00752  0.58173  1.0000
  H   H111      1.0  0.27311  0.07858  0.58833  1.0000
  H   H112      1.0  0.27852  0.26208  0.63722  1.0000
  C   C78       1.0  0.27705  0.05453  0.59117  1.0000
  H   H113      1.0  0.28795  0.28495  0.68216  1.0000
  H   H114      1.0  0.22983  0.21682  0.68348  1.0000
  C   C79       1.0  0.27881  0.26587  0.69457  1.0000
  C   C80       1.0  0.32919  0.14500  0.73557  1.0000
  H   H115      1.0  0.27511  0.04357  0.53563  1.0000
  H   H116      1.0  0.16433  0.24609  0.74364  1.0000
  N   N7        1.0  0.25438  0.03932  0.57814  1.0000
  H   H117      1.0  0.23698  0.03743  0.53649  1.0000
  H   H118      1.0  0.22143  0.11942  0.51965  1.0000
  C   C81       1.0  0.32843  0.17311  0.72226  1.0000
  H   H119      1.0  0.15975  0.47788  0.71029  1.0000
  H   H120      1.0  0.21528  0.26643  0.66090  1.0000
  Fe  Fe18      1.0  0.15871  0.37131  0.74333  1.0000
  C   C82       1.0  0.16907  0.47433  0.73112  1.0000
  H   H121      1.0  0.26291  0.21141  0.70156  1.0000
  H   H122      1.0  0.29724  0.24960  0.69898  1.0000
  H   H123      1.0  0.23316  0.23456  0.71583  1.0000
  C   C83       1.0  0.24519  0.22794  0.69575  1.0000
  H   H124      1.0  0.01089  0.28734  0.72730  1.0000
  H   H125      1.0  0.10828  0.44665  0.73904  1.0000
  H   H126      1.0  0.05424  0.30814  0.74504  1.0000
  H   H127      1.0  0.24415  0.99531  0.57237  1.0000
  H   H128      1.0  0.31512  0.16646  0.51161  1.0000
  H   H129      1.0  0.23931  0.18969  0.75246  1.0000
  C   C84       1.0  0.03268  0.31694  0.75134  1.0000
  H   H130      1.0  0.17833  0.19354  0.75375  1.0000
  C   C85       1.0  0.18725  0.44132  0.76948  1.0000
  S   S37       1.0  0.14154  0.36166  0.78875  1.0000
  H   H131      1.0  0.38997  0.29485  0.84175  1.0000
  H   H132      1.0  0.19206  0.41939  0.77846  1.0000
  H   H133      1.0  0.38836  0.33371  0.83852  1.0000
  S   S38       1.0  0.05966  0.35453  0.78348  1.0000
  Fe  Fe19      1.0  0.16741  0.31865  0.78580  1.0000
  S   S39       1.0  0.19183  0.29361  0.82133  1.0000
  H   H134      1.0  0.13150  0.43251  0.79817  1.0000
  H   H135      1.0  0.39975  0.17418  0.98901  1.0000
  H   H136      1.0  0.12799  0.46847  0.78097  1.0000
  C   C86       1.0  0.22980  0.29456  0.82300  1.0000
  C   C87       1.0  0.24369  0.27765  0.84496  1.0000
  C   C88       1.0  0.27395  0.27732  0.84682  1.0000
  C   C89       1.0  0.29058  0.29412  0.82684  1.0000
  C   C90       1.0  0.27671  0.31122  0.80495  1.0000
  C   C91       1.0  0.24640  0.31131  0.80291  1.0000
  H   H137      1.0  0.23093  0.26494  0.86079  1.0000
  H   H138      1.0  0.28425  0.26465  0.86418  1.0000
  H   H139      1.0  0.28942  0.32444  0.78956  1.0000
  H   H140      1.0  0.23585  0.32461  0.78606  1.0000
  H   H141      1.0  0.05375  0.41753  0.79334  1.0000
  H   H142      1.0  0.39500  0.31334  0.80704  1.0000
  H   H143      1.0  0.42676  0.29410  0.87721  1.0000
  H   H144      1.0  0.08780  0.40348  0.80655  1.0000
  C   C92       1.0  0.02934  0.33973  0.76975  1.0000
  H   H145      1.0  0.46762  0.33916  0.82122  1.0000
  H   H146      1.0  0.22181  0.22795  0.81966  1.0000
  C   C93       1.0  0.45437  0.17363  0.93686  1.0000
  H   H147      1.0  0.43348  0.35954  0.82708  1.0000
  C   C94       1.0  0.19403  0.46536  0.78431  1.0000
  C   C95       1.0  0.22222  0.21171  0.80298  1.0000
  H   H148      1.0  0.46103  0.15000  0.93915  1.0000
  H   H149      1.0  0.46408  0.15519  0.99168  1.0000
  H   H150      1.0  0.44077  0.17725  0.91786  1.0000
  H   H151      1.0  0.21032  0.19281  0.81242  1.0000
  H   H152      1.0  0.20959  0.22209  0.78494  1.0000
  H   H153      1.0  0.47740  0.19085  0.98412  1.0000
  H   H154      1.0  0.46971  0.28527  0.82448  1.0000
  Fe  Fe20      1.0  0.10593  0.34014  0.76869  1.0000
  N   N8        1.0  0.25231  0.20273  0.79315  1.0000
  H   H155      1.0  0.28955  0.22254  0.77246  1.0000
  H   H156      1.0  0.29128  0.18296  0.81133  1.0000
  H   H157      1.0  0.24122  0.16106  0.78020  1.0000
  H   H158      1.0  0.47428  0.18576  0.93154  1.0000
  C   C96       1.0  0.25175  0.18102  0.77126  1.0000
  H   H159      1.0  0.20406  0.46176  0.80477  1.0000
  H   H160      1.0  0.42714  0.33300  0.87455  1.0000
  C   C97       1.0  0.48626  0.23195  0.86930  1.0000
  C   C98       1.0  0.43011  0.21506  0.95897  1.0000
  N   N9        1.0  0.08931  0.44484  0.78241  1.0000
  C   C99       1.0  0.34504  0.19116  0.76627  1.0000
  H   H161      1.0  0.25812  0.17011  0.82799  1.0000
  H   H162      1.0  0.44930  0.22796  0.95276  1.0000
  Fe  Fe21      1.0  0.40792  0.22678  0.87172  1.0000
  S   S40       1.0  0.38867  0.18407  0.88435  1.0000
  S   S41       1.0  0.45180  0.23614  0.88757  1.0000
  Fe  Fe22      1.0  0.34936  0.25430  0.85251  1.0000
  Fe  Fe23      1.0  0.35189  0.21083  0.90490  1.0000
  S   S42       1.0  0.33555  0.19435  0.94954  1.0000
  Fe  Fe24      1.0  0.36463  0.19140  0.84350  1.0000
  C   C100      1.0  0.11631  0.45211  0.79509  1.0000
  S   S43       1.0  0.37192  0.25341  0.89405  1.0000
  S   S44       1.0  0.38730  0.23180  0.82883  1.0000
  C   C101      1.0  0.34617  0.20942  0.98089  1.0000
  C   C102      1.0  0.35889  0.23617  0.97942  1.0000
  H   H163      1.0  0.43735  0.26662  0.83327  1.0000
  H   H164      1.0  0.26841  0.24491  0.79677  1.0000
  H   H165      1.0  0.44207  0.28570  0.79869  1.0000
  H   H166      1.0  0.11090  0.41143  0.75752  1.0000
  N   N10       1.0  0.43156  0.31312  0.83393  1.0000
  H   H167      1.0  0.47079  0.21891  0.82970  1.0000
  C   C103      1.0  0.48958  0.22381  0.84089  1.0000
  S   S45       1.0  0.13002  0.29608  0.77023  1.0000
  S   S46       1.0  0.35661  0.15528  0.81511  1.0000
  H   H168      1.0  0.39699  0.17100  0.95120  1.0000
  H   H169      1.0  0.41955  0.22369  0.97894  1.0000
  H   H170      1.0  0.33864  0.11803  0.77392  1.0000
  C   C104      1.0  0.34583  0.16293  0.77946  1.0000
  C   C105      1.0  0.07045  0.47167  0.77752  1.0000
  H   H171      1.0  0.99847  0.36853  0.79208  1.0000
  H   H172      1.0  0.44028  0.33983  0.79519  1.0000
  H   H173      1.0  0.25501  0.23949  0.76243  1.0000
  C   C106      1.0  0.07403  0.42393  0.80237  1.0000
  H   H174      1.0  0.41738  0.14346  0.97202  1.0000
  C   C107      1.0  0.43671  0.31286  0.86497  1.0000
  C   C108      1.0  0.00119  0.35094  0.77776  1.0000
  C   C109      1.0  0.39995  0.31387  0.83009  1.0000
  H   H175      1.0  0.06805  0.43312  0.82351  1.0000
  S   S47       1.0  0.32863  0.29402  0.82893  1.0000
  H   H176      1.0  0.35136  0.20900  0.77795  1.0000
  N   N11       1.0  0.43848  0.18365  0.96318  1.0000
  C   C110      1.0  0.44378  0.33908  0.81868  1.0000
  C   C111      1.0  0.26697  0.22852  0.78054  1.0000
  H   H177      1.0  0.11184  0.46143  0.81641  1.0000
  S   S48       1.0  0.32587  0.21402  0.86521  1.0000
  H   H178      1.0  0.36146  0.24848  0.95896  1.0000
  C   C112      1.0  0.41207  0.16731  0.96911  1.0000
  H   H179      1.0  0.41454  0.21942  0.94156  1.0000
  C   C113      1.0  0.44580  0.28659  0.82199  1.0000
  C   C114      1.0  0.45734  0.17869  0.98784  1.0000
  H   H180      1.0  0.46036  0.31082  0.86885  1.0000
  C   C115      1.0  0.33784  0.13996  0.76398  1.0000
  C   C116      1.0  0.26837  0.18976  0.81793  1.0000
  H   H181      1.0  0.26912  0.20553  0.83491  1.0000
  H   H182      1.0  0.37811  0.26782  0.00313  1.0000
  H   H183      1.0  0.27411  0.17403  0.76309  1.0000
  H   H184      1.0  0.06475  0.48237  0.79797  1.0000
  H   H185      1.0  0.08142  0.48781  0.76243  1.0000
  C   C117      1.0  0.09654  0.43161  0.75467  1.0000
  H   H186      1.0  0.04980  0.46697  0.76807  1.0000
  H   H187      1.0  0.18620  0.60100  0.15996  1.0000
  H   H188      1.0  0.18075  0.53534  0.15312  1.0000
  H   H189      1.0  0.32448  0.72919  0.23006  1.0000
  C   C118      1.0  0.39488  0.74540  0.01591  1.0000
  S   S49       1.0  0.19859  0.65158  0.19440  1.0000
  H   H190      1.0  0.45684  0.73041  0.04846  1.0000
  H   H191      1.0  0.21400  0.55360  0.15295  1.0000
  C   C119      1.0  0.19719  0.54267  0.16715  1.0000
  H   H192      1.0  0.28628  0.73847  0.23423  1.0000
  C   C120      1.0  0.38301  0.73569  0.04307  1.0000
  H   H193      1.0  0.21712  0.55233  0.21861  1.0000
  C   C121      1.0  0.29785  0.65267  0.18805  1.0000
  C   C122      1.0  0.28111  0.67217  0.17051  1.0000
  C   C123      1.0  0.25059  0.67188  0.17265  1.0000
  C   C124      1.0  0.23672  0.65285  0.19300  1.0000
  C   C125      1.0  0.25352  0.63400  0.21109  1.0000
  C   C126      1.0  0.28395  0.63355  0.20824  1.0000
  H   H194      1.0  0.29167  0.68684  0.15473  1.0000
  H   H195      1.0  0.23773  0.68640  0.15846  1.0000
  S   S50       1.0  0.40164  0.68706  0.13956  1.0000
  H   H196      1.0  0.29683  0.61832  0.22175  1.0000
  H   H197      1.0  0.35039  0.71010  0.06537  1.0000
  H   H198      1.0  0.29937  0.70651  0.21622  1.0000
  H   H199      1.0  0.17085  0.52652  0.21736  1.0000
  C   C127      1.0  0.47631  0.75721  0.09205  1.0000
  N   N12       1.0  0.18369  0.56241  0.18850  1.0000
  S   S51       1.0  0.34368  0.73186  0.14691  1.0000
  H   H200      1.0  0.03382  0.61851  0.21960  1.0000
  H   H201      1.0  0.26780  0.67708  0.24955  1.0000
  S   S52       1.0  0.34132  0.78761  0.20360  1.0000
  H   H202      1.0  0.15305  0.58271  0.15900  1.0000
  C   C128      1.0  0.16989  0.58850  0.17337  1.0000
  H   H203      1.0  0.44354  0.71041  0.09690  1.0000
  C   C129      1.0  0.34023  0.78615  0.24145  1.0000
  C   C130      1.0  0.03003  0.63347  0.23652  1.0000
  C   C131      1.0  0.20630  0.57137  0.20666  1.0000
  H   H204      1.0  0.47336  0.68353  0.09676  1.0000
  C   C132      1.0  0.16148  0.54714  0.20681  1.0000
  H   H205      1.0  0.45300  0.76312  0.08836  1.0000
  H   H206      1.0  0.15925  0.60374  0.18886  1.0000
  H   H207      1.0  0.14331  0.54136  0.19406  1.0000
  H   H208      1.0  0.22339  0.58301  0.19349  1.0000
  H   H209      1.0  0.32104  0.66366  0.24416  1.0000
  H   H210      1.0  0.20799  0.52284  0.17790  1.0000
  H   H211      1.0  0.41283  0.75944  0.01455  1.0000
  Fe  Fe25      1.0  0.17749  0.64422  0.23881  1.0000
  H   H212      1.0  0.15202  0.56079  0.22428  1.0000
  H   H213      1.0  0.24318  0.61913  0.22671  1.0000
  S   S53       1.0  0.13480  0.62375  0.24750  1.0000
  C   C133      1.0  0.05351  0.64698  0.24658  1.0000
  C   C134      1.0  0.34821  0.70974  0.01911  1.0000
  H   H214      1.0  0.33418  0.87691  0.22796  1.0000
  C   C135      1.0  0.35971  0.71769  0.04459  1.0000
  H   H215      1.0  0.29534  0.80201  0.24467  1.0000
  S   S54       1.0  0.38258  0.71036  0.20318  1.0000
  S   S55       1.0  0.33611  0.65096  0.18525  1.0000
  H   H216      1.0  0.46877  0.70839  0.12479  1.0000
  S   S56       1.0  0.39778  0.74714  0.07432  1.0000
  H   H217      1.0  0.47729  0.75449  0.16905  1.0000
  H   H218      1.0  0.33000  0.69600  0.02045  1.0000
  H   H219      1.0  0.19691  0.58656  0.22274  1.0000
  Fe  Fe26      1.0  0.36100  0.68978  0.16851  1.0000
  Fe  Fe27      1.0  0.42194  0.71146  0.17251  1.0000
  S   S57       1.0  0.40887  0.75565  0.15249  1.0000
  S   S58       1.0  0.46669  0.69400  0.18573  1.0000
  Fe  Fe28      1.0  0.36753  0.75235  0.18030  1.0000
  Fe  Fe29      1.0  0.38632  0.73126  0.12075  1.0000
  C   C136      1.0  0.46689  0.70647  0.10134  1.0000
  C   C137      1.0  0.30294  0.71992  0.23453  1.0000
  H   H220      1.0  0.07510  0.64268  0.23712  1.0000
  C   C138      1.0  0.00172  0.63891  0.24835  1.0000
  H   H221      1.0  0.38480  0.77026  0.24535  1.0000
  N   N13       1.0  0.48482  0.72727  0.08397  1.0000
  H   H222      1.0  0.10919  0.76771  0.24629  1.0000
  H   H223      1.0  0.31277  0.92100  0.25180  1.0000
  H   H224      1.0  0.48580  0.70264  0.04637  1.0000
  H   H225      1.0  0.48939  0.77353  0.07940  1.0000
  H   H226      1.0  0.31182  0.85589  0.25300  1.0000
  H   H227      1.0  0.47929  0.75963  0.11521  1.0000
  C   C139      1.0  0.48010  0.72507  0.05311  1.0000
  C   C140      1.0  0.33336  0.86546  0.24977  1.0000
  H   H228      1.0  0.49333  0.74041  0.03929  1.0000
  H   H229      1.0  0.36659  0.91146  0.24556  1.0000
  H   H230      1.0  0.35026  0.84706  0.24958  1.0000
  C   C141      1.0  0.28158  0.84773  0.49490  1.0000
  S   S59       1.0  0.14165  0.63686  0.31568  1.0000
  H   H231      1.0  0.35587  0.85146  0.30165  1.0000
  H   H232      1.0  0.29411  0.80594  0.29741  1.0000
  C   C142      1.0  0.33784  0.86872  0.30080  1.0000
  H   H233      1.0  0.25961  0.98619  0.31250  1.0000
  Fe  Fe30      1.0  0.18346  0.65682  0.30056  1.0000
  S   S60       1.0  0.21734  0.67766  0.32414  1.0000
  Fe  Fe31      1.0  0.15539  0.60127  0.28608  1.0000
  Fe  Fe32      1.0  0.26817  0.88230  0.35786  1.0000
  S   S61       1.0  0.30911  0.86637  0.37882  1.0000
  S   S62       1.0  0.26696  0.92544  0.33138  1.0000
  Fe  Fe33      1.0  0.23857  0.82585  0.37709  1.0000
  S   S63       1.0  0.27747  0.80633  0.39994  1.0000
  S   S64       1.0  0.19770  0.80131  0.37703  1.0000
  Fe  Fe34      1.0  0.27976  0.85094  0.41627  1.0000
  S   S65       1.0  0.28520  0.86669  0.46074  1.0000
  Fe  Fe35      1.0  0.30249  0.82368  0.36022  1.0000
  H   H234      1.0  0.26712  0.97998  0.41835  1.0000
  S   S66       1.0  0.23892  0.86942  0.39600  1.0000
  S   S67       1.0  0.26337  0.84066  0.33659  1.0000
  C   C143      1.0  0.21101  0.71249  0.33768  1.0000
  C   C144      1.0  0.18316  0.72310  0.34681  1.0000
  C   C145      1.0  0.17923  0.75029  0.35906  1.0000
  C   C146      1.0  0.20301  0.76726  0.36162  1.0000
  C   C147      1.0  0.23076  0.75677  0.35212  1.0000
  C   C148      1.0  0.23476  0.72935  0.34054  1.0000
  H   H235      1.0  0.16494  0.70979  0.34546  1.0000
  H   H236      1.0  0.15784  0.75810  0.36687  1.0000
  H   H237      1.0  0.24928  0.76954  0.35414  1.0000
  H   H238      1.0  0.25640  0.72108  0.33401  1.0000
  S   S68       1.0  0.16377  0.68310  0.26368  1.0000
  H   H239      1.0  0.08825  0.73247  0.31771  1.0000
  H   H240      1.0  0.15650  0.77251  0.30736  1.0000
  C   C149      1.0  0.18781  0.52460  0.27456  1.0000
  H   H241      1.0  0.08941  0.59498  0.32041  1.0000
  H   H242      1.0  0.07686  0.78451  0.30245  1.0000
  H   H243      1.0  0.02761  0.59798  0.34889  1.0000
  H   H244      1.0  0.03130  0.58092  0.27206  1.0000
  H   H245      1.0  0.01668  0.68730  0.29679  1.0000
  H   H246      1.0  0.18435  0.78050  0.48803  1.0000
  C   C150      1.0  0.26509  0.95740  0.35050  1.0000
  C   C151      1.0  0.26718  0.95583  0.38036  1.0000
  C   C152      1.0  0.07010  0.59861  0.30707  1.0000
  H   H247      1.0  0.32872  0.73017  0.28289  1.0000
  H   H248      1.0  0.26981  0.93484  0.39211  1.0000
  H   H249      1.0  0.16493  0.85677  0.46205  1.0000
  C   C153      1.0  0.31397  0.90832  0.27291  1.0000
  N   N14       1.0  0.30175  0.70244  0.26232  1.0000
  N   N15       1.0  0.33778  0.88529  0.27252  1.0000
  H   H250      1.0  0.29247  0.89897  0.27801  1.0000
  C   C154      1.0  0.27282  0.69052  0.26734  1.0000
  H   H251      1.0  0.12354  0.71593  0.30941  1.0000
  H   H252      1.0  0.17064  0.79191  0.45346  1.0000
  N   N16       1.0  0.19752  0.82218  0.47049  1.0000
  H   H253      1.0  0.15271  0.78087  0.26957  1.0000
  C   C155      1.0  0.22433  0.80968  0.45610  1.0000
  S   S69       1.0  0.07832  0.68263  0.28219  1.0000
  C   C156      1.0  0.02049  0.67229  0.27993  1.0000
  H   H254      1.0  0.28610  0.80465  0.47948  1.0000
  H   H255      1.0  0.24086  0.82619  0.45224  1.0000
  H   H256      1.0  0.31669  0.92387  0.28968  1.0000
  H   H257      1.0  0.16095  0.74398  0.28299  1.0000
  H   H258      1.0  0.07828  0.59892  0.28412  1.0000
  H   H259      1.0  0.31726  0.85770  0.30558  1.0000
  H   H260      1.0  0.30600  0.70859  0.30720  1.0000
  C   C157      1.0  0.20232  0.49875  0.26542  1.0000
  C   C158      1.0  0.30696  0.72104  0.28588  1.0000
  C   C159      1.0  0.11169  0.73690  0.31460  1.0000
  C   C160      1.0  0.15908  0.52431  0.28576  1.0000
  Fe  Fe36      1.0  0.12310  0.66004  0.27632  1.0000
  H   H261      1.0  0.08251  0.54204  0.32287  1.0000
  C   C161      1.0  0.99695  0.65849  0.27004  1.0000
  H   H262      1.0  0.38424  0.88161  0.26599  1.0000
  H   H263      1.0  0.34018  0.88310  0.31866  1.0000
  H   H264      1.0  0.11745  0.73025  0.25769  1.0000
  C   C162      1.0  0.17597  0.79975  0.47454  1.0000
  C   C163      1.0  0.36593  0.89859  0.26665  1.0000
  H   H265      1.0  0.02306  0.55952  0.35032  1.0000
  H   H266      1.0  0.25525  0.70812  0.26903  1.0000
  H   H267      1.0  0.15536  0.80837  0.48530  1.0000
  H   H268      1.0  0.18145  0.84077  0.43041  1.0000
  H   H269      1.0  0.34647  0.68646  0.25737  1.0000
  H   H270      1.0  0.20116  0.86489  0.44960  1.0000
  H   H271      1.0  0.05711  0.57267  0.35902  1.0000
  N   N17       1.0  0.04927  0.57579  0.31387  1.0000
  S   S70       1.0  0.19929  0.61861  0.27492  1.0000
  C   C164      1.0  0.06389  0.54698  0.30877  1.0000
  H   H272      1.0  0.10809  0.79464  0.31989  1.0000
  H   H273      1.0  0.22000  0.80168  0.43483  1.0000
  S   S71       1.0  0.13988  0.55614  0.29731  1.0000
  C   C165      1.0  0.18567  0.84724  0.45236  1.0000
  C   C166      1.0  0.31395  0.79840  0.28625  1.0000
  H   H274      1.0  0.01277  0.60270  0.29864  1.0000
  H   H275      1.0  0.04873  0.52922  0.31304  1.0000
  H   H276      1.0  0.11909  0.74300  0.33553  1.0000
  C   C167      1.0  0.10065  0.78727  0.29941  1.0000
  C   C168      1.0  0.02431  0.58113  0.29531  1.0000
  C   C169      1.0  0.36434  0.78068  0.28663  1.0000
  H   H277      1.0  0.38380  0.77512  0.29823  1.0000
  S   S72       1.0  0.33990  0.79794  0.33826  1.0000
  C   C170      1.0  0.33903  0.79160  0.30139  1.0000
  H   H278      1.0  0.37009  0.91340  0.28364  1.0000
  H   H279      1.0  0.08240  0.74690  0.26654  1.0000
  H   H280      1.0  0.22013  0.84934  0.49628  1.0000
  H   H281      1.0  0.27143  0.67647  0.28772  1.0000
  C   C171      1.0  0.20425  0.83204  0.49878  1.0000
  C   C172      1.0  0.26565  0.98146  0.39520  1.0000
  H   H282      1.0  0.29048  0.73971  0.28697  1.0000
  H   H283      1.0  0.05998  0.62068  0.31095  1.0000
  C   C173      1.0  0.36492  0.77780  0.25672  1.0000
  N   N18       1.0  0.11662  0.75989  0.29147  1.0000
  H   H284      1.0  0.32431  0.66468  0.28222  1.0000
  H   H285      1.0  0.23425  0.79099  0.46927  1.0000
  C   C174      1.0  0.03880  0.57649  0.34440  1.0000
  C   C175      1.0  0.14803  0.76452  0.28764  1.0000
  C   C176      1.0  0.04888  0.66633  0.26842  1.0000
  C   C177      1.0  0.26166  0.98484  0.33557  1.0000
  H   H286      1.0  0.00804  0.56441  0.29980  1.0000
  H   H287      1.0  0.07290  0.54607  0.28613  1.0000
  H   H288      1.0  0.19891  0.54461  0.27327  1.0000
  H   H289      1.0  0.10389  0.80513  0.28245  1.0000
  C   C178      1.0  0.10599  0.75092  0.26428  1.0000
  C   C179      1.0  0.31460  0.79583  0.25638  1.0000
  C   C180      1.0  0.14507  0.49807  0.28792  1.0000
  H   H290      1.0  0.12291  0.49764  0.29672  1.0000
  C   C181      1.0  0.28236  0.81732  0.49818  1.0000
  C   C182      1.0  0.32437  0.67825  0.26156  1.0000
  H   H291      1.0  0.22460  0.49902  0.25689  1.0000
  H   H292      1.0  0.40004  0.79961  0.59518  1.0000
  S   S73       1.0  0.18840  0.65716  0.70983  1.0000
  Fe  Fe37      1.0  0.22861  0.81806  0.68388  1.0000
  S   S74       1.0  0.27058  0.79708  0.66718  1.0000
  S   S75       1.0  0.19833  0.79343  0.71500  1.0000
  Fe  Fe38      1.0  0.24378  0.87849  0.65787  1.0000
  S   S76       1.0  0.28733  0.86179  0.63946  1.0000
  S   S77       1.0  0.22463  0.92512  0.65393  1.0000
  Fe  Fe39      1.0  0.26302  0.82454  0.62608  1.0000
  S   S78       1.0  0.27084  0.80099  0.58472  1.0000
  Fe  Fe40      1.0  0.29050  0.83587  0.68214  1.0000
  S   S79       1.0  0.21905  0.84271  0.64184  1.0000
  S   S80       1.0  0.24903  0.85551  0.70147  1.0000
  C   C183      1.0  0.24433  0.95612  0.65733  1.0000
  C   C184      1.0  0.27471  0.95464  0.65587  1.0000
  H   H293      1.0  0.31392  0.77716  0.62192  1.0000
  C   C185      1.0  0.05625  0.68368  0.73516  1.0000
  H   H294      1.0  0.39378  0.76447  0.61264  1.0000
  C   C186      1.0  0.38435  0.78217  0.59787  1.0000
  H   H295      1.0  0.28668  0.93428  0.65169  1.0000
  H   H296      1.0  0.27967  0.77975  0.52828  1.0000
  H   H297      1.0  0.10035  0.65128  0.71233  1.0000
  C   C187      1.0  0.27465  0.81950  0.55038  1.0000
  H   H298      1.0  0.34400  0.75112  0.62678  1.0000
  H   H299      1.0  0.31311  0.97832  0.65899  1.0000
  C   C188      1.0  0.27404  0.84986  0.54711  1.0000
  C   C189      1.0  0.29923  0.89634  0.74655  1.0000
  H   H300      1.0  0.33160  0.76116  0.59125  1.0000
  H   H301      1.0  0.25465  0.71015  0.73978  1.0000
  H   H302      1.0  0.27081  0.86256  0.56584  1.0000
  C   C190      1.0  0.09576  0.71048  0.71272  1.0000
  C   C191      1.0  0.19212  0.69491  0.71171  1.0000
  C   C192      1.0  0.18015  0.70973  0.73519  1.0000
  C   C193      1.0  0.18209  0.73990  0.73577  1.0000
  C   C194      1.0  0.19653  0.75557  0.71310  1.0000
  C   C195      1.0  0.20906  0.74082  0.68975  1.0000
  C   C196      1.0  0.20658  0.71060  0.68895  1.0000
  H   H303      1.0  0.30296  0.88499  0.72618  1.0000
  H   H304      1.0  0.27710  0.88740  0.51710  1.0000
  H   H305      1.0  0.22009  0.75276  0.67205  1.0000
  H   H306      1.0  0.21580  0.69937  0.67058  1.0000
  H   H307      1.0  0.09196  0.70272  0.69123  1.0000
  S   S81       1.0  0.33160  0.82849  0.70628  1.0000
  C   C197      1.0  0.31158  0.94218  0.72234  1.0000
  C   C198      1.0  0.32799  0.81824  0.74353  1.0000
  H   H308      1.0  0.08313  0.73169  0.71483  1.0000
  H   H309      1.0  0.35886  0.83498  0.58540  1.0000
  H   H310      1.0  0.21404  0.81389  0.51279  1.0000
  C   C199      1.0  0.22903  0.98282  0.66221  1.0000
  H   H311      1.0  0.28230  0.83059  0.74826  1.0000
  H   H312      1.0  0.36689  0.78818  0.65361  1.0000
  H   H313      1.0  0.37314  0.80376  0.74621  1.0000
  H   H314      1.0  0.31532  0.93212  0.70129  1.0000
  H   H315      1.0  0.24418  0.91841  0.73970  1.0000
  C   C200      1.0  0.28959  0.97957  0.66000  1.0000
  H   H316      1.0  0.03459  0.60065  0.72255  1.0000
  Fe  Fe41      1.0  0.17656  0.63013  0.75074  1.0000
  C   C201      1.0  0.35842  0.80521  0.63759  1.0000
  C   C202      1.0  0.27761  0.86387  0.51948  1.0000
  C   C203      1.0  0.27890  0.80328  0.52585  1.0000
  C   C204      1.0  0.34398  0.81692  0.58897  1.0000
  N   N19       1.0  0.35558  0.79348  0.60921  1.0000
  H   H317      1.0  0.30490  0.96564  0.71773  1.0000
  H   H318      1.0  0.18446  0.84119  0.51054  1.0000
  H   H319      1.0  0.33703  0.81386  0.64669  1.0000
  H   H320      1.0  0.25388  0.95203  0.72085  1.0000
  H   H321      1.0  0.32265  0.82649  0.59724  1.0000
  H   H322      1.0  0.37326  0.82336  0.63619  1.0000
  H   H323      1.0  0.20551  0.98410  0.66337  1.0000
  H   H324      1.0  0.17084  0.52029  0.73705  1.0000
  H   H325      1.0  0.34034  0.80866  0.56763  1.0000
  C   C205      1.0  0.26168  0.92902  0.72622  1.0000
  N   N20       1.0  0.08744  0.68887  0.73614  1.0000
  H   H326      1.0  0.38286  0.77314  0.57647  1.0000
  C   C206      1.0  0.33552  0.76963  0.61242  1.0000
  H   H327      1.0  0.29903  0.73921  0.74002  1.0000
  H   H328      1.0  0.33281  0.94112  0.73264  1.0000
  H   H329      1.0  0.05147  0.67380  0.71494  1.0000
  N   N21       1.0  0.28935  0.92725  0.74088  1.0000
  H   H330      1.0  0.26407  0.91794  0.70567  1.0000
  H   H331      1.0  0.04235  0.70421  0.73666  1.0000
  H   H332      1.0  0.24992  0.76335  0.74359  1.0000
  H   H333      1.0  0.12869  0.66478  0.73139  1.0000
  H   H334      1.0  0.11927  0.71468  0.71279  1.0000
  C   C207      1.0  0.10504  0.66132  0.73247  1.0000
  C   C208      1.0  0.17527  0.49838  0.74624  1.0000
  C   C209      1.0  0.03155  0.60730  0.74439  1.0000
  H   H335      1.0  0.16888  0.69820  0.75271  1.0000
  H   H336      1.0  0.10078  0.64519  0.75079  1.0000
  H   H337      1.0  0.04902  0.66854  0.75339  1.0000
  H   H338      1.0  0.07705  0.60048  0.75294  1.0000
  Fe  Fe42      1.0  0.19004  0.62548  0.81348  1.0000
  H   H339      1.0  0.29216  0.54865  0.79494  1.0000
  S   S82       1.0  0.21451  0.64554  0.84699  1.0000
  Fe  Fe43      1.0  0.12906  0.61334  0.79505  1.0000
  S   S83       1.0  0.08193  0.62128  0.81034  1.0000
  C   C210      1.0  0.29950  0.81581  0.78911  1.0000
  C   C211      1.0  0.25615  0.70698  0.76358  1.0000
  H   H340      1.0  0.28440  0.74842  0.96736  1.0000
  S   S84       1.0  0.16077  0.58889  0.82398  1.0000
  H   H341      1.0  0.27348  0.79839  0.98550  1.0000
  C   C212      1.0  0.26769  0.72812  0.80731  1.0000
  H   H342      1.0  0.25364  0.55003  0.79096  1.0000
  C   C213      1.0  0.36010  0.71940  0.99197  1.0000
  H   H343      1.0  0.27901  0.81962  0.80113  1.0000
  C   C214      1.0  0.31262  0.65569  0.83470  1.0000
  C   C215      1.0  0.29738  0.64655  0.81207  1.0000
  C   C216      1.0  0.26723  0.64348  0.81548  1.0000
  C   C217      1.0  0.25225  0.64908  0.84169  1.0000
  C   C218      1.0  0.26763  0.65753  0.86444  1.0000
  C   C219      1.0  0.29769  0.66068  0.86102  1.0000
  C   C220      1.0  0.27097  0.55868  0.80307  1.0000
  H   H344      1.0  0.25557  0.63727  0.79769  1.0000
  H   H345      1.0  0.25630  0.66154  0.88491  1.0000
  H   H346      1.0  0.30937  0.66647  0.87900  1.0000
  C   C221      1.0  0.00351  0.61582  0.75531  1.0000
  C   C222      1.0  0.28909  0.56500  0.84967  1.0000
  C   C223      1.0  0.05198  0.61693  0.78941  1.0000
  C   C224      1.0  0.38360  0.73718  0.99045  1.0000
  H   H347      1.0  0.25620  0.81070  0.95287  1.0000
  H   H348      1.0  0.31223  0.82343  0.91668  1.0000
  H   H349      1.0  0.02086  0.63224  0.82211  1.0000
  H   H350      1.0  0.30108  0.74533  0.93213  1.0000
  N   N22       1.0  0.26610  0.55247  0.83446  1.0000
  H   H351      1.0  0.11605  0.70438  0.76570  1.0000
  H   H352      1.0  0.28803  0.50989  0.83412  1.0000
  S   S85       1.0  0.21196  0.60549  0.77500  1.0000
  C   C225      1.0  0.27750  0.80776  0.96306  1.0000
  H   H353      1.0  0.28876  0.58911  0.84553  1.0000
  H   H354      1.0  0.28580  0.82973  0.96438  1.0000
  H   H355      1.0  0.30884  0.64250  0.79168  1.0000
  H   H356      1.0  0.47516  0.69810  0.84477  1.0000
  C   C226      1.0  0.99968  0.62419  0.78361  1.0000
  H   H357      1.0  0.31111  0.55602  0.84262  1.0000
  C   C227      1.0  0.02389  0.62496  0.80050  1.0000
  C   C228      1.0  0.30136  0.82216  0.75913  1.0000
  Fe  Fe44      1.0  0.18056  0.57020  0.78353  1.0000
  H   H358      1.0  0.23390  0.70300  0.77292  1.0000
  S   S86       1.0  0.15632  0.65200  0.78901  1.0000
  H   H359      1.0  0.31868  0.78772  0.90400  1.0000
  C   C229      1.0  0.23746  0.56563  0.84408  1.0000
  C   C230      1.0  0.32625  0.78555  0.96086  1.0000
  H   H360      1.0  0.23571  0.58936  0.83826  1.0000
  H   H361      1.0  0.30743  0.75478  0.77257  1.0000
  S   S87       1.0  0.19803  0.52331  0.79171  1.0000
  H   H362      1.0  0.26264  0.51512  0.86439  1.0000
  C   C231      1.0  0.26671  0.52062  0.84095  1.0000
  S   S88       1.0  0.33091  0.72215  0.87984  1.0000
  C   C232      1.0  0.35242  0.80683  0.75802  1.0000
  C   C233      1.0  0.28653  0.75979  0.94553  1.0000
  H   H363      1.0  0.26489  0.76136  0.93606  1.0000
  H   H364      1.0  0.33573  0.80691  0.96237  1.0000
  H   H365      1.0  0.27617  0.74710  0.81703  1.0000
  H   H366      1.0  0.24542  0.72491  0.81696  1.0000
  H   H367      1.0  0.27100  0.58251  0.79741  1.0000
  N   N23       1.0  0.26783  0.73244  0.77556  1.0000
  H   H368      1.0  0.24963  0.51070  0.82947  1.0000
  H   H369      1.0  0.21946  0.55597  0.83394  1.0000
  N   N24       1.0  0.29834  0.78871  0.94659  1.0000
  H   H370      1.0  0.32374  0.77506  0.98305  1.0000
  C   C234      1.0  0.30309  0.80169  0.91694  1.0000
  H   H371      1.0  0.34258  0.77159  0.94884  1.0000
  H   H372      1.0  0.25704  0.77843  0.77670  1.0000
  C   C235      1.0  0.05566  0.60738  0.76152  1.0000
  H   H373      1.0  0.39294  0.74477  0.96968  1.0000
  H   H374      1.0  0.28625  0.56056  0.87341  1.0000
  H   H375      1.0  0.31242  0.71623  0.76985  1.0000
  S   S89       1.0  0.32061  0.79604  0.84113  1.0000
  H   H376      1.0  0.28262  0.80423  0.90529  1.0000
  S   S90       1.0  0.34397  0.71008  0.96059  1.0000
  C   C236      1.0  0.32387  0.80415  0.80354  1.0000
  Fe  Fe45      1.0  0.36223  0.72126  0.91505  1.0000
  S   S91       1.0  0.39597  0.69232  0.89247  1.0000
  S   S92       1.0  0.35000  0.66135  0.82947  1.0000
  Fe  Fe46      1.0  0.35235  0.76103  0.85957  1.0000
  S   S93       1.0  0.38596  0.73545  0.83359  1.0000
  Fe  Fe47      1.0  0.36562  0.69624  0.85585  1.0000
  Fe  Fe48      1.0  0.41290  0.73437  0.87263  1.0000
  S   S94       1.0  0.45806  0.75047  0.87570  1.0000
  S   S95       1.0  0.38022  0.76316  0.89728  1.0000
  C   C237      1.0  0.49431  0.70975  0.84746  1.0000
  C   C238      1.0  0.29798  0.73579  0.76392  1.0000
  C   C239      1.0  0.35029  0.79941  0.78784  1.0000
  H   H377      1.0  0.36934  0.79078  0.79877  1.0000
  H   H378      1.0  0.27740  0.96484  0.76478  1.0000
  H   H379      1.0  0.30536  0.94059  0.78003  1.0000
  H   H380      1.0  0.26824  0.93075  0.78294  1.0000
  H   H381      1.0  0.23346  0.56261  0.86783  1.0000
  C   C240      1.0  0.24954  0.75888  0.76740  1.0000
  C   C241      1.0  0.09282  0.69991  0.76429  1.0000
  H   H382      1.0  0.32004  0.89399  0.75767  1.0000
  C   C242      1.0  0.28489  0.94148  0.76840  1.0000
  H   H383      1.0  0.27011  0.68682  0.76815  1.0000
  C   C243      1.0  0.18809  0.49394  0.77276  1.0000
  H   H384      1.0  0.07954  0.72043  0.76807  1.0000
  H   H385      1.0  0.28171  0.70863  0.81416  1.0000
  C   C244      1.0  0.49166  0.73595  0.86110  1.0000
  H   H386      1.0  0.22643  0.75675  0.77499  1.0000
  H   H387      1.0  0.08729  0.68374  0.78240  1.0000
  H   H388      1.0  0.28290  0.88433  0.76033  1.0000
  S   S96       1.0  0.14695  0.59263  0.75488  1.0000
  H   H389      1.0  0.17231  0.75118  0.75386  1.0000
  H   H390      1.0  0.58755  0.23671  0.08652  1.0000
  C   C245      1.0  0.68470  0.19514  0.23456  1.0000
  H   H391      1.0  0.75109  0.19441  0.24019  1.0000
  S   S97       1.0  0.66073  0.28502  0.11621  1.0000
  Fe  Fe49      1.0  0.62712  0.25672  0.13786  1.0000
  S   S98       1.0  0.58047  0.27487  0.13519  1.0000
  N   N25       1.0  0.58895  0.19559  0.22866  1.0000
  H   H392      1.0  0.56764  0.23670  0.23931  1.0000
  S   S99       1.0  0.90025  0.29740  0.23030  1.0000
  H   H393      1.0  0.63459  0.26877  0.05232  1.0000
  H   H394      1.0  0.61089  0.22231  0.05811  1.0000
  H   H395      1.0  0.57218  0.22179  0.05670  1.0000
  C   C246      1.0  0.56124  0.18119  0.22913  1.0000
  C   C247      1.0  0.96726  0.39890  0.20203  1.0000
  C   C248      1.0  0.54989  0.25380  0.14167  1.0000
  C   C249      1.0  0.55286  0.22358  0.14679  1.0000
  C   C250      1.0  0.52805  0.20766  0.15305  1.0000
  C   C251      1.0  0.61303  0.28053  0.05623  1.0000
  Fe  Fe50      1.0  0.67299  0.21077  0.15711  1.0000
  C   C252      1.0  0.52195  0.26781  0.14170  1.0000
  H   H396      1.0  0.57422  0.21254  0.14602  1.0000
  H   H397      1.0  0.53042  0.18429  0.15733  1.0000
  H   H398      1.0  0.51948  0.29120  0.13764  1.0000
  H   H399      1.0  0.61463  0.16029  0.20980  1.0000
  H   H400      1.0  0.78597  0.29488  0.03847  1.0000
  H   H401      1.0  0.74773  0.28959  0.04027  1.0000
  H   H402      1.0  0.75467  0.26054  0.23089  1.0000
  H   H403      1.0  0.70957  0.12574  0.22289  1.0000
  C   C253      1.0  0.60907  0.18403  0.20579  1.0000
  C   C254      1.0  0.56101  0.27973  0.05408  1.0000
  C   C255      1.0  0.89237  0.48672  0.22463  1.0000
  H   H404      1.0  0.77359  0.21305  0.21314  1.0000
  Fe  Fe51      1.0  0.88859  0.38140  0.22632  1.0000
  H   H405      1.0  0.59978  0.18738  0.18426  1.0000
  H   H406      1.0  0.77145  0.26022  0.11172  1.0000
  S   S100      1.0  0.65162  0.24951  0.17821  1.0000
  H   H407      1.0  0.76009  0.32537  0.04294  1.0000
  N   N26       1.0  0.58919  0.26393  0.04720  1.0000
  S   S101      1.0  0.64559  0.21598  0.11808  1.0000
  H   H408      1.0  0.61424  0.24966  0.00985  1.0000
  C   C256      1.0  0.66557  0.21328  0.02678  1.0000
  C   C257      1.0  0.70421  0.14526  0.23423  1.0000
  H   H409      1.0  0.54249  0.26783  0.04760  1.0000
  C   C258      1.0  0.88569  0.45869  0.23569  1.0000
  H   H410      1.0  0.61369  0.30224  0.04435  1.0000
  S   S102      1.0  0.85075  0.35271  0.23481  1.0000
  H   H411      1.0  0.55767  0.28245  0.07766  1.0000
  H   H412      1.0  0.66147  0.20313  0.04811  1.0000
  H   H413      1.0  0.61049  0.28424  0.07960  1.0000
  S   S103      1.0  0.98109  0.31716  0.21394  1.0000
  H   H414      1.0  0.94959  0.40387  0.18682  1.0000
  N   N27       1.0  0.98406  0.42463  0.20489  1.0000
  Fe  Fe52      1.0  0.87228  0.32547  0.20069  1.0000
  H   H415      1.0  0.55970  0.30188  0.04300  1.0000
  S   S104      1.0  0.84841  0.30039  0.17036  1.0000
  H   H416      1.0  0.95251  0.44237  0.23584  1.0000
  Fe  Fe53      1.0  0.93354  0.33064  0.22326  1.0000
  S   S105      1.0  0.90783  0.35582  0.18956  1.0000
  S   S106      1.0  0.68305  0.16857  0.18319  1.0000
  S   S107      1.0  0.89134  0.42955  0.21290  1.0000
  C   C259      1.0  0.68340  0.23673  0.02292  1.0000
  Fe  Fe54      1.0  0.68737  0.27339  0.15447  1.0000
  S   S108      1.0  0.71091  0.30670  0.17600  1.0000
  S   S109      1.0  0.70997  0.23440  0.13525  1.0000
  C   C260      1.0  0.69150  0.17006  0.21960  1.0000
  Fe  Fe55      1.0  0.68064  0.24393  0.09843  1.0000
  H   H417      1.0  0.67524  0.21449  0.22365  1.0000
  H   H418      1.0  0.56467  0.15716  0.23296  1.0000
  H   H419      1.0  0.78839  0.31007  0.11587  1.0000
  S   S110      1.0  0.69868  0.25117  0.05238  1.0000
  C   C261      1.0  0.81032  0.30089  0.17550  1.0000
  C   C262      1.0  0.79568  0.27714  0.16771  1.0000
  C   C263      1.0  0.76515  0.27818  0.16900  1.0000
  C   C264      1.0  0.74909  0.30323  0.17744  1.0000
  C   C265      1.0  0.76373  0.32653  0.18619  1.0000
  C   C266      1.0  0.79426  0.32533  0.18535  1.0000
  H   H420      1.0  0.80803  0.25806  0.16032  1.0000
  H   H421      1.0  0.75411  0.25975  0.16314  1.0000
  H   H422      1.0  0.75145  0.34590  0.19299  1.0000
  H   H423      1.0  0.80533  0.34381  0.19127  1.0000
  H   H424      1.0  0.55051  0.18553  0.20832  1.0000
  H   H425      1.0  0.98147  0.43887  0.16022  1.0000
  H   H426      1.0  0.57581  0.24725  0.00831  1.0000
  H   H427      1.0  0.97614  0.46840  0.21826  1.0000
  H   H428      1.0  0.95676  0.39139  0.22304  1.0000
  N   N28       1.0  0.76516  0.29658  0.08086  1.0000
  C   C267      1.0  0.77085  0.26508  0.08808  1.0000
  C   C268      1.0  0.78820  0.31289  0.09196  1.0000
  C   C269      1.0  0.73668  0.30641  0.09413  1.0000
  C   C270      1.0  0.76478  0.30189  0.04923  1.0000
  H   H429      1.0  0.75366  0.25217  0.08027  1.0000
  H   H430      1.0  0.62987  0.19490  0.20450  1.0000
  H   H431      1.0  0.79204  0.25683  0.07820  1.0000
  H   H432      1.0  0.73193  0.33022  0.08985  1.0000
  H   H433      1.0  0.81016  0.30541  0.08324  1.0000
  H   H434      1.0  0.78497  0.33667  0.08632  1.0000
  C   C271      1.0  0.58999  0.23489  0.06279  1.0000
  H   H435      1.0  0.71874  0.29508  0.08573  1.0000
  H   H436      1.0  0.73581  0.30194  0.11789  1.0000
  H   H437      1.0  0.54559  0.18916  0.24634  1.0000
  H   H438      1.0  0.57421  0.23265  0.20144  1.0000
  H   H439      1.0  0.60369  0.23904  0.22313  1.0000
  C   C272      1.0  0.96427  0.44876  0.21504  1.0000
  C   C273      1.0  0.58338  0.22735  0.22290  1.0000
  H   H440      1.0  0.94734  0.45520  0.19935  1.0000
  H   H441      1.0  0.90081  0.48997  0.20260  1.0000
  C   C274      1.0  0.59275  0.26059  0.01584  1.0000
  H   H442      1.0  0.78943  0.18542  0.23772  1.0000
  C   C275      1.0  0.77263  0.20383  0.23585  1.0000
  H   H443      1.0  0.98128  0.38024  0.19405  1.0000
  H   H444      1.0  0.80777  0.24868  0.22757  1.0000
  C   C276      1.0  0.50009  0.22173  0.15371  1.0000
  H   H445      1.0  0.96590  0.26225  0.24134  1.0000
  C   C277      1.0  0.49710  0.25184  0.14760  1.0000
  H   H446      1.0  0.82363  0.22048  0.25142  1.0000
  C   C278      1.0  0.80592  0.23800  0.24971  1.0000
  H   H447      1.0  0.64007  0.18409  0.00591  1.0000
  C   C279      1.0  0.75422  0.25004  0.25314  1.0000
  C   C280      1.0  0.78486  0.03280  0.41336  1.0000
  C   C281      1.0  0.94870  0.28801  0.28988  1.0000
  H   H448      1.0  0.68345  0.21425  0.27567  1.0000
  S   S111      1.0  0.86271  0.30312  0.30608  1.0000
  Fe  Fe56      1.0  0.78154  0.08511  0.33164  1.0000
  S   S112      1.0  0.74376  0.09965  0.36080  1.0000
  S   S113      1.0  0.79149  0.04033  0.31453  1.0000
  Fe  Fe57      1.0  0.80964  0.14410  0.33192  1.0000
  S   S114      1.0  0.77468  0.16258  0.36198  1.0000
  S   S115      1.0  0.84808  0.16675  0.31080  1.0000
  Fe  Fe58      1.0  0.77724  0.11854  0.38633  1.0000
  S   S116      1.0  0.78371  0.10279  0.43305  1.0000
  Fe  Fe59      1.0  0.74463  0.14216  0.33367  1.0000
  S   S117      1.0  0.70717  0.17067  0.31589  1.0000
  S   S118      1.0  0.81498  0.10177  0.35814  1.0000
  S   S119      1.0  0.77965  0.12607  0.30247  1.0000
  C   C282      1.0  0.60222  0.18979  0.25679  1.0000
  C   C283      1.0  0.74953  0.16043  0.49056  1.0000
  H   H449      1.0  0.95465  0.30354  0.27153  1.0000
  H   H450      1.0  0.78872  0.08362  0.49208  1.0000
  C   C284      1.0  0.85758  0.26533  0.30708  1.0000
  C   C285      1.0  0.87347  0.24751  0.28801  1.0000
  C   C286      1.0  0.87045  0.21741  0.28971  1.0000
  C   C287      1.0  0.85084  0.20472  0.31006  1.0000
  C   C288      1.0  0.83446  0.22239  0.32906  1.0000
  C   C289      1.0  0.83808  0.25261  0.32775  1.0000
  H   H451      1.0  0.88853  0.25669  0.27225  1.0000
  H   H452      1.0  0.88317  0.20388  0.27497  1.0000
  H   H453      1.0  0.81946  0.21274  0.34507  1.0000
  H   H454      1.0  0.82577  0.26615  0.34278  1.0000
  C   C290      1.0  0.75808  0.14775  0.46447  1.0000
  C   C291      1.0  0.77225  0.12000  0.46491  1.0000
  C   C292      1.0  0.87472  0.45473  0.26416  1.0000
  H   H455      1.0  0.75368  0.15939  0.44408  1.0000
  H   H456      1.0  0.97250  0.22621  0.25761  1.0000
  H   H457      1.0  0.85678  0.03734  0.42316  1.0000
  C   C293      1.0  0.77695  0.00820  0.33056  1.0000
  H   H458      1.0  0.81085  0.00075  0.45572  1.0000
  H   H459      1.0  0.74567  0.02995  0.35899  1.0000
  H   H460      1.0  0.96816  0.21783  0.31102  1.0000
  H   H461      1.0  0.58773  0.19815  0.27469  1.0000
  H   H462      1.0  0.82596  0.05137  0.44466  1.0000
  C   C294      1.0  0.77782  0.10511  0.49154  1.0000
  H   H463      1.0  0.83165  0.06475  0.40811  1.0000
  N   N29       1.0  0.77708  0.22621  0.25614  1.0000
  C   C295      1.0  0.68946  0.19502  0.26409  1.0000
  N   N30       1.0  0.96536  0.25971  0.28767  1.0000
  C   C296      1.0  0.81855  0.99575  0.43341  1.0000
  C   C297      1.0  0.75506  0.00914  0.35252  1.0000
  H   H464      1.0  0.78165  0.05172  0.39743  1.0000
  H   H465      1.0  0.82309  0.03339  0.36813  1.0000
  S   S120      1.0  0.91589  0.35702  0.25970  1.0000
  Fe  Fe60      1.0  0.88022  0.32539  0.26432  1.0000
  H   H466      1.0  0.86943  0.43326  0.27287  1.0000
  H   H467      1.0  0.71949  0.12611  0.27467  1.0000
  H   H468      1.0  0.77685  0.04027  0.43478  1.0000
  H   H469      1.0  0.62323  0.20033  0.25707  1.0000
  C   C298      1.0  0.82584  0.01433  0.38400  1.0000
  C   C299      1.0  0.87007  0.47879  0.28128  1.0000
  C   C300      1.0  0.70212  0.17020  0.27870  1.0000
  H   H470      1.0  0.60701  0.16604  0.26171  1.0000
  C   C301      1.0  0.95621  0.23952  0.31202  1.0000
  N   N31       1.0  0.81568  0.02190  0.41338  1.0000
  H   H471      1.0  0.95277  0.29828  0.31007  1.0000
  H   H472      1.0  0.93254  0.23599  0.31199  1.0000
  H   H473      1.0  0.84921  0.00681  0.38289  1.0000
  H   H474      1.0  0.86118  0.47569  0.30319  1.0000
  C   C302      1.0  0.83340  0.04471  0.42277  1.0000
  H   H475      1.0  0.93650  0.24328  0.25885  1.0000
  C   C303      1.0  0.95982  0.24731  0.26021  1.0000
  H   H476      1.0  0.81025  0.25454  0.26502  1.0000
  H   H477      1.0  0.77892  0.22906  0.30191  1.0000
  H   H478      1.0  0.92488  0.28562  0.28992  1.0000
  C   C304      1.0  0.77554  0.21291  0.28593  1.0000
  H   H479      1.0  0.77064  0.01574  0.40782  1.0000
  H   H480      1.0  0.75407  0.20385  0.29158  1.0000
  H   H481      1.0  0.98204  0.35101  0.26452  1.0000
  H   H482      1.0  0.96010  0.24819  0.33308  1.0000
  H   H483      1.0  0.79238  0.19470  0.28893  1.0000
  H   H484      1.0  0.81338  0.99669  0.37650  1.0000
  H   H485      1.0  0.73845  0.18185  0.49009  1.0000
  H   H486      1.0  0.75699  0.26732  0.26813  1.0000
  C   C305      1.0  0.70991  0.14545  0.26357  1.0000
  H   H487      1.0  0.73218  0.24188  0.25792  1.0000
  Fe  Fe61      1.0  0.84280  0.30963  0.72146  1.0000
  H   H488      1.0  0.94534  0.35528  0.69816  1.0000
  S   S121      1.0  0.81162  0.28633  0.69674  1.0000
  H   H489      1.0  0.79043  0.21452  0.61642  1.0000
  H   H490      1.0  0.87291  0.05569  0.60929  1.0000
  C   C306      1.0  0.76920  0.11772  0.51757  1.0000
  C   C307      1.0  0.93560  0.40399  0.72618  1.0000
  S   S122      1.0  0.87940  0.33711  0.70523  1.0000
  H   H491      1.0  0.79799  0.25134  0.60549  1.0000
  Fe  Fe62      1.0  0.72970  0.12891  0.65569  1.0000
  S   S123      1.0  0.77024  0.10302  0.66924  1.0000
  S   S124      1.0  0.69266  0.14479  0.68574  1.0000
  Fe  Fe63      1.0  0.75246  0.13779  0.59258  1.0000
  S   S125      1.0  0.79482  0.11379  0.60203  1.0000
  S   S126      1.0  0.74417  0.16202  0.54953  1.0000
  Fe  Fe64      1.0  0.76767  0.08122  0.62760  1.0000
  S   S127      1.0  0.78013  0.03521  0.61474  1.0000
  Fe  Fe65      1.0  0.79313  0.13782  0.64240  1.0000
  S   S128      1.0  0.83316  0.15773  0.65643  1.0000
  S   S129      1.0  0.72503  0.10438  0.61603  1.0000
  S   S130      1.0  0.75287  0.16456  0.63093  1.0000
  H   H492      1.0  0.81035  0.05008  0.66316  1.0000
  H   H493      1.0  0.91816  0.38859  0.73090  1.0000
  C   C308      1.0  0.97072  0.42315  0.69082  1.0000
  H   H494      1.0  0.96129  0.44581  0.69303  1.0000
  H   H495      1.0  0.77339  0.10590  0.53791  1.0000
  H   H496      1.0  0.88590  0.03867  0.68649  1.0000
  C   C309      1.0  0.70046  0.15340  0.72067  1.0000
  H   H497      1.0  0.75505  0.26495  0.72519  1.0000
  C   C310      1.0  0.77765  0.00143  0.63477  1.0000
  H   H498      1.0  0.85807  0.08683  0.68126  1.0000
  H   H499      1.0  0.83126  0.18636  0.57025  1.0000
  C   C311      1.0  0.82733  0.19246  0.67038  1.0000
  C   C312      1.0  0.85099  0.20791  0.67714  1.0000
  C   C313      1.0  0.84655  0.23647  0.68628  1.0000
  C   C314      1.0  0.81848  0.24991  0.68781  1.0000
  C   C315      1.0  0.79496  0.23432  0.68125  1.0000
  C   C316      1.0  0.79927  0.20546  0.67357  1.0000
  H   H500      1.0  0.87281  0.19795  0.67495  1.0000
  H   H501      1.0  0.86487  0.24839  0.69119  1.0000
  H   H502      1.0  0.77321  0.24454  0.68212  1.0000
  H   H503      1.0  0.78079  0.19354  0.66961  1.0000
  C   C317      1.0  0.85639  0.08294  0.65812  1.0000
  H   H504      1.0  0.97081  0.36927  0.67100  1.0000
  H   H505      1.0  0.76468  0.01898  0.67553  1.0000
  H   H506      1.0  0.87475  0.09332  0.64577  1.0000
  C   C318      1.0  0.85378  0.04780  0.62241  1.0000
  S   S131      1.0  0.82158  0.34414  0.74881  1.0000
  H   H507      1.0  0.83605  0.09492  0.65109  1.0000
  C   C319      1.0  0.88346  0.03639  0.66313  1.0000
  H   H508      1.0  0.83420  0.06018  0.61406  1.0000
  H   H509      1.0  0.80414  0.18615  0.54389  1.0000
  H   H510      1.0  0.95222  0.39900  0.74245  1.0000
  C   C320      1.0  0.77035  0.99942  0.66438  1.0000
  H   H511      1.0  0.79513  0.17663  0.58092  1.0000
  H   H512      1.0  0.66780  0.18884  0.72164  1.0000
  H   H513      1.0  0.90282  0.04532  0.65117  1.0000
  Fe  Fe66      1.0  0.86049  0.36993  0.73584  1.0000
  H   H514      1.0  0.84015  0.23777  0.55475  1.0000
  H   H515      1.0  0.81339  0.23745  0.52824  1.0000
  H   H516      1.0  0.81036  0.26488  0.55405  1.0000
  S   S132      1.0  0.86003  0.41620  0.71590  1.0000
  H   H517      1.0  0.97947  0.36678  0.70818  1.0000
  H   H518      1.0  0.92547  0.42620  0.72947  1.0000
  H   H519      1.0  0.73432  0.11952  0.72642  1.0000
  C   C321      1.0  0.96157  0.37203  0.69329  1.0000
  H   H520      1.0  0.88395  0.01268  0.65973  1.0000
  N   N32       1.0  0.79908  0.22235  0.57099  1.0000
  C   C322      1.0  0.76793  0.22803  0.56552  1.0000
  C   C323      1.0  0.80388  0.22821  0.60109  1.0000
  C   C324      1.0  0.81654  0.24148  0.55112  1.0000
  C   C325      1.0  0.80792  0.19158  0.56626  1.0000
  H   H521      1.0  0.76335  0.22322  0.54316  1.0000
  H   H522      1.0  0.75409  0.21396  0.58022  1.0000
  N   N33       1.0  0.85624  0.05157  0.65341  1.0000
  H   H523      1.0  0.83016  0.01553  0.66669  1.0000
  C   C326      1.0  0.92519  0.40796  0.67586  1.0000
  H   H524      1.0  0.90812  0.39191  0.67925  1.0000
  N   N34       1.0  0.94828  0.40177  0.69652  1.0000
  C   C327      1.0  0.97996  0.31628  0.74940  1.0000
  H   H525      1.0  0.78443  0.21856  0.74029  1.0000
  H   H526      1.0  0.82695  0.22326  0.60646  1.0000
  C   C328      1.0  0.72138  0.13690  0.73635  1.0000
  H   H527      1.0  0.85162  0.02456  0.61821  1.0000
  H   H528      1.0  0.76043  0.25106  0.56867  1.0000
  C   C329      1.0  0.68370  0.17575  0.73386  1.0000
  Fe  Fe67      1.0  0.90308  0.31764  0.74333  1.0000
  C   C330      1.0  0.86427  0.44712  0.73526  1.0000
  C   C331      1.0  0.75497  0.14542  0.51718  1.0000
  H   H529      1.0  0.83222  0.04156  0.69349  1.0000
  C   C332      1.0  0.83123  0.03913  0.66999  1.0000
  H   H530      1.0  0.93395  0.40716  0.65318  1.0000
  H   H531      1.0  0.86352  0.47633  0.69711  1.0000
  C   C333      1.0  0.86551  0.47450  0.72019  1.0000
  H   H532      1.0  0.98085  0.42205  0.66862  1.0000
  H   H533      1.0  0.91397  0.42986  0.67841  1.0000
  H   H534      1.0  0.72968  0.28103  0.75085  1.0000
  H   H535      1.0  0.72285  0.24663  0.73734  1.0000
  C   C334      1.0  0.74018  0.25989  0.74426  1.0000
  H   H536      1.0  0.60885  0.13150  0.74677  1.0000
  S   S133      1.0  0.94981  0.30009  0.73696  1.0000
  H   H537      1.0  0.98840  0.41916  0.70615  1.0000
  H   H538      1.0  0.75124  0.20235  0.75250  1.0000
  Fe  Fe68      1.0  0.61851  0.22959  0.84493  1.0000
  S   S134      1.0  0.57641  0.22716  0.82231  1.0000
  H   H539      1.0  0.77124  0.28442  0.78091  1.0000
  H   H540      1.0  0.58427  0.12994  0.82434  1.0000
  H   H541      1.0  0.63401  0.11484  0.80626  1.0000
  H   H542      1.0  0.93387  0.23119  0.85539  1.0000
  C   C335      1.0  0.54205  0.22847  0.84108  1.0000
  C   C336      1.0  0.51739  0.22233  0.82677  1.0000
  C   C337      1.0  0.97656  0.33933  0.76757  1.0000
  C   C338      1.0  0.51092  0.23791  0.88363  1.0000
  C   C339      1.0  0.53875  0.23598  0.86968  1.0000
  H   H543      1.0  0.51981  0.21648  0.80463  1.0000
  H   H544      1.0  0.50855  0.24426  0.90561  1.0000
  H   H545      1.0  0.55759  0.24077  0.88087  1.0000
  H   H546      1.0  0.59673  0.16501  0.83012  1.0000
  H   H547      1.0  0.95505  0.34802  0.77401  1.0000
  H   H548      1.0  0.70326  0.26714  0.99178  1.0000
  H   H549      1.0  0.79167  0.25223  0.79389  1.0000
  H   H550      1.0  0.59153  0.28205  0.00337  1.0000
  H   H551      1.0  0.72563  0.26113  0.80044  1.0000
  S   S135      1.0  0.63850  0.18838  0.86575  1.0000
  C   C340      1.0  0.58770  0.15195  0.81392  1.0000
  S   S136      1.0  0.63029  0.25802  0.87930  1.0000
  C   C341      1.0  0.65940  0.21492  0.97490  1.0000
  S   S137      1.0  0.64302  0.20127  0.94567  1.0000
  H   H552      1.0  0.56607  0.16267  0.80903  1.0000
  H   H553      1.0  0.93487  0.26736  0.86731  1.0000
  H   H554      1.0  0.89692  0.29730  0.82060  1.0000
  Fe  Fe69      1.0  0.65262  0.21710  0.89897  1.0000
  H   H555      1.0  0.86598  0.42397  0.77686  1.0000
  H   H556      1.0  0.62135  0.19381  0.78944  1.0000
  C   C342      1.0  0.63590  0.13693  0.79543  1.0000
  S   S138      1.0  0.65875  0.23843  0.81704  1.0000
  H   H557      1.0  0.87198  0.46831  0.80281  1.0000
  C   C343      1.0  0.67731  0.23832  0.97105  1.0000
  S   S139      1.0  0.83229  0.30606  0.82741  1.0000
  H   H558      1.0  0.97115  0.27184  0.79376  1.0000
  S   S140      1.0  0.69599  0.22361  0.87554  1.0000
  S   S141      1.0  0.69454  0.30446  0.84062  1.0000
  Fe  Fe70      1.0  0.67949  0.19926  0.84022  1.0000
  S   S142      1.0  0.70945  0.16713  0.81619  1.0000
  H   H559      1.0  0.79595  0.26542  0.75675  1.0000
  S   S143      1.0  0.88639  0.35182  0.77319  1.0000
  C   C344      1.0  0.70688  0.16344  0.77897  1.0000
  H   H560      1.0  0.92647  0.30466  0.79498  1.0000
  C   C345      1.0  0.59457  0.13294  0.76681  1.0000
  Fe  Fe71      1.0  0.67295  0.26250  0.85347  1.0000
  H   H561      1.0  0.57298  0.14268  0.76047  1.0000
  N   N35       1.0  0.93299  0.26528  0.82153  1.0000
  N   N36       1.0  0.60724  0.15050  0.78773  1.0000
  H   H562      1.0  0.89621  0.24754  0.80432  1.0000
  C   C346      1.0  0.79402  0.30612  0.83178  1.0000
  C   C347      1.0  0.78104  0.28388  0.84902  1.0000
  C   C348      1.0  0.75058  0.28303  0.85183  1.0000
  C   C349      1.0  0.73287  0.30480  0.83793  1.0000
  C   C350      1.0  0.74590  0.32731  0.82114  1.0000
  C   C351      1.0  0.77633  0.32786  0.81787  1.0000
  H   H563      1.0  0.79455  0.26711  0.86002  1.0000
  H   H564      1.0  0.74083  0.26582  0.86515  1.0000
  H   H565      1.0  0.73238  0.34430  0.81043  1.0000
  H   H566      1.0  0.78604  0.34534  0.80487  1.0000
  C   C352      1.0  0.92105  0.29567  0.81720  1.0000
  C   C353      1.0  0.87015  0.47013  0.77972  1.0000
  C   C354      1.0  0.68935  0.24909  0.99498  1.0000
  C   C355      1.0  0.96493  0.26423  0.81635  1.0000
  H   H567      1.0  0.64665  0.15020  0.81036  1.0000
  Fe  Fe72      1.0  0.84901  0.32296  0.78342  1.0000
  H   H568      1.0  0.92549  0.25501  0.77835  1.0000
  C   C356      1.0  0.92033  0.24713  0.80111  1.0000
  H   H569      1.0  0.92889  0.22404  0.80363  1.0000
  H   H570      1.0  0.97480  0.24170  0.81992  1.0000
  H   H571      1.0  0.90150  0.25514  0.85590  1.0000
  H   H572      1.0  0.92997  0.31009  0.83227  1.0000
  H   H573      1.0  0.73995  0.12827  0.77777  1.0000
  C   C357      1.0  0.92551  0.25421  0.85137  1.0000
  N   N37       1.0  0.75614  0.24456  0.76798  1.0000
  C   C358      1.0  0.77983  0.26235  0.77524  1.0000
  H   H574      1.0  0.68190  0.24809  0.94963  1.0000
  H   H575      1.0  0.97523  0.27840  0.83073  1.0000
  H   H576      1.0  0.77981  0.20352  0.77676  1.0000
  C   C359      1.0  0.65366  0.20240  0.00284  1.0000
  C   C360      1.0  0.76848  0.21600  0.75897  1.0000
  C   C361      1.0  0.86685  0.44495  0.76507  1.0000
  H   H577      1.0  0.74723  0.22915  0.81211  1.0000
  H   H578      1.0  0.59159  0.11033  0.77590  1.0000
  C   C362      1.0  0.73596  0.24011  0.79345  1.0000
  H   H579      1.0  0.71822  0.22628  0.78879  1.0000
  H   H580      1.0  0.67387  0.19805  0.77277  1.0000
  C   C363      1.0  0.61078  0.18026  0.77467  1.0000
  S   S144      1.0  0.86809  0.28710  0.75678  1.0000
  H   H581      1.0  0.65090  0.13461  0.77603  1.0000
  H   H582      1.0  0.58945  0.19172  0.76990  1.0000
  C   C364      1.0  0.72444  0.14181  0.76547  1.0000
  C   C365      1.0  0.68710  0.18098  0.76281  1.0000
  H   H583      1.0  0.62431  0.18000  0.75418  1.0000
  Fe  Fe73      1.0  0.62881  0.73764  0.14919  1.0000
  C   C366      1.0  0.51581  0.72029  0.08943  1.0000
  S   S145      1.0  0.58247  0.75769  0.14996  1.0000
  H   H584      1.0  0.62504  0.82758  0.18213  1.0000
  C   C367      1.0  0.83854  0.56109  0.18687  1.0000
  H   H585      1.0  0.51977  0.72091  0.11270  1.0000
  H   H586      1.0  0.58640  0.84947  0.21464  1.0000
  H   H587      1.0  0.65115  0.82973  0.20909  1.0000
  H   H588      1.0  0.80721  0.51373  0.19393  1.0000
  C   C368      1.0  0.55081  0.73960  0.16107  1.0000
  C   C369      1.0  0.52385  0.75562  0.16108  1.0000
  C   C370      1.0  0.52580  0.69622  0.17714  1.0000
  C   C371      1.0  0.55174  0.70985  0.16925  1.0000
  H   H589      1.0  0.52300  0.77870  0.15492  1.0000
  H   H590      1.0  0.52662  0.67315  0.18339  1.0000
  H   H591      1.0  0.57239  0.69731  0.16938  1.0000
  S   S146      1.0  0.65529  0.73432  0.18835  1.0000
  H   H592      1.0  0.73843  0.64283  0.24329  1.0000
  C   C372      1.0  0.81124  0.73330  0.24970  1.0000
  H   H593      1.0  0.77510  0.82405  0.08408  1.0000
  H   H594      1.0  0.76565  0.70764  0.23219  1.0000
  H   H595      1.0  0.58018  0.80181  0.19402  1.0000
  N   N38       1.0  0.61180  0.80968  0.22440  1.0000
  H   H596      1.0  0.52313  0.69805  0.08310  1.0000
  H   H597      1.0  0.83792  0.56060  0.24449  1.0000
  C   C373      1.0  0.63895  0.73497  0.00616  1.0000
  C   C374      1.0  0.88826  0.51063  0.24191  1.0000
  H   H598      1.0  0.63668  0.77320  0.24370  1.0000
  S   S147      1.0  0.65851  0.76815  0.12402  1.0000
  C   C375      1.0  0.63445  0.81606  0.20153  1.0000
  C   C376      1.0  0.59048  0.79119  0.21341  1.0000
  C   C377      1.0  0.65361  0.73266  0.03197  1.0000
  S   S148      1.0  0.65068  0.69694  0.13112  1.0000
  H   H599      1.0  0.84160  0.58476  0.18199  1.0000
  H   H600      1.0  0.64172  0.73599  0.05229  1.0000
  H   H601      1.0  0.78210  0.55984  0.17461  1.0000
  N   N39       1.0  0.76058  0.78068  0.08447  1.0000
  C   C378      1.0  0.71016  0.79796  0.21748  1.0000
  Fe  Fe74      1.0  0.86390  0.63463  0.23535  1.0000
  S   S149      1.0  0.83712  0.64928  0.19727  1.0000
  C   C379      1.0  0.78119  0.80149  0.09265  1.0000
  S   S150      1.0  0.89639  0.59644  0.23201  1.0000
  S   S151      1.0  0.70311  0.72371  0.06321  1.0000
  S   S152      1.0  0.71258  0.72462  0.14377  1.0000
  S   S153      1.0  0.69920  0.66088  0.19844  1.0000
  C   C380      1.0  0.73114  0.78918  0.09640  1.0000
  H   H602      1.0  0.75333  0.80293  0.04314  1.0000
  H   H603      1.0  0.64613  0.79579  0.19438  1.0000
  H   H604      1.0  0.72994  0.83909  0.21672  1.0000
  H   H605      1.0  0.76735  0.56784  0.20997  1.0000
  H   H606      1.0  0.73030  0.78861  0.12036  1.0000
  H   H607      1.0  0.79243  0.63887  0.24372  1.0000
  H   H608      1.0  0.57282  0.78615  0.22989  1.0000
  C   C381      1.0  0.76960  0.75106  0.09618  1.0000
  C   C382      1.0  0.79880  0.65286  0.19886  1.0000
  C   C383      1.0  0.78489  0.66197  0.17357  1.0000
  C   C384      1.0  0.75446  0.66439  0.17337  1.0000
  C   C385      1.0  0.73754  0.65780  0.19851  1.0000
  C   C386      1.0  0.75141  0.64824  0.22382  1.0000
  C   C387      1.0  0.78199  0.64601  0.22409  1.0000
  H   H609      1.0  0.79772  0.66685  0.15387  1.0000
  H   H610      1.0  0.74411  0.67048  0.15347  1.0000
  H   H611      1.0  0.53006  0.73606  0.07746  1.0000
  H   H612      1.0  0.78856  0.59371  0.18915  1.0000
  H   H613      1.0  0.78214  0.77464  0.04293  1.0000
  C   C388      1.0  0.76032  0.78101  0.05273  1.0000
  C   C389      1.0  0.72098  0.82147  0.23020  1.0000
  H   H614      1.0  0.81044  0.75286  0.23434  1.0000
  Fe  Fe75      1.0  0.68158  0.72759  0.10804  1.0000
  S   S154      1.0  0.97366  0.61919  0.23658  1.0000
  H   H615      1.0  0.79171  0.74389  0.08765  1.0000
  S   S155      1.0  0.70952  0.79808  0.17961  1.0000
  H   H616      1.0  0.85903  0.55119  0.19576  1.0000
  Fe  Fe76      1.0  0.68048  0.69691  0.16812  1.0000
  Fe  Fe77      1.0  0.68635  0.76187  0.16209  1.0000
  H   H617      1.0  0.74494  0.76544  0.04594  1.0000
  H   H618      1.0  0.76978  0.74990  0.12011  1.0000
  C   C390      1.0  0.68363  0.72620  0.03138  1.0000
  N   N40       1.0  0.81337  0.55654  0.20738  1.0000
  C   C391      1.0  0.69890  0.77522  0.23514  1.0000
  H   H619      1.0  0.71495  0.77426  0.09022  1.0000
  C   C392      1.0  0.76031  0.72670  0.24539  1.0000
  H   H620      1.0  0.89383  0.53200  0.23331  1.0000
  H   H621      1.0  0.82076  0.59396  0.23009  1.0000
  C   C393      1.0  0.49880  0.71214  0.17671  1.0000
  H   H622      1.0  0.78155  0.80188  0.11653  1.0000
  C   C394      1.0  0.81035  0.52500  0.21377  1.0000
  C   C395      1.0  0.69879  0.72201  0.00479  1.0000
  H   H623      1.0  0.80372  0.79565  0.08424  1.0000
  H   H624      1.0  0.75453  0.73476  0.09035  1.0000
  H   H625      1.0  0.72372  0.81156  0.08841  1.0000
  H   H626      1.0  0.69150  0.75652  0.22576  1.0000
  H   H627      1.0  0.75768  0.74629  0.23020  1.0000
  H   H628      1.0  0.72201  0.71694  0.00414  1.0000
  H   H629      1.0  0.60093  0.77001  0.20694  1.0000
  C   C396      1.0  0.78667  0.57000  0.19472  1.0000
  C   C397      1.0  0.49794  0.74196  0.16888  1.0000
  H   H630      1.0  0.83577  0.55127  0.16613  1.0000
  C   C398      1.0  0.81802  0.57027  0.23429  1.0000
  H   H631      1.0  0.81772  0.71396  0.23712  1.0000
  C   C399      1.0  0.59690  0.83729  0.23313  1.0000
  H   H632      1.0  0.82999  0.51433  0.22379  1.0000
  H   H633      1.0  0.61576  0.74017  0.00680  1.0000
  H   H634      1.0  0.79151  0.52089  0.22917  1.0000
  H   H635      1.0  0.79951  0.56760  0.25041  1.0000
  S   S156      1.0  0.89550  0.66340  0.25256  1.0000
  H   H636      1.0  0.61247  0.85171  0.24151  1.0000
  C   C400      1.0  0.62538  0.79423  0.24953  1.0000
  Fe  Fe78      1.0  0.92659  0.62357  0.25356  1.0000
  H   H637      1.0  0.57970  0.83332  0.25042  1.0000
  Fe  Fe79      1.0  0.88011  0.58268  0.27665  1.0000
  S   S157      1.0  0.91227  0.60719  0.29831  1.0000
  H   H638      1.0  0.66566  0.90654  0.43577  1.0000
  Fe  Fe80      1.0  0.87882  0.64496  0.29579  1.0000
  S   S158      1.0  0.86318  0.67013  0.33412  1.0000
  H   H639      1.0  0.69705  0.89681  0.41309  1.0000
  S   S159      1.0  0.86960  0.53661  0.29202  1.0000
  Fe  Fe81      1.0  0.79662  0.82517  0.34750  1.0000
  S   S160      1.0  0.76366  0.79347  0.36265  1.0000
  S   S161      1.0  0.83880  0.80721  0.32652  1.0000
  Fe  Fe82      1.0  0.75711  0.87745  0.36506  1.0000
  S   S162      1.0  0.72116  0.84847  0.38054  1.0000
  S   S163      1.0  0.74532  0.92402  0.37692  1.0000
  Fe  Fe83      1.0  0.75625  0.82006  0.40119  1.0000
  S   S164      1.0  0.75020  0.79764  0.44574  1.0000
  Fe  Fe84      1.0  0.73227  0.82495  0.34033  1.0000
  S   S165      1.0  0.79184  0.84967  0.38793  1.0000
  S   S166      1.0  0.76546  0.85593  0.32295  1.0000
  C   C401      1.0  0.75728  0.95593  0.35789  1.0000
  H   H640      1.0  0.87421  0.75152  0.46133  1.0000
  C   C402      1.0  0.77882  0.95494  0.33559  1.0000
  C   C403      1.0  0.69681  0.77676  0.26516  1.0000
  H   H641      1.0  0.78811  0.93414  0.32895  1.0000
  C   C404      1.0  0.75894  0.81465  0.47663  1.0000
  C   C405      1.0  0.73694  0.90652  0.45031  1.0000
  C   C406      1.0  0.77293  0.84072  0.47422  1.0000
  H   H642      1.0  0.74628  0.89227  0.43330  1.0000
  H   H643      1.0  0.77900  0.85053  0.45321  1.0000
  H   H644      1.0  0.79219  0.75937  0.29767  1.0000
  H   H645      1.0  0.72851  0.98407  0.38324  1.0000
  H   H646      1.0  0.80228  0.70553  0.30164  1.0000
  C   C407      1.0  0.68919  0.90987  0.43151  1.0000
  H   H647      1.0  0.97518  0.66282  0.27930  1.0000
  C   C408      1.0  0.70278  0.87046  0.46594  1.0000
  C   C409      1.0  0.74538  0.98311  0.36620  1.0000
  C   C410      1.0  0.85597  0.70805  0.33024  1.0000
  C   C411      1.0  0.83585  0.72104  0.34980  1.0000
  C   C412      1.0  0.83002  0.75127  0.34817  1.0000
  C   C413      1.0  0.84474  0.76897  0.32747  1.0000
  C   C414      1.0  0.86494  0.75600  0.30780  1.0000
  C   C415      1.0  0.87030  0.72552  0.30893  1.0000
  H   H648      1.0  0.82471  0.70757  0.36627  1.0000
  H   H649      1.0  0.81487  0.76089  0.36363  1.0000
  H   H650      1.0  0.87657  0.76956  0.29178  1.0000
  H   H651      1.0  0.88612  0.71566  0.29393  1.0000
  H   H652      1.0  0.72700  0.84138  0.26999  1.0000
  C   C416      1.0  0.71942  0.82276  0.26037  1.0000
  H   H653      1.0  0.70724  0.91372  0.50084  1.0000
  S   S167      1.0  0.70017  0.80339  0.31521  1.0000
  H   H654      1.0  0.77319  0.77615  0.26775  1.0000
  N   N41       1.0  0.83745  0.76446  0.43608  1.0000
  C   C417      1.0  0.85414  0.74262  0.45428  1.0000
  C   C418      1.0  0.85555  0.77332  0.41014  1.0000
  C   C419      1.0  0.82900  0.79022  0.45256  1.0000
  C   C420      1.0  0.81103  0.75167  0.42739  1.0000
  H   H655      1.0  0.75428  0.75414  0.29494  1.0000
  H   H656      1.0  0.86080  0.72284  0.44247  1.0000
  H   H657      1.0  0.84347  0.78955  0.39569  1.0000
  H   H658      1.0  0.69149  0.93311  0.42402  1.0000
  H   H659      1.0  0.73999  0.92939  0.44203  1.0000
  H   H660      1.0  0.84828  0.80054  0.45960  1.0000
  H   H661      1.0  0.81623  0.80701  0.43942  1.0000
  C   C421      1.0  0.87677  0.50682  0.27023  1.0000
  H   H662      1.0  0.81515  0.78437  0.47221  1.0000
  H   H663      1.0  0.79794  0.76751  0.41357  1.0000
  H   H664      1.0  0.79655  0.74530  0.44642  1.0000
  H   H665      1.0  0.81644  0.73199  0.41510  1.0000
  H   H666      1.0  0.68717  0.75949  0.27861  1.0000
  H   H667      1.0  0.71461  0.86365  0.48570  1.0000
  N   N42       1.0  0.70595  0.90158  0.45721  1.0000
  H   H668      1.0  0.76438  0.70054  0.29856  1.0000
  H   H669      1.0  0.71162  0.85615  0.44875  1.0000
  S   S168      1.0  0.84519  0.61894  0.27845  1.0000
  C   C422      1.0  0.70661  0.80073  0.27786  1.0000
  H   H670      1.0  0.79114  0.68380  0.27431  1.0000
  H   H671      1.0  0.84155  0.98699  0.43404  1.0000
  H   H672      1.0  0.80550  0.97809  0.42678  1.0000
  H   H673      1.0  0.69722  0.94311  0.47528  1.0000
  H   H674      1.0  0.87549  0.78342  0.41584  1.0000
  H   H675      1.0  0.86260  0.75436  0.39729  1.0000
  H   H676      1.0  0.75004  0.90199  0.46956  1.0000
  H   H677      1.0  0.84103  0.73551  0.47403  1.0000
  H   H678      1.0  0.60899  0.78918  0.26731  1.0000
  C   C423      1.0  0.78525  0.70381  0.28597  1.0000
  H   H679      1.0  0.67962  0.86571  0.47059  1.0000
  H   H680      1.0  0.64179  0.80745  0.25828  1.0000
  C   C424      1.0  0.69499  0.91951  0.48109  1.0000
  H   H681      1.0  0.67164  0.91636  0.48688  1.0000
  H   H682      1.0  0.82889  0.73576  0.26449  1.0000
  C   C425      1.0  0.77535  0.75600  0.28225  1.0000
  N   N43       1.0  0.78302  0.72997  0.26584  1.0000
  C   C426      1.0  0.77882  0.85434  0.49913  1.0000
  H   H683      1.0  0.78940  0.87468  0.49719  1.0000
  C   C427      1.0  0.78859  0.98101  0.32198  1.0000
  H   H684      1.0  0.80548  0.98012  0.30492  1.0000
  H   H685      1.0  0.73880  0.72349  0.25682  1.0000
  H   H686      1.0  0.74098  0.87034  0.71376  1.0000
  H   H687      1.0  0.67039  0.76570  0.72191  1.0000
  H   H688      1.0  0.74113  0.78150  0.50612  1.0000
  S   S169      1.0  0.90069  0.58954  0.72156  1.0000
  Fe  Fe85      1.0  0.86732  0.62754  0.72227  1.0000
  S   S170      1.0  0.83672  0.64881  0.68982  1.0000
  C   C428      1.0  0.70329  0.91279  0.69257  1.0000
  H   H689      1.0  0.71833  0.90363  0.67551  1.0000
  Fe  Fe86      1.0  0.77690  0.84370  0.60342  1.0000
  S   S171      1.0  0.81541  0.85688  0.62604  1.0000
  S   S172      1.0  0.77621  0.86174  0.55678  1.0000
  Fe  Fe87      1.0  0.74970  0.81617  0.65975  1.0000
  S   S173      1.0  0.78610  0.82801  0.68535  1.0000
  S   S174      1.0  0.71279  0.79196  0.68252  1.0000
  Fe  Fe88      1.0  0.78254  0.87133  0.66028  1.0000
  S   S175      1.0  0.77951  0.91227  0.68509  1.0000
  Fe  Fe89      1.0  0.81460  0.81215  0.64862  1.0000
  S   S176      1.0  0.85420  0.78301  0.65966  1.0000
  S   S177      1.0  0.74399  0.86056  0.63684  1.0000
  S   S178      1.0  0.77848  0.79787  0.62370  1.0000
  C   C429      1.0  0.77820  0.94638  0.66533  1.0000
  H   H690      1.0  0.74088  0.69548  0.70757  1.0000
  C   C430      1.0  0.72571  0.88125  0.72957  1.0000
  C   C431      1.0  0.78477  0.94841  0.63567  1.0000
  H   H691      1.0  0.69977  0.85488  0.68945  1.0000
  H   H692      1.0  0.79038  0.97720  0.59765  1.0000
  H   H693      1.0  0.79036  0.92888  0.62441  1.0000
  N   N44       1.0  0.69793  0.89090  0.71666  1.0000
  H   H694      1.0  0.86960  0.52068  0.72305  1.0000
  C   C432      1.0  0.86895  0.49966  0.73483  1.0000
  C   C433      1.0  0.84199  0.68574  0.67988  1.0000
  C   C434      1.0  0.86947  0.69674  0.68020  1.0000
  C   C435      1.0  0.87304  0.72649  0.67337  1.0000
  C   C436      1.0  0.84918  0.74549  0.66629  1.0000
  C   C437      1.0  0.82167  0.73449  0.66591  1.0000
  C   C438      1.0  0.81817  0.70463  0.67235  1.0000
  H   H695      1.0  0.88807  0.68225  0.68537  1.0000
  H   H696      1.0  0.89439  0.73481  0.67358  1.0000
  H   H697      1.0  0.80311  0.74893  0.66060  1.0000
  H   H698      1.0  0.79691  0.69620  0.67177  1.0000
  H   H699      1.0  0.68710  0.92300  0.74747  1.0000
  C   C439      1.0  0.70847  0.79049  0.72049  1.0000
  H   H700      1.0  0.73354  0.72997  0.72292  1.0000
  C   C440      1.0  0.72733  0.80404  0.73696  1.0000
  H   H701      1.0  0.74511  0.81526  0.72669  1.0000
  C   C441      1.0  0.75779  0.81542  0.52907  1.0000
  C   C442      1.0  0.77096  0.84198  0.52660  1.0000
  C   C443      1.0  0.78475  0.97584  0.62055  1.0000
  H   H702      1.0  0.75165  0.80573  0.55017  1.0000
  H   H703      1.0  0.76579  0.97050  0.70262  1.0000
  H   H704      1.0  0.82847  0.77026  0.72028  1.0000
  H   H705      1.0  0.69606  0.67792  0.73237  1.0000
  H   H706      1.0  0.72241  0.86560  0.74853  1.0000
  H   H707      1.0  0.76787  0.70995  0.72765  1.0000
  C   C444      1.0  0.67784  0.90392  0.73876  1.0000
  H   H708      1.0  0.66416  0.87198  0.69549  1.0000
  C   C445      1.0  0.68528  0.77606  0.73448  1.0000
  H   H709      1.0  0.73691  0.89995  0.73674  1.0000
  H   H710      1.0  0.71372  0.93194  0.69984  1.0000
  C   C446      1.0  0.77093  0.97194  0.67965  1.0000
  H   H711      1.0  0.74390  0.65004  0.73925  1.0000
  C   C447      1.0  0.68494  0.86558  0.70581  1.0000
  H   H712      1.0  0.68285  0.92079  0.68234  1.0000
  C   C448      1.0  0.74413  0.70773  0.72680  1.0000
  C   C449      1.0  0.84576  0.76784  0.73615  1.0000
  H   H713      1.0  0.68035  0.84872  0.72348  1.0000
  H   H714      1.0  0.65663  0.91145  0.72977  1.0000
  S   S179      1.0  0.97442  0.61785  0.73215  1.0000
  C   C450      1.0  0.70051  0.69018  0.75123  1.0000
  H   H715      1.0  0.81978  0.71842  0.73161  1.0000
  H   H716      1.0  0.86648  0.76173  0.72395  1.0000
  H   H717      1.0  0.85745  0.70983  0.73665  1.0000
  H   H718      1.0  0.84792  0.78968  0.74427  1.0000
  S   S180      1.0  0.89481  0.65583  0.74495  1.0000
  Fe  Fe90      1.0  0.92685  0.61692  0.74756  1.0000
  H   H719      1.0  0.68866  0.71195  0.74878  1.0000
  C   C451      1.0  0.83665  0.71734  0.74776  1.0000
  C   C452      1.0  0.75178  0.80181  0.50410  1.0000
  N   N45       1.0  0.73201  0.69283  0.75351  1.0000
  Fe  Fe91      1.0  0.62279  0.71235  0.84806  1.0000
  S   S181      1.0  0.62890  0.75457  0.86747  1.0000
  S   S182      1.0  0.58156  0.69700  0.83142  1.0000
  H   H720      1.0  0.57101  0.73955  0.94327  1.0000
  C   C453      1.0  0.55265  0.68085  0.90949  1.0000
  C   C454      1.0  0.77558  0.52369  0.83939  1.0000
  H   H721      1.0  0.58419  0.72714  0.90912  1.0000
  C   C455      1.0  0.58285  0.68234  0.94988  1.0000
  H   H722      1.0  0.53532  0.71031  0.97351  1.0000
  H   H723      1.0  0.54810  0.65785  0.91577  1.0000
  H   H724      1.0  0.60300  0.68148  0.93557  1.0000
  C   C456      1.0  0.54702  0.71312  0.84150  1.0000
  C   C457      1.0  0.52193  0.69846  0.83757  1.0000
  H   H725      1.0  0.79830  0.54947  0.88291  1.0000
  C   C458      1.0  0.51668  0.75091  0.86433  1.0000
  C   C459      1.0  0.54423  0.73956  0.85464  1.0000
  H   H726      1.0  0.52391  0.67801  0.82732  1.0000
  H   H727      1.0  0.51473  0.77136  0.87458  1.0000
  H   H728      1.0  0.56332  0.75124  0.85741  1.0000
  H   H729      1.0  0.58791  0.69420  0.96885  1.0000
  C   C460      1.0  0.56525  0.72707  0.92501  1.0000
  H   H730      1.0  0.82071  0.57292  0.86011  1.0000
  H   H731      1.0  0.52588  0.67577  0.96204  1.0000
  C   C461      1.0  0.53191  0.69806  0.95435  1.0000
  N   N46       1.0  0.55817  0.69706  0.93470  1.0000
  H   H732      1.0  0.57165  0.68058  0.89361  1.0000
  H   H733      1.0  0.77044  0.66458  0.76003  1.0000
  H   H734      1.0  0.54669  0.73931  0.91464  1.0000
  S   S183      1.0  0.64366  0.68461  0.88351  1.0000
  H   H735      1.0  0.66257  0.76485  0.77522  1.0000
  S   S184      1.0  0.63442  0.73405  0.94785  1.0000
  S   S185      1.0  0.66420  0.71365  0.82034  1.0000
  Fe  Fe92      1.0  0.65204  0.72688  0.90199  1.0000
  C   C462      1.0  0.65409  0.73077  0.97956  1.0000
  Fe  Fe93      1.0  0.68581  0.68981  0.85754  1.0000
  S   S186      1.0  0.69622  0.72966  0.87906  1.0000
  S   S187      1.0  0.71700  0.65190  0.84620  1.0000
  Fe  Fe94      1.0  0.87289  0.63615  0.78518  1.0000
  S   S188      1.0  0.85129  0.66715  0.81687  1.0000
  C   C463      1.0  0.74666  0.66348  0.75775  1.0000
  C   C464      1.0  0.69952  0.78961  0.78094  1.0000
  H   H736      1.0  0.83130  0.70018  0.76486  1.0000
  S   S189      1.0  0.90800  0.60017  0.79060  1.0000
  C   C465      1.0  0.68087  0.77548  0.76465  1.0000
  S   S190      1.0  0.69423  0.79067  0.81853  1.0000
  H   H737      1.0  0.77648  0.50745  0.82267  1.0000
  H   H738      1.0  0.82775  0.56603  0.80861  1.0000
  H   H739      1.0  0.73725  0.81475  0.77948  1.0000
  C   C466      1.0  0.75425  0.65697  0.83892  1.0000
  C   C467      1.0  0.77185  0.63398  0.82800  1.0000
  C   C468      1.0  0.80159  0.63691  0.82162  1.0000
  C   C469      1.0  0.81401  0.66303  0.82567  1.0000
  C   C470      1.0  0.79645  0.68611  0.83677  1.0000
  C   C471      1.0  0.76657  0.68315  0.84331  1.0000
  H   H740      1.0  0.76230  0.61384  0.82444  1.0000
  H   H741      1.0  0.81508  0.61872  0.81425  1.0000
  H   H742      1.0  0.80599  0.70622  0.84056  1.0000
  H   H743      1.0  0.75319  0.70096  0.85198  1.0000
  H   H744      1.0  0.79308  0.75692  0.76018  1.0000
  C   C472      1.0  0.80084  0.56032  0.86093  1.0000
  H   H745      1.0  0.53361  0.69091  0.89806  1.0000
  H   H746      1.0  0.76014  0.71112  0.78178  1.0000
  H   H747      1.0  0.88376  0.73608  0.76941  1.0000
  C   C473      1.0  0.68410  0.72420  0.97897  1.0000
  C   C474      1.0  0.80739  0.55427  0.80988  1.0000
  N   N47       1.0  0.83906  0.74585  0.75978  1.0000
  H   H748      1.0  0.78917  0.57046  0.80490  1.0000
  C   C475      1.0  0.82750  0.51757  0.84374  1.0000
  H   H749      1.0  0.57844  0.65961  0.95750  1.0000
  Fe  Fe95      1.0  0.67229  0.75340  0.84283  1.0000
  H   H750      1.0  0.69078  0.67851  0.77083  1.0000
  C   C476      1.0  0.86261  0.74339  0.78015  1.0000
  H   H751      1.0  0.86545  0.76455  0.78942  1.0000
  H   H752      1.0  0.72656  0.69984  0.79865  1.0000
  C   C477      1.0  0.73665  0.70987  0.77840  1.0000
  H   H753      1.0  0.69598  0.72090  0.95864  1.0000
  Fe  Fe96      1.0  0.88048  0.57438  0.76450  1.0000
  C   C478      1.0  0.72276  0.80381  0.76698  1.0000
  S   S191      1.0  0.87401  0.52860  0.78431  1.0000
  H   H754      1.0  0.51293  0.70903  0.94334  1.0000
  H   H755      1.0  0.82477  0.50525  0.86497  1.0000
  S   S192      1.0  0.84424  0.60928  0.76232  1.0000
  H   H756      1.0  0.77139  0.51186  0.86070  1.0000
  H   H757      1.0  0.81239  0.77614  0.78447  1.0000
  N   N48       1.0  0.80280  0.53896  0.83852  1.0000
  H   H758      1.0  0.85808  0.72714  0.79840  1.0000
  H   H759      1.0  0.73769  0.65161  0.77760  1.0000
  H   H760      1.0  0.67336  0.88789  0.75723  1.0000
  H   H761      1.0  0.75651  0.53923  0.83541  1.0000
  H   H762      1.0  0.97818  0.63085  0.79218  1.0000
  H   H763      1.0  0.80562  0.73856  0.79299  1.0000
  H   H764      1.0  0.80962  0.53878  0.79242  1.0000
  H   H765      1.0  0.72678  0.73246  0.77562  1.0000
  H   H766      1.0  0.84841  0.52844  0.84326  1.0000
  C   C479      1.0  0.87110  0.49757  0.76469  1.0000
  H   H767      1.0  0.83003  0.50151  0.82681  1.0000
  H   H768      1.0  0.78196  0.57634  0.85819  1.0000
  C   C480      1.0  0.81127  0.75474  0.77502  1.0000
