data_image0
_chemical_formula_structural       SFeCHS2HNH3NCHCH4CH2CHSCH2C2HNC4H12CFeCSHCHFeCFeHC3HCH2FeHCSNH3FeHFeH2C2HCH3CH4CSCHSHSFeSCHFeS2FeS2H2CSHFeHCFeHSC3H5SC2FeNSHC4NC3H9SH3C2FeH3CHCSHSCHSHCHCHC5HC2H3FeSFe2S2FeSFeS3HS2CHC6H4C2HC3H3C6H5CH5CSH5C2H4NHCH4C2HCHCH3NHSCHCHCHC3HSCH4FeHNHNHCHFeS2FeS2FeSFeHS3HC6H4C5H5C3SH4C2H2SNC4H14C2HNH4C2H2CH4C2H2CH2FeS2CSH3SFeS2H2C2S2FeSFeCH2SCHC4H4SH2CHFe2NC2H3CH3CH2NH2FeCHCHFeHC2HS2NC4H6C2H2C3SHCH5CH3SCHFeSHCHFeSFeS2FeSFeS3HSC6H4C6H2FeHCHCH4SHC2H2CH2CHCHCH5NHNH3C2H2SH2CFeH2NHC2HSHSCH3C2HCH4CSHC2H7CFeNFeHSFeSC2SFeSFeS3H8CH6CHC7HCH5NH2SCH3CH3C2HSHC3HC2SC2HC2H2C4NHS2H3SCHC2H2SFeCFe2CS2HNSHSFeSH2FeSH2FeSC6H4CH3CHNHC4H4C2SHSC5HC2H2SHCH2CSH2NHFeH2SHC2HSHC2H3CH2CH4FeH2CH2CH2CH2FeS2FeSCFeSFeS3FeHSC2HFeHSC4H3C4H3C6H4CH10NHCHCH5NHC2HC2FeH2SH4SH4FeS2FeS2FeSFeS3CSH3CFeSHSCSC6SH5C2HC5H2C2FeHC2H4C6H4CNCH2CH4CH2N2H2CH9CHC4H2SHCH2NC2H8CHSFeS2FeS2FeSFeS3C5H2C6H4C6H3CH7S2H2NC4H13CHCH3CHCHNH3C2H2FeS2FeS2FeCFeS2HC2NH3C3H4SCH3CH2C2H3NHC2HCH3C2H5CH2FeSHFeS2Fe2S3HC6H4CH2C4H4CH3CHC2HNH5CHCNH3SCH4CH3C2H4CHSH3S2H2CHSC2HSHFeS3FeSNSFeSC6H6FeH4CH3C6H9CH5SHCHCH4CHNCH2SNC2HCNH4CFeSH2FeCFeS2FeSFeCS2HFeC7H4C6H4CH3NCHCH3CH2CSH2CSCH6NCH3SH2CH4CH4CHSCHFeSHFeS2FeSFeS2FeSHC5H2C6H6CH2CNHFeS2H3CH3CN2SH2CH2CHC2H4CHCHFeH7CSHFeSHFeSHFeHFeS3HFeSFeS2FeSFeS3H5CH2C6H6C4HSC7H4CH2CSHCH2C2H3CHNCNH2CH2CNSH4C3H7CH2CH2SH4FeS2FeS2FeSFeS3FeS2HC2HCH6CH2C6H4C3H2C6H5CH3NH2CH2SCH2CNCHCHCHC2HCHSH2CH6C2H5CNCH4CH5CHCHNCNH10CHCHCSHS2Fe2S2FeHFeS2H3S2C4H2CH2Fe2SHCHSCHC7H3FeH2C4H3NCHCH2C3HCH4CNHCFeHSC2HSH2SH11CS2HCHFeH2CFeC3S2CHSFeSHFeC2HC6H4CH3CHC2H2SH2C2SH3NC4H14SH2SNC2H2CHNCH3C3H2S2H3CHCFeH2SC2HFeS2H2NH2CFeS2FeS2FeHFeS2HC6H5CHC6H5CHSC5SH4NH2CHCSH4CH3NHCHNH2CH2CHCH2CH2CH3C2SH5C2H5NHCH2CH2SHFeSFeS2FeHFeS2HFeS2FeS2FeSFeHS2C3HC2H5C6H4C6H5N2C4H15CHCSH3CH2CH2C2HCSCH6CHCHCSHSH2C2SNHNH2SHCH4SC2H2CFeCHFeNH6C2H3CHSH2C2H2CH2SHCH2CFeHCHCH2CH2NCHCHC2HCH3FeCSC4H9CHS2CSFeHFeS2FeSHFeSHFe2S2C6H3NH3C2HC3H2CH5CH2CHCHCSH4CSH2C3HNCH4SC2H4CH3C3HSFeH3CNCHC2SHC2
_chemical_formula_sum              "S288 Fe144 C720 H1152 N72"
_cell_length_a       58.2448
_cell_length_b       58.0533
_cell_length_c       33.2582
_cell_angle_alpha    90.5
_cell_angle_beta     90.0777
_cell_angle_gamma    117.603

_space_group_name_H-M_alt    "P 1"
_space_group_IT_number       1

loop_
  _space_group_symop_operation_xyz
  'x, y, z'

loop_
  _atom_site_type_symbol
  _atom_site_label
  _atom_site_symmetry_multiplicity
  _atom_site_fract_x
  _atom_site_fract_y
  _atom_site_fract_z
  _atom_site_occupancy
  S   S1        1.0  0.18708  0.21292  0.41807  1.0000
  Fe  Fe1       1.0  0.17280  0.23256  0.46358  1.0000
  C   C1        1.0  0.21490  0.22020  0.20428  1.0000
  H   H1        1.0  0.09498  0.27076  0.45624  1.0000
  S   S2        1.0  0.19091  0.27095  0.43209  1.0000
  S   S3        1.0  0.18820  0.19522  0.05292  1.0000
  H   H2        1.0  0.06371  0.31628  0.07604  1.0000
  N   N1        1.0  0.00693  0.17874  0.42908  1.0000
  H   H3        1.0  0.19195  0.20750  0.30084  1.0000
  H   H4        1.0  0.02284  0.20986  0.38628  1.0000
  H   H5        1.0  0.01586  0.21904  0.43457  1.0000
  N   N2        1.0  0.15831  0.02563  0.04794  1.0000
  C   C2        1.0  0.16488  0.00733  0.06966  1.0000
  H   H6        1.0  0.98960  0.31748  0.04871  1.0000
  C   C3        1.0  0.17006  0.01686  0.47318  1.0000
  H   H7        1.0  0.12797  0.25498  0.45067  1.0000
  H   H8        1.0  0.15756  0.28662  0.99521  1.0000
  H   H9        1.0  0.99462  0.15504  0.48204  1.0000
  H   H10       1.0  0.17038  0.00095  0.45459  1.0000
  C   C4        1.0  0.21445  0.24593  0.27738  1.0000
  H   H11       1.0  0.00155  0.18818  0.48959  1.0000
  H   H12       1.0  0.19303  0.18500  0.23748  1.0000
  C   C5        1.0  0.13472  0.22113  0.99563  1.0000
  H   H13       1.0  0.15956  0.05750  0.48198  1.0000
  S   S4        1.0  0.21557  0.26321  0.32260  1.0000
  C   C6        1.0  0.13097  0.01905  0.05548  1.0000
  H   H14       1.0  0.14122  0.20654  0.99894  1.0000
  H   H15       1.0  0.16154  0.00766  0.10253  1.0000
  C   C7        1.0  0.22655  0.26010  0.24269  1.0000
  C   C8        1.0  0.20209  0.21875  0.27498  1.0000
  H   H16       1.0  0.04347  0.21363  0.42879  1.0000
  N   N3        1.0  0.16217  0.24036  0.13125  1.0000
  C   C9        1.0  0.15776  0.23500  0.17472  1.0000
  C   C10       1.0  0.19028  0.25283  0.12323  1.0000
  C   C11       1.0  0.15153  0.25788  0.11860  1.0000
  C   C12       1.0  0.14921  0.21568  0.10827  1.0000
  H   H17       1.0  0.16740  0.25317  0.19309  1.0000
  H   H18       1.0  0.16575  0.22189  0.18496  1.0000
  H   H19       1.0  0.13674  0.22548  0.18194  1.0000
  H   H20       1.0  0.19862  0.23951  0.13006  1.0000
  H   H21       1.0  0.19444  0.25831  0.09112  1.0000
  H   H22       1.0  0.20096  0.27081  0.14161  1.0000
  H   H23       1.0  0.13029  0.24907  0.12394  1.0000
  H   H24       1.0  0.15463  0.26215  0.08582  1.0000
  H   H25       1.0  0.16095  0.27678  0.13512  1.0000
  H   H26       1.0  0.15291  0.21901  0.07546  1.0000
  H   H27       1.0  0.12784  0.20608  0.11248  1.0000
  H   H28       1.0  0.15633  0.20173  0.11774  1.0000
  C   C13       1.0  0.09306  0.25448  0.47413  1.0000
  Fe  Fe2       1.0  0.21163  0.18330  0.01184  1.0000
  C   C14       1.0  0.00776  0.17538  0.47295  1.0000
  S   S5        1.0  0.21494  0.20284  0.15978  1.0000
  H   H29       1.0  0.00575  0.14197  0.41540  1.0000
  C   C15       1.0  0.20254  0.20603  0.23882  1.0000
  H   H30       1.0  0.12541  0.03245  0.03930  1.0000
  Fe  Fe3       1.0  0.20805  0.25237  0.38958  1.0000
  C   C16       1.0  0.97983  0.17015  0.41621  1.0000
  Fe  Fe4       1.0  0.22189  0.22632  0.45892  1.0000
  H   H31       1.0  0.16076  0.29594  0.48240  1.0000
  C   C17       1.0  0.01724  0.16296  0.40817  1.0000
  C   C18       1.0  0.17545  0.05249  0.06193  1.0000
  C   C19       1.0  0.02295  0.20646  0.41912  1.0000
  H   H32       1.0  0.12739  0.02034  0.08808  1.0000
  C   C20       1.0  0.11186  0.24568  0.47105  1.0000
  H   H33       1.0  0.19625  0.05764  0.05757  1.0000
  H   H34       1.0  0.17275  0.05505  0.09446  1.0000
  Fe  Fe5       1.0  0.20608  0.23321  0.02052  1.0000
  H   H35       1.0  0.17183  0.06699  0.04497  1.0000
  C   C21       1.0  0.16200  0.02357  0.00440  1.0000
  S   S6        1.0  0.02319  0.25710  0.00913  1.0000
  N   N4        1.0  0.14449  0.01638  0.47169  1.0000
  H   H36       1.0  0.18571  0.03568  0.46231  1.0000
  H   H37       1.0  0.01679  0.16492  0.37495  1.0000
  H   H38       1.0  0.11867  0.01830  0.42719  1.0000
  Fe  Fe6       1.0  0.22522  0.28060  0.47299  1.0000
  H   H39       1.0  0.02767  0.18038  0.48346  1.0000
  Fe  Fe7       1.0  0.22363  0.21298  0.09285  1.0000
  H   H40       1.0  0.03773  0.16910  0.41714  1.0000
  H   H41       1.0  0.18564  0.01233  0.06553  1.0000
  C   C22       1.0  0.22684  0.24738  0.20642  1.0000
  C   C23       1.0  0.14384  0.26617  0.99338  1.0000
  H   H42       1.0  0.22752  0.22267  0.35079  1.0000
  C   C24       1.0  0.13773  0.01827  0.42944  1.0000
  H   H43       1.0  0.15255  0.03645  0.41545  1.0000
  H   H44       1.0  0.21897  0.18949  0.33799  1.0000
  H   H45       1.0  0.10497  0.99027  0.48717  1.0000
  C   C25       1.0  0.22519  0.12400  0.01270  1.0000
  H   H46       1.0  0.13652  0.00159  0.41110  1.0000
  H   H47       1.0  0.18234  0.02811  0.99783  1.0000
  H   H48       1.0  0.11769  0.99886  0.04508  1.0000
  H   H49       1.0  0.19452  0.16441  0.48958  1.0000
  C   C26       1.0  0.12470  0.99180  0.48890  1.0000
  S   S7        1.0  0.18596  0.25812  0.00811  1.0000
  C   C27       1.0  0.15262  0.24749  0.99813  1.0000
  H   H50       1.0  0.14930  0.00361  0.99265  1.0000
  S   S8        1.0  0.13244  0.21261  0.49102  1.0000
  H   H51       1.0  0.19402  0.31897  0.49120  1.0000
  S   S9        1.0  0.06614  0.22161  0.97442  1.0000
  Fe  Fe8       1.0  0.03933  0.29539  0.97671  1.0000
  S   S10       1.0  0.06374  0.28552  0.93417  1.0000
  C   C28       1.0  0.09322  0.25851  0.87225  1.0000
  H   H52       1.0  0.17949  0.11916  0.51301  1.0000
  Fe  Fe9       1.0  0.02907  0.26813  0.89240  1.0000
  S   S11       1.0  0.03565  0.27559  0.82482  1.0000
  S   S12       1.0  0.01244  0.22854  0.91938  1.0000
  Fe  Fe10      1.0  0.00842  0.23544  0.53078  1.0000
  S   S13       1.0  0.22646  0.21997  0.97532  1.0000
  S   S14       1.0  0.18566  0.00047  0.92574  1.0000
  H   H53       1.0  0.17661  0.27566  0.57976  1.0000
  H   H54       1.0  0.08981  0.25549  0.90515  1.0000
  C   C29       1.0  0.06928  0.22109  0.52255  1.0000
  S   S15       1.0  0.20901  0.02994  0.57480  1.0000
  H   H55       1.0  0.08608  0.19593  0.53718  1.0000
  Fe  Fe11      1.0  0.22248  0.01288  0.52483  1.0000
  H   H56       1.0  0.11094  0.27322  0.98279  1.0000
  C   C30       1.0  0.01582  0.25795  0.78309  1.0000
  Fe  Fe12      1.0  0.04572  0.24643  0.96368  1.0000
  H   H57       1.0  0.05306  0.21165  0.54271  1.0000
  S   S16       1.0  0.99018  0.19978  0.56918  1.0000
  C   C31       1.0  0.00905  0.25374  0.70988  1.0000
  C   C32       1.0  0.02407  0.26698  0.74392  1.0000
  C   C33       1.0  0.14452  0.29494  0.55826  1.0000
  H   H58       1.0  0.05113  0.21346  0.88959  1.0000
  H   H59       1.0  0.01569  0.26100  0.68002  1.0000
  H   H60       1.0  0.04222  0.28439  0.73981  1.0000
  H   H61       1.0  0.16565  0.26560  0.52907  1.0000
  H   H62       1.0  0.98572  0.22806  0.81769  1.0000
  S   S17       1.0  0.00623  0.28134  0.93215  1.0000
  C   C34       1.0  0.17840  0.28260  0.54830  1.0000
  C   C35       1.0  0.21850  0.00138  0.70919  1.0000
  Fe  Fe13      1.0  0.22063  0.02033  0.96584  1.0000
  N   N5        1.0  0.17150  0.30401  0.54477  1.0000
  S   S18       1.0  0.99401  0.25837  0.56934  1.0000
  H   H63       1.0  0.09459  0.19315  0.98676  1.0000
  C   C36       1.0  0.14558  0.03860  0.49520  1.0000
  C   C37       1.0  0.22513  0.08396  0.98874  1.0000
  C   C38       1.0  0.20820  0.15677  0.49280  1.0000
  C   C39       1.0  0.19728  0.09960  0.95746  1.0000
  N   N6        1.0  0.08360  0.23343  0.85049  1.0000
  C   C40       1.0  0.08849  0.23831  0.80702  1.0000
  C   C41       1.0  0.05545  0.21790  0.85713  1.0000
  C   C42       1.0  0.09713  0.21907  0.86571  1.0000
  H   H64       1.0  0.08145  0.21981  0.78958  1.0000
  H   H65       1.0  0.10953  0.25015  0.80088  1.0000
  H   H66       1.0  0.07834  0.24906  0.79493  1.0000
  H   H67       1.0  0.04468  0.22843  0.84686  1.0000
  H   H68       1.0  0.04737  0.19899  0.84064  1.0000
  H   H69       1.0  0.09355  0.21503  0.89847  1.0000
  H   H70       1.0  0.11848  0.23035  0.86179  1.0000
  H   H71       1.0  0.09042  0.20002  0.84999  1.0000
  H   H72       1.0  0.08334  0.26983  0.86162  1.0000
  S   S19       1.0  0.04837  0.25377  0.50172  1.0000
  H   H73       1.0  0.19875  0.28891  0.53887  1.0000
  H   H74       1.0  0.12884  0.99018  0.52115  1.0000
  H   H75       1.0  0.13073  0.27773  0.54044  1.0000
  C   C43       1.0  0.08805  0.21228  0.51943  1.0000
  C   C44       1.0  0.10948  0.22458  0.49385  1.0000
  Fe  Fe14      1.0  0.99158  0.24241  0.96193  1.0000
  H   H76       1.0  0.18297  0.09733  0.93484  1.0000
  H   H77       1.0  0.17526  0.01424  0.50436  1.0000
  H   H78       1.0  0.19932  0.06471  0.93918  1.0000
  C   C45       1.0  0.07166  0.24220  0.49977  1.0000
  H   H79       1.0  0.11442  0.27077  0.86811  1.0000
  C   C46       1.0  0.20647  0.08106  0.95989  1.0000
  S   S20       1.0  0.19477  0.14418  0.97912  1.0000
  H   H80       1.0  0.98514  0.28042  0.83843  1.0000
  S   S21       1.0  0.20544  0.08838  0.52753  1.0000
  C   C47       1.0  0.20665  0.12120  0.98372  1.0000
  H   H81       1.0  0.20934  0.99533  0.67998  1.0000
  S   S22       1.0  0.20627  0.24301  0.50672  1.0000
  H   H82       1.0  0.14218  0.28909  0.59037  1.0000
  C   C48       1.0  0.17389  0.31222  0.50237  1.0000
  H   H83       1.0  0.15762  0.03735  0.98692  1.0000
  C   C49       1.0  0.11743  0.25864  0.98629  1.0000
  H   H84       1.0  0.13835  0.31033  0.55495  1.0000
  C   C50       1.0  0.99229  0.23540  0.78784  1.0000
  C   C51       1.0  0.19973  0.13110  0.50606  1.0000
  C   C52       1.0  0.09951  0.23228  0.98400  1.0000
  C   C53       1.0  0.98548  0.23124  0.71456  1.0000
  C   C54       1.0  0.21747  0.99472  0.78228  1.0000
  H   H85       1.0  0.15219  0.03862  0.52670  1.0000
  C   C55       1.0  0.21725  0.12089  0.51085  1.0000
  C   C56       1.0  0.10831  0.21360  0.98864  1.0000
  H   H86       1.0  0.97967  0.30171  0.87213  1.0000
  H   H87       1.0  0.12637  0.03829  0.49651  1.0000
  H   H88       1.0  0.18884  0.32064  0.60207  1.0000
  Fe  Fe15      1.0  0.17571  0.48057  0.19238  1.0000
  S   S23       1.0  0.15913  0.44526  0.23108  1.0000
  Fe  Fe16      1.0  0.11372  0.64653  0.13859  1.0000
  Fe  Fe17      1.0  0.12641  0.48704  0.19929  1.0000
  S   S24       1.0  0.10639  0.45119  0.23754  1.0000
  S   S25       1.0  0.10157  0.50688  0.18498  1.0000
  Fe  Fe18      1.0  0.14432  0.46722  0.27106  1.0000
  S   S26       1.0  0.15065  0.46801  0.33946  1.0000
  Fe  Fe19      1.0  0.12273  0.43258  0.19383  1.0000
  S   S27       1.0  0.10398  0.39036  0.17047  1.0000
  S   S28       1.0  0.16379  0.50381  0.23454  1.0000
  S   S29       1.0  0.13989  0.46720  0.15357  1.0000
  H   H89       1.0  0.14584  0.47897  0.48589  1.0000
  S   S30       1.0  0.07508  0.63002  0.10730  1.0000
  S   S31       1.0  0.13894  0.62646  0.14795  1.0000
  C   C57       1.0  0.02433  0.62068  0.25699  1.0000
  H   H90       1.0  0.04500  0.62824  0.25304  1.0000
  C   C58       1.0  0.12808  0.59305  0.15754  1.0000
  C   C59       1.0  0.10174  0.57531  0.15935  1.0000
  C   C60       1.0  0.09399  0.54890  0.16706  1.0000
  C   C61       1.0  0.11243  0.53998  0.17308  1.0000
  C   C62       1.0  0.13877  0.55772  0.17126  1.0000
  C   C63       1.0  0.14652  0.58412  0.16348  1.0000
  H   H91       1.0  0.08736  0.58193  0.15482  1.0000
  H   H92       1.0  0.07357  0.53530  0.16848  1.0000
  H   H93       1.0  0.15317  0.55111  0.17576  1.0000
  H   H94       1.0  0.16694  0.59772  0.16203  1.0000
  C   C64       1.0  0.08974  0.37597  0.12324  1.0000
  C   C65       1.0  0.08144  0.34923  0.11701  1.0000
  H   H95       1.0  0.21275  0.45063  0.09537  1.0000
  C   C66       1.0  0.06718  0.35119  0.04876  1.0000
  C   C67       1.0  0.07570  0.37800  0.05486  1.0000
  C   C68       1.0  0.08687  0.39032  0.09181  1.0000
  H   H96       1.0  0.20047  0.42999  0.05171  1.0000
  H   H97       1.0  0.07357  0.38933  0.03086  1.0000
  H   H98       1.0  0.09301  0.41085  0.09606  1.0000
  C   C69       1.0  0.11946  0.48918  0.45487  1.0000
  C   C70       1.0  0.13815  0.48046  0.45695  1.0000
  C   C71       1.0  0.14729  0.47400  0.42141  1.0000
  C   C72       1.0  0.13777  0.47588  0.38325  1.0000
  C   C73       1.0  0.11874  0.48418  0.38120  1.0000
  C   C74       1.0  0.10982  0.49096  0.41672  1.0000
  H   H99       1.0  0.13497  0.53413  0.25190  1.0000
  H   H100      1.0  0.16192  0.46750  0.42352  1.0000
  H   H101      1.0  0.11083  0.48517  0.35227  1.0000
  H   H102      1.0  0.09513  0.49737  0.41475  1.0000
  H   H103      1.0  0.07677  0.52767  0.30656  1.0000
  C   C75       1.0  0.98280  0.32327  0.02109  1.0000
  H   H104      1.0  0.15857  0.43201  0.05746  1.0000
  H   H105      1.0  0.10578  0.57454  0.29177  1.0000
  H   H106      1.0  0.17227  0.45344  0.09997  1.0000
  H   H107      1.0  0.98925  0.34851  0.38278  1.0000
  H   H108      1.0  0.17026  0.37895  0.09757  1.0000
  C   C76       1.0  0.09213  0.52337  0.29426  1.0000
  S   S32       1.0  0.05206  0.33654  0.00210  1.0000
  H   H109      1.0  0.21252  0.41963  0.09404  1.0000
  H   H110      1.0  0.14062  0.38118  0.10180  1.0000
  H   H111      1.0  0.15802  0.40860  0.16158  1.0000
  H   H112      1.0  0.13536  0.56895  0.48552  1.0000
  H   H113      1.0  0.13982  0.58548  0.28376  1.0000
  C   C77       1.0  0.16136  0.43262  0.09063  1.0000
  C   C78       1.0  0.13789  0.53844  0.28471  1.0000
  H   H114      1.0  0.99525  0.32281  0.99600  1.0000
  H   H115      1.0  0.09039  0.61948  0.01782  1.0000
  H   H116      1.0  0.10817  0.55584  0.35793  1.0000
  H   H117      1.0  0.14184  0.42450  0.10462  1.0000
  N   N7        1.0  0.11826  0.54535  0.30092  1.0000
  H   H118      1.0  0.14235  0.56748  0.35045  1.0000
  C   C79       1.0  0.01288  0.61043  0.29442  1.0000
  H   H119      1.0  0.11658  0.56497  0.24731  1.0000
  H   H120      1.0  0.12188  0.53385  0.36087  1.0000
  H   H121      1.0  0.09018  0.50530  0.30863  1.0000
  H   H122      1.0  0.13692  0.52085  0.29952  1.0000
  C   C80       1.0  0.00908  0.62144  0.22500  1.0000
  C   C81       1.0  0.20137  0.43001  0.08515  1.0000
  H   H123      1.0  0.09253  0.59153  0.99919  1.0000
  C   C82       1.0  0.98222  0.61154  0.23088  1.0000
  H   H124      1.0  0.15592  0.63293  0.05073  1.0000
  C   C83       1.0  0.98607  0.60076  0.30040  1.0000
  H   H125      1.0  0.02493  0.61021  0.31904  1.0000
  H   H126      1.0  0.15818  0.38946  0.05543  1.0000
  H   H127      1.0  0.18708  0.43877  0.15890  1.0000
  N   N8        1.0  0.17516  0.41791  0.10287  1.0000
  H   H128      1.0  0.15789  0.55449  0.28899  1.0000
  S   S33       1.0  0.02247  0.63484  0.17744  1.0000
  C   C84       1.0  0.12284  0.55091  0.34448  1.0000
  H   H129      1.0  0.08349  0.33789  0.14109  1.0000
  C   C85       1.0  0.16047  0.39067  0.08874  1.0000
  H   H130      1.0  0.08799  0.51892  0.26160  1.0000
  C   C86       1.0  0.17739  0.41848  0.14716  1.0000
  H   H131      1.0  0.12763  0.60172  0.05101  1.0000
  C   C87       1.0  0.13475  0.62266  0.04415  1.0000
  C   C88       1.0  0.12020  0.56862  0.28017  1.0000
  C   C89       1.0  0.07025  0.33691  0.08007  1.0000
  H   H132      1.0  0.01891  0.36364  0.06234  1.0000
  S   S34       1.0  0.21439  0.49587  0.15946  1.0000
  C   C90       1.0  0.01154  0.36858  0.03449  1.0000
  H   H133      1.0  0.98281  0.37701  0.33120  1.0000
  H   H134      1.0  0.18878  0.40869  0.15764  1.0000
  H   H135      1.0  0.12535  0.63023  0.06596  1.0000
  H   H136      1.0  0.99072  0.39005  0.40296  1.0000
  Fe  Fe20      1.0  0.06433  0.65142  0.15460  1.0000
  H   H137      1.0  0.01355  0.38848  0.03857  1.0000
  N   N9        1.0  0.98441  0.34934  0.02583  1.0000
  H   H138      1.0  0.02463  0.36929  0.00960  1.0000
  N   N10       1.0  0.12890  0.62655  0.00224  1.0000
  H   H139      1.0  0.22051  0.46072  0.21644  1.0000
  C   C91       1.0  0.10053  0.61291  0.99573  1.0000
  H   H140      1.0  0.16301  0.60050  0.49073  1.0000
  Fe  Fe21      1.0  0.13570  0.47481  0.63618  1.0000
  S   S35       1.0  0.09946  0.45421  0.59829  1.0000
  S   S36       1.0  0.15439  0.44893  0.65170  1.0000
  Fe  Fe22      1.0  0.12755  0.52319  0.64436  1.0000
  S   S37       1.0  0.09062  0.50506  0.60844  1.0000
  S   S38       1.0  0.14731  0.56516  0.66740  1.0000
  Fe  Fe23      1.0  0.08095  0.46897  0.64435  1.0000
  S   S39       1.0  0.03992  0.44035  0.66470  1.0000
  Fe  Fe24      1.0  0.11248  0.49191  0.56557  1.0000
  H   H141      1.0  0.11988  0.56075  0.59369  1.0000
  S   S40       1.0  0.11653  0.48805  0.68344  1.0000
  S   S41       1.0  0.15000  0.51159  0.60026  1.0000
  S   S42       1.0  0.09887  0.64340  0.68705  1.0000
  H   H142      1.0  0.07226  0.65115  0.92029  1.0000
  C   C92       1.0  0.13310  0.58619  0.67451  1.0000
  C   C93       1.0  0.14894  0.61203  0.68703  1.0000
  C   C94       1.0  0.13880  0.62977  0.69124  1.0000
  C   C95       1.0  0.11264  0.62184  0.68288  1.0000
  C   C96       1.0  0.09681  0.59599  0.67034  1.0000
  C   C97       1.0  0.10692  0.57822  0.66628  1.0000
  H   H143      1.0  0.16922  0.61841  0.69347  1.0000
  H   H144      1.0  0.09340  0.42520  0.75140  1.0000
  H   H145      1.0  0.07654  0.58966  0.66392  1.0000
  H   H146      1.0  0.09442  0.55839  0.65690  1.0000
  C   C98       1.0  0.00322  0.41673  0.79052  1.0000
  C   C99       1.0  0.02926  0.43565  0.78670  1.0000
  C   C100      1.0  0.04072  0.44342  0.74855  1.0000
  C   C101      1.0  0.02634  0.43205  0.71364  1.0000
  C   C102      1.0  0.00031  0.41305  0.71747  1.0000
  H   H147      1.0  0.10598  0.57425  0.55910  1.0000
  H   H148      1.0  0.04064  0.44450  0.81348  1.0000
  H   H149      1.0  0.06067  0.45823  0.74623  1.0000
  H   H150      1.0  0.16421  0.56655  0.58399  1.0000
  H   H151      1.0  0.18418  0.34255  0.56903  1.0000
  C   C103      1.0  0.20436  0.48571  0.67368  1.0000
  C   C104      1.0  0.18714  0.45948  0.66670  1.0000
  C   C105      1.0  0.19594  0.44086  0.67235  1.0000
  S   S43       1.0  0.98986  0.40803  0.83950  1.0000
  H   H152      1.0  0.19790  0.50027  0.66959  1.0000
  H   H153      1.0  0.18283  0.42053  0.66703  1.0000
  H   H154      1.0  0.98763  0.35658  0.96217  1.0000
  H   H155      1.0  0.08062  0.43428  0.70873  1.0000
  C   C106      1.0  0.16213  0.57004  0.55161  1.0000
  C   C107      1.0  0.11914  0.56525  0.56148  1.0000
  H   H156      1.0  0.22816  0.43383  0.68897  1.0000
  H   H157      1.0  0.00118  0.49332  0.81944  1.0000
  S   S44       1.0  0.10839  0.49926  0.49852  1.0000
  N   N11       1.0  0.08139  0.39788  0.70192  1.0000
  C   C108      1.0  0.09838  0.38637  0.71327  1.0000
  C   C109      1.0  0.05520  0.38234  0.71866  1.0000
  C   C110      1.0  0.07961  0.39831  0.65762  1.0000
  C   C111      1.0  0.09245  0.42470  0.71799  1.0000
  H   H158      1.0  0.99610  0.48714  0.74493  1.0000
  H   H159      1.0  0.09073  0.36613  0.70154  1.0000
  H   H160      1.0  0.10033  0.38592  0.74651  1.0000
  H   H161      1.0  0.04205  0.39068  0.71023  1.0000
  H   H162      1.0  0.04623  0.36194  0.70726  1.0000
  H   H163      1.0  0.05571  0.38186  0.75209  1.0000
  H   H164      1.0  0.06704  0.40705  0.64799  1.0000
  H   H165      1.0  0.07132  0.37841  0.64433  1.0000
  H   H166      1.0  0.09907  0.40994  0.64402  1.0000
  H   H167      1.0  0.11828  0.39790  0.70089  1.0000
  H   H168      1.0  0.15121  0.64957  0.70093  1.0000
  H   H169      1.0  0.20962  0.33412  0.55974  1.0000
  H   H170      1.0  0.16287  0.62597  0.97826  1.0000
  H   H171      1.0  0.99448  0.46003  0.82459  1.0000
  C   C112      1.0  0.18924  0.32628  0.57008  1.0000
  C   C113      1.0  0.15631  0.60744  0.56917  1.0000
  H   H172      1.0  0.98900  0.40406  0.69068  1.0000
  N   N12       1.0  0.14532  0.58261  0.54636  1.0000
  H   H173      1.0  0.13725  0.61856  0.94232  1.0000
  H   H174      1.0  0.11249  0.43681  0.70681  1.0000
  H   H175      1.0  0.17584  0.62130  0.55803  1.0000
  H   H176      1.0  0.15402  0.55086  0.53570  1.0000
  C   C114      1.0  0.22166  0.44833  0.68476  1.0000
  C   C115      1.0  0.14144  0.61601  0.97421  1.0000
  H   H177      1.0  0.11011  0.54641  0.54463  1.0000
  H   H178      1.0  0.18196  0.58231  0.53993  1.0000
  C   C116      1.0  0.98876  0.40549  0.75563  1.0000
  H   H179      1.0  0.15854  0.60432  0.60165  1.0000
  H   H180      1.0  0.13453  0.59486  0.97903  1.0000
  H   H181      1.0  0.14361  0.61700  0.56742  1.0000
  H   H182      1.0  0.09518  0.61669  0.96522  1.0000
  C   C117      1.0  0.14359  0.58749  0.50323  1.0000
  C   C118      1.0  0.98533  0.47311  0.82257  1.0000
  H   H183      1.0  0.13089  0.59682  0.49827  1.0000
  H   H184      1.0  0.16905  0.32850  0.49854  1.0000
  C   C119      1.0  0.98055  0.46707  0.75054  1.0000
  H   H185      1.0  0.98997  0.45423  0.75114  1.0000
  H   H186      1.0  0.07378  0.73710  0.36924  1.0000
  Fe  Fe25      1.0  0.11725  0.70028  0.14747  1.0000
  S   S45       1.0  0.07849  0.68758  0.11702  1.0000
  S   S46       1.0  0.13881  0.74172  0.17243  1.0000
  C   C120      1.0  0.02688  0.73245  0.14633  1.0000
  S   S47       1.0  0.19890  0.97497  0.49048  1.0000
  H   H187      1.0  0.02628  0.68716  0.16442  1.0000
  H   H188      1.0  0.12434  0.71452  0.99535  1.0000
  H   H189      1.0  0.19985  0.82198  0.07395  1.0000
  S   S48       1.0  0.13140  0.68232  0.09977  1.0000
  Fe  Fe26      1.0  0.03732  0.82486  0.40350  1.0000
  S   S49       1.0  0.02150  0.84823  0.43784  1.0000
  S   S50       1.0  0.04593  0.82692  0.33552  1.0000
  H   H190      1.0  0.16374  0.92967  0.44619  1.0000
  H   H191      1.0  0.01991  0.68744  0.11170  1.0000
  C   C121      1.0  0.99062  0.77615  0.25714  1.0000
  C   C122      1.0  0.98438  0.70465  0.11879  1.0000
  S   S51       1.0  0.01510  0.78877  0.43971  1.0000
  S   S52       1.0  0.07283  0.83875  0.44339  1.0000
  Fe  Fe27      1.0  0.02309  0.80370  0.03213  1.0000
  S   S53       1.0  0.01312  0.76620  0.06422  1.0000
  Fe  Fe28      1.0  0.05553  0.85918  0.48020  1.0000
  C   C123      1.0  0.21145  0.79878  0.19913  1.0000
  H   H192      1.0  0.10610  0.76365  0.37179  1.0000
  H   H193      1.0  0.11669  0.89963  0.45277  1.0000
  S   S54       1.0  0.00347  0.81675  0.07859  1.0000
  C   C124      1.0  0.00148  0.78549  0.21915  1.0000
  H   H194      1.0  0.21982  0.81648  0.21695  1.0000
  C   C125      1.0  0.00360  0.78876  0.29303  1.0000
  C   C126      1.0  0.02784  0.81079  0.29142  1.0000
  C   C127      1.0  0.03872  0.82003  0.25340  1.0000
  C   C128      1.0  0.02560  0.80763  0.21752  1.0000
  H   H195      1.0  0.05748  0.83701  0.25168  1.0000
  H   H196      1.0  0.03434  0.81508  0.18868  1.0000
  H   H197      1.0  0.17315  0.82104  0.10230  1.0000
  H   H198      1.0  0.03580  0.73541  0.11599  1.0000
  S   S55       1.0  0.98437  0.76833  0.17499  1.0000
  H   H199      1.0  0.04768  0.76464  0.41411  1.0000
  H   H200      1.0  0.99217  0.70687  0.08770  1.0000
  C   C129      1.0  0.12633  0.91521  0.47444  1.0000
  H   H201      1.0  0.21374  0.87748  0.16836  1.0000
  Fe  Fe29      1.0  0.99084  0.77801  0.10773  1.0000
  Fe  Fe30      1.0  0.00139  0.81280  0.47675  1.0000
  N   N13       1.0  0.00382  0.70674  0.14924  1.0000
  C   C130      1.0  0.17310  0.75994  0.17505  1.0000
  C   C131      1.0  0.18932  0.75225  0.15426  1.0000
  H   H202      1.0  0.04099  0.77876  0.37054  1.0000
  H   H203      1.0  0.03603  0.74588  0.36860  1.0000
  H   H204      1.0  0.18110  0.85392  0.15586  1.0000
  C   C132      1.0  0.18433  0.78328  0.19750  1.0000
  H   H205      1.0  0.18098  0.73435  0.13688  1.0000
  H   H206      1.0  0.20249  0.84386  0.18021  1.0000
  H   H207      1.0  0.17196  0.78930  0.21389  1.0000
  C   C133      1.0  0.20148  0.85719  0.15724  1.0000
  H   H208      1.0  0.04202  0.73462  0.16871  1.0000
  H   H209      1.0  0.16017  0.66559  0.99947  1.0000
  N   N14       1.0  0.21035  0.85287  0.11757  1.0000
  H   H210      1.0  0.18812  0.86723  0.08387  1.0000
  H   H211      1.0  0.00664  0.70519  0.21353  1.0000
  Fe  Fe31      1.0  0.09175  0.66726  0.07191  1.0000
  C   C134      1.0  0.11351  0.91349  0.99495  1.0000
  H   H212      1.0  0.98672  0.71930  0.19628  1.0000
  C   C135      1.0  0.21643  0.76787  0.15561  1.0000
  H   H213      1.0  0.12987  0.66326  0.01569  1.0000
  Fe  Fe32      1.0  0.04955  0.80391  0.48171  1.0000
  H   H214      1.0  0.08522  0.75595  0.41480  1.0000
  C   C136      1.0  0.19395  0.82572  0.10413  1.0000
  C   C137      1.0  0.99255  0.70386  0.18983  1.0000
  H   H215      1.0  0.19537  0.81163  0.12516  1.0000
  S   S56       1.0  0.10211  0.66560  0.18844  1.0000
  S   S57       1.0  0.08062  0.66226  0.00491  1.0000
  N   N15       1.0  0.07597  0.77508  0.36719  1.0000
  C   C138      1.0  0.07680  0.77634  0.32280  1.0000
  C   C139      1.0  0.09230  0.80129  0.38422  1.0000
  C   C140      1.0  0.08573  0.75713  0.38129  1.0000
  C   C141      1.0  0.04897  0.76565  0.38067  1.0000
  H   H216      1.0  0.06462  0.75692  0.30888  1.0000
  H   H217      1.0  0.09692  0.78353  0.31150  1.0000
  H   H218      1.0  0.06945  0.78979  0.31158  1.0000
  H   H219      1.0  0.11288  0.80899  0.37510  1.0000
  H   H220      1.0  0.08558  0.81539  0.37387  1.0000
  H   H221      1.0  0.09176  0.80113  0.41774  1.0000
  C   C142      1.0  0.20849  0.87084  0.08801  1.0000
  C   C143      1.0  0.01148  0.68606  0.14213  1.0000
  H   H222      1.0  0.99494  0.78132  0.32192  1.0000
  H   H223      1.0  0.02183  0.74852  0.15193  1.0000
  C   C144      1.0  0.08275  0.85910  0.00346  1.0000
  C   C145      1.0  0.15298  0.93234  0.47071  1.0000
  C   C146      1.0  0.07246  0.87601  0.01269  1.0000
  S   S58       1.0  0.06439  0.82491  0.00851  1.0000
  H   H224      1.0  0.21598  0.86893  0.05805  1.0000
  C   C147      1.0  0.08778  0.90307  0.00837  1.0000
  H   H225      1.0  0.05272  0.86825  0.02319  1.0000
  H   H226      1.0  0.07964  0.91597  0.01564  1.0000
  H   H227      1.0  0.99469  0.66631  0.14469  1.0000
  H   H228      1.0  0.12404  0.97456  0.47283  1.0000
  H   H229      1.0  0.22876  0.76178  0.13923  1.0000
  C   C148      1.0  0.22764  0.79124  0.17791  1.0000
  H   H230      1.0  0.21997  0.89145  0.09784  1.0000
  H   H231      1.0  0.02836  0.68790  0.99976  1.0000
  H   H232      1.0  0.15309  0.98696  0.05858  1.0000
  S   S59       1.0  0.20692  0.98752  0.01015  1.0000
  C   C149      1.0  0.13882  0.65465  0.99493  1.0000
  H   H233      1.0  0.99729  0.68703  0.94868  1.0000
  Fe  Fe33      1.0  0.17362  0.96651  0.96744  1.0000
  S   S60       1.0  0.19385  0.94834  0.93208  1.0000
  H   H234      1.0  0.08812  0.89612  0.86251  1.0000
  C   C150      1.0  0.05917  0.71841  0.91444  1.0000
  H   H235      1.0  0.11407  0.94191  0.55767  1.0000
  Fe  Fe34      1.0  0.11901  0.68580  0.70846  1.0000
  S   S61       1.0  0.09527  0.70032  0.74458  1.0000
  Fe  Fe35      1.0  0.16581  0.73993  0.70580  1.0000
  S   S62       1.0  0.14566  0.75784  0.74199  1.0000
  S   S63       1.0  0.20533  0.76111  0.67566  1.0000
  Fe  Fe36      1.0  0.13157  0.72235  0.78148  1.0000
  S   S64       1.0  0.13474  0.73023  0.84981  1.0000
  Fe  Fe37      1.0  0.11101  0.73439  0.70235  1.0000
  S   S65       1.0  0.08770  0.75443  0.67961  1.0000
  S   S66       1.0  0.15452  0.70595  0.74772  1.0000
  S   S67       1.0  0.13193  0.71841  0.66382  1.0000
  H   H236      1.0  0.12377  0.90201  0.79119  1.0000
  S   S68       1.0  0.07803  0.89944  0.50903  1.0000
  C   C151      1.0  0.07300  0.77126  0.54910  1.0000
  C   C152      1.0  0.08288  0.75367  0.55658  1.0000
  C   C153      1.0  0.08732  0.74811  0.59627  1.0000
  C   C154      1.0  0.08216  0.76031  0.62897  1.0000
  C   C155      1.0  0.07228  0.77786  0.62146  1.0000
  C   C156      1.0  0.06775  0.78334  0.58183  1.0000
  H   H237      1.0  0.08681  0.74402  0.53155  1.0000
  H   H238      1.0  0.09436  0.73412  0.60159  1.0000
  H   H239      1.0  0.06810  0.78735  0.64647  1.0000
  H   H240      1.0  0.06015  0.79690  0.57666  1.0000
  C   C157      1.0  0.12022  0.71031  0.89229  1.0000
  C   C158      1.0  0.12889  0.72071  0.93108  1.0000
  C   C159      1.0  0.11746  0.70612  0.96584  1.0000
  C   C160      1.0  0.09690  0.68100  0.96224  1.0000
  C   C161      1.0  0.12492  0.93917  0.53334  1.0000
  C   C162      1.0  0.09988  0.68502  0.88873  1.0000
  H   H241      1.0  0.14458  0.74027  0.93420  1.0000
  H   H242      1.0  0.13107  0.79768  0.59317  1.0000
  Fe  Fe38      1.0  0.20844  0.98383  0.89258  1.0000
  H   H243      1.0  0.10460  0.88612  0.89846  1.0000
  C   C163      1.0  0.16154  0.79530  0.65143  1.0000
  H   H244      1.0  0.04297  0.67661  0.96221  1.0000
  C   C164      1.0  0.10842  0.86953  0.98968  1.0000
  H   H245      1.0  0.20098  0.82240  0.57149  1.0000
  H   H246      1.0  0.15633  0.82977  0.60355  1.0000
  H   H247      1.0  0.16126  0.97183  0.55138  1.0000
  H   H248      1.0  0.15597  0.81380  0.55676  1.0000
  S   S69       1.0  0.06778  0.77775  0.49856  1.0000
  H   H249      1.0  0.16655  0.77697  0.55599  1.0000
  C   C165      1.0  0.08820  0.67055  0.92351  1.0000
  C   C166      1.0  0.01307  0.69417  0.92602  1.0000
  H   H250      1.0  0.98869  0.66893  0.75509  1.0000
  H   H251      1.0  0.17243  0.78619  0.66612  1.0000
  C   C167      1.0  0.19571  0.81788  0.60364  1.0000
  H   H252      1.0  0.14683  0.93525  0.80131  1.0000
  H   H253      1.0  0.15150  0.90006  0.89108  1.0000
  C   C168      1.0  0.22326  0.81244  0.70124  1.0000
  H   H254      1.0  0.16627  0.81376  0.66778  1.0000
  C   C169      1.0  0.12805  0.91898  0.81124  1.0000
  H   H255      1.0  0.20123  0.83655  0.61997  1.0000
  C   C170      1.0  0.15004  0.90504  0.85923  1.0000
  H   H256      1.0  0.20803  0.80954  0.61582  1.0000
  H   H257      1.0  0.14058  0.78202  0.65597  1.0000
  H   H258      1.0  0.11953  0.94187  0.87671  1.0000
  H   H259      1.0  0.13672  0.93194  0.91137  1.0000
  H   H260      1.0  0.05943  0.70144  0.89898  1.0000
  N   N16       1.0  0.12931  0.91270  0.85392  1.0000
  H   H261      1.0  0.14358  0.90431  0.97547  1.0000
  N   N17       1.0  0.16787  0.79965  0.60827  1.0000
  H   H262      1.0  0.17352  0.76570  0.60243  1.0000
  H   H263      1.0  0.07877  0.73010  0.92797  1.0000
  H   H264      1.0  0.09295  0.67675  0.85915  1.0000
  C   C171      1.0  0.16204  0.77458  0.58863  1.0000
  C   C172      1.0  0.15218  0.81074  0.58956  1.0000
  H   H265      1.0  0.18717  0.97042  0.74085  1.0000
  H   H266      1.0  0.14124  0.76031  0.59181  1.0000
  S   S70       1.0  0.03428  0.82513  0.52139  1.0000
  H   H267      1.0  0.14652  0.88779  0.84032  1.0000
  H   H268      1.0  0.09935  0.87315  0.84808  1.0000
  C   C173      1.0  0.15163  0.95621  0.52976  1.0000
  Fe  Fe39      1.0  0.22825  0.97166  0.97226  1.0000
  H   H269      1.0  0.05644  0.73048  0.89095  1.0000
  H   H270      1.0  0.11280  0.92512  0.80613  1.0000
  N   N18       1.0  0.03862  0.71005  0.94521  1.0000
  H   H271      1.0  0.16930  0.92107  0.85064  1.0000
  C   C174      1.0  0.10424  0.89105  0.86619  1.0000
  C   C175      1.0  0.13501  0.93582  0.87914  1.0000
  H   H272      1.0  0.15357  0.95269  0.87030  1.0000
  S   S71       1.0  0.20101  0.97552  0.82475  1.0000
  H   H273      1.0  0.20591  0.80569  0.71919  1.0000
  S   S72       1.0  0.98849  0.78582  0.99050  1.0000
  C   C176      1.0  0.03882  0.73316  0.96469  1.0000
  H   H274      1.0  0.00838  0.70553  0.90361  1.0000
  H   H275      1.0  0.01230  0.67682  0.91027  1.0000
  H   H276      1.0  0.06262  0.70552  0.99055  1.0000
  C   C177      1.0  0.12376  0.89658  0.98552  1.0000
  C   C178      1.0  0.04332  0.69437  0.97581  1.0000
  H   H277      1.0  0.03535  0.74547  0.94247  1.0000
  C   C179      1.0  0.11208  0.91873  0.50554  1.0000
  H   H278      1.0  0.99051  0.69145  0.69127  1.0000
  H   H279      1.0  0.05772  0.74557  0.97977  1.0000
  H   H280      1.0  0.11655  0.85660  0.98259  1.0000
  H   H281      1.0  0.02332  0.72749  0.98776  1.0000
  C   C180      1.0  0.16571  0.95306  0.49806  1.0000
  S   S73       1.0  0.13208  0.94766  0.98999  1.0000
  H   H282      1.0  0.13441  0.65836  0.96375  1.0000
  C   C181      1.0  0.22805  0.79458  0.67891  1.0000
  C   C182      1.0  0.20596  0.98725  0.74387  1.0000
  H   H283      1.0  0.27249  0.25505  0.35914  1.0000
  H   H284      1.0  0.36798  0.03907  0.02006  1.0000
  H   H285      1.0  0.25376  0.17544  0.33924  1.0000
  H   H286      1.0  0.28699  0.19933  0.34691  1.0000
  H   H287      1.0  0.42464  0.26120  0.29683  1.0000
  H   H288      1.0  0.26451  0.19013  0.38797  1.0000
  H   H289      1.0  0.40381  0.21773  0.43025  1.0000
  C   C183      1.0  0.45482  0.14484  0.04644  1.0000
  Fe  Fe40      1.0  0.25986  0.23558  0.01884  1.0000
  N   N19       1.0  0.38956  0.18931  0.38236  1.0000
  Fe  Fe41      1.0  0.46518  0.13431  0.30712  1.0000
  H   H290      1.0  0.27216  0.17428  0.48208  1.0000
  S   S74       1.0  0.24580  0.19815  0.05356  1.0000
  Fe  Fe42      1.0  0.46176  0.18526  0.30952  1.0000
  S   S75       1.0  0.42577  0.16878  0.27164  1.0000
  C   C184      1.0  0.38263  0.18797  0.33931  1.0000
  C   C185      1.0  0.27714  0.23896  0.36643  1.0000
  S   S76       1.0  0.42886  0.11384  0.26915  1.0000
  Fe  Fe43      1.0  0.44553  0.15083  0.23311  1.0000
  S   S77       1.0  0.44143  0.15411  0.16476  1.0000
  Fe  Fe44      1.0  0.41192  0.13314  0.31029  1.0000
  S   S78       1.0  0.36972  0.11508  0.33149  1.0000
  S   S79       1.0  0.24081  0.25174  0.06211  1.0000
  S   S80       1.0  0.44684  0.15080  0.35046  1.0000
  H   H291      1.0  0.23611  0.28112  0.24409  1.0000
  H   H292      1.0  0.23674  0.25861  0.18039  1.0000
  H   H293      1.0  0.39957  0.20109  0.32105  1.0000
  H   H294      1.0  0.43932  0.07570  0.03633  1.0000
  H   H295      1.0  0.24983  0.20196  0.28293  1.0000
  H   H296      1.0  0.40334  0.16099  0.37657  1.0000
  H   H297      1.0  0.27510  0.23611  0.39958  1.0000
  H   H298      1.0  0.37233  0.09805  0.47668  1.0000
  C   C186      1.0  0.45280  0.14516  0.12036  1.0000
  H   H299      1.0  0.35833  0.15128  0.39357  1.0000
  H   H300      1.0  0.43481  0.16158  0.08120  1.0000
  H   H301      1.0  0.38453  0.22334  0.39306  1.0000
  H   H302      1.0  0.37567  0.16793  0.32681  1.0000
  H   H303      1.0  0.41707  0.22993  0.38191  1.0000
  H   H304      1.0  0.41615  0.18240  0.41913  1.0000
  C   C187      1.0  0.41010  0.18135  0.38716  1.0000
  H   H305      1.0  0.22935  0.20152  0.38794  1.0000
  C   C188      1.0  0.47049  0.24825  0.34002  1.0000
  C   C189      1.0  0.35633  0.10357  0.37979  1.0000
  C   C190      1.0  0.37173  0.10528  0.41316  1.0000
  C   C191      1.0  0.36024  0.09678  0.45116  1.0000
  C   C192      1.0  0.33329  0.08654  0.45639  1.0000
  C   C193      1.0  0.31794  0.08497  0.42305  1.0000
  C   C194      1.0  0.32941  0.09342  0.38505  1.0000
  H   H306      1.0  0.39244  0.11301  0.40968  1.0000
  C   C195      1.0  0.25187  0.16225  0.48858  1.0000
  H   H307      1.0  0.29721  0.07717  0.42652  1.0000
  H   H308      1.0  0.31731  0.09211  0.35952  1.0000
  H   H309      1.0  0.32954  0.99836  0.30222  1.0000
  H   H310      1.0  0.36705  0.19364  0.33440  1.0000
  H   H311      1.0  0.47288  0.12702  0.15024  1.0000
  N   N20       1.0  0.25989  0.21482  0.34438  1.0000
  H   H312      1.0  0.35078  0.17740  0.40337  1.0000
  H   H313      1.0  0.25813  0.23539  0.29196  1.0000
  S   S81       1.0  0.24360  0.26497  0.42830  1.0000
  C   C196      1.0  0.38000  0.03733  0.99536  1.0000
  H   H314      1.0  0.42764  0.19397  0.36950  1.0000
  H   H315      1.0  0.28313  0.22550  0.29085  1.0000
  H   H316      1.0  0.24884  0.10787  0.03756  1.0000
  C   C197      1.0  0.45176  0.28549  0.34215  1.0000
  H   H317      1.0  0.27472  0.17065  0.00407  1.0000
  H   H318      1.0  0.37112  0.17112  0.43767  1.0000
  H   H319      1.0  0.23222  0.14025  0.03357  1.0000
  C   C198      1.0  0.45005  0.24534  0.31485  1.0000
  C   C199      1.0  0.44058  0.26372  0.31622  1.0000
  H   H320      1.0  0.29784  0.24558  0.35893  1.0000
  S   S82       1.0  0.24607  0.20492  0.46698  1.0000
  H   H321      1.0  0.44167  0.22904  0.29411  1.0000
  C   C200      1.0  0.39909  0.21622  0.39760  1.0000
  C   C201      1.0  0.36644  0.17158  0.40531  1.0000
  C   C202      1.0  0.26293  0.21959  0.30063  1.0000
  H   H322      1.0  0.39454  0.08730  0.01678  1.0000
  C   C203      1.0  0.47623  0.12542  0.08539  1.0000
  C   C204      1.0  0.46986  0.13180  0.04762  1.0000
  S   S83       1.0  0.43797  0.30710  0.34450  1.0000
  C   C205      1.0  0.26663  0.19401  0.35499  1.0000
  C   C206      1.0  0.44636  0.15141  0.08254  1.0000
  H   H323      1.0  0.44978  0.15003  0.01780  1.0000
  C   C207      1.0  0.46780  0.13205  0.12151  1.0000
  C   C208      1.0  0.23437  0.17252  0.48410  1.0000
  H   H324      1.0  0.31438  0.99826  0.37201  1.0000
  H   H325      1.0  0.29902  0.20376  0.99899  1.0000
  C   C209      1.0  0.47260  0.28871  0.36666  1.0000
  C   C210      1.0  0.23273  0.20675  0.35567  1.0000
  C   C211      1.0  0.40525  0.08395  0.99158  1.0000
  C   C212      1.0  0.41913  0.05961  0.03499  1.0000
  N   N21       1.0  0.40653  0.05926  0.99618  1.0000
  H   H326      1.0  0.38019  0.01836  0.99883  1.0000
  S   S84       1.0  0.24091  0.04949  0.48825  1.0000
  S   S85       1.0  0.30259  0.25531  0.99997  1.0000
  H   H327      1.0  0.30736  0.17784  0.99179  1.0000
  H   H328      1.0  0.42011  0.04115  0.03986  1.0000
  H   H329      1.0  0.40855  0.06253  0.06080  1.0000
  S   S86       1.0  0.23688  0.06091  0.99407  1.0000
  C   C213      1.0  0.23450  0.10556  0.01499  1.0000
  H   H330      1.0  0.44308  0.24247  0.64237  1.0000
  C   C214      1.0  0.29198  0.18375  0.98638  1.0000
  C   C215      1.0  0.26526  0.19079  0.93754  1.0000
  H   H331      1.0  0.24743  0.17809  0.95448  1.0000
  H   H332      1.0  0.45924  0.29458  0.71849  1.0000
  S   S87       1.0  0.41217  0.29075  0.77721  1.0000
  Fe  Fe45      1.0  0.24779  0.04110  0.60401  1.0000
  C   C216      1.0  0.24299  0.02300  0.71233  1.0000
  Fe  Fe46      1.0  0.27731  0.05956  0.52372  1.0000
  Fe  Fe47      1.0  0.44818  0.30782  0.81539  1.0000
  C   C217      1.0  0.34270  0.28942  0.87881  1.0000
  S   S88       1.0  0.26708  0.08002  0.57310  1.0000
  S   S89       1.0  0.25987  0.02133  0.55610  1.0000
  H   H333      1.0  0.27187  0.21110  0.94833  1.0000
  N   N22       1.0  0.44801  0.25458  0.70445  1.0000
  S   S90       1.0  0.43774  0.11147  0.89891  1.0000
  H   H334      1.0  0.35548  0.27698  0.97410  1.0000
  S   S91       1.0  0.26056  0.04069  0.66940  1.0000
  Fe  Fe48      1.0  0.45581  0.09387  0.85694  1.0000
  S   S92       1.0  0.43519  0.05069  0.83967  1.0000
  H   H335      1.0  0.27350  0.04701  0.75362  1.0000
  H   H336      1.0  0.25709  0.12901  0.50553  1.0000
  Fe  Fe49      1.0  0.39998  0.31638  0.81316  1.0000
  S   S93       1.0  0.24459  0.00595  0.93014  1.0000
  H   H337      1.0  0.41470  0.24159  0.74279  1.0000
  H   H338      1.0  0.30458  0.28097  0.85756  1.0000
  Fe  Fe50      1.0  0.45874  0.14768  0.86167  1.0000
  S   S94       1.0  0.43220  0.31525  0.66941  1.0000
  C   C218      1.0  0.39646  0.01137  0.71917  1.0000
  C   C219      1.0  0.32415  0.06587  0.61823  1.0000
  C   C220      1.0  0.41480  0.01029  0.78461  1.0000
  C   C221      1.0  0.42115  0.03646  0.79231  1.0000
  C   C222      1.0  0.41523  0.05009  0.76300  1.0000
  C   C223      1.0  0.40275  0.03753  0.72685  1.0000
  H   H339      1.0  0.31462  0.03037  0.55953  1.0000
  H   H340      1.0  0.28991  0.01534  0.62310  1.0000
  H   H341      1.0  0.41990  0.07019  0.76848  1.0000
  H   H342      1.0  0.39800  0.04821  0.70472  1.0000
  C   C224      1.0  0.40282  0.99790  0.74813  1.0000
  H   H343      1.0  0.30590  0.02655  0.67035  1.0000
  H   H344      1.0  0.44317  0.21552  0.70070  1.0000
  H   H345      1.0  0.32160  0.07186  0.64912  1.0000
  C   C225      1.0  0.46322  0.27850  0.72832  1.0000
  H   H346      1.0  0.40793  0.22787  0.69293  1.0000
  N   N23       1.0  0.33002  0.04366  0.61893  1.0000
  H   H347      1.0  0.33743  0.01969  0.57649  1.0000
  C   C226      1.0  0.46061  0.25514  0.84229  1.0000
  C   C227      1.0  0.43577  0.23738  0.82914  1.0000
  C   C228      1.0  0.42832  0.21057  0.82847  1.0000
  C   C229      1.0  0.44556  0.20127  0.84105  1.0000
  H   H348      1.0  0.31687  0.22083  0.93240  1.0000
  H   H349      1.0  0.35945  0.03475  0.64243  1.0000
  H   H350      1.0  0.42220  0.24425  0.82001  1.0000
  H   H351      1.0  0.40903  0.19690  0.81850  1.0000
  C   C230      1.0  0.27623  0.15584  0.92771  1.0000
  C   C231      1.0  0.35447  0.05112  0.64127  1.0000
  S   S95       1.0  0.35773  0.30308  0.83207  1.0000
  H   H352      1.0  0.24649  0.29907  0.57612  1.0000
  S   S96       1.0  0.37922  0.99596  0.67427  1.0000
  C   C232      1.0  0.30870  0.02143  0.63901  1.0000
  C   C233      1.0  0.31735  0.26850  0.95288  1.0000
  C   C234      1.0  0.30313  0.26957  0.91960  1.0000
  C   C235      1.0  0.35683  0.28802  0.91193  1.0000
  C   C236      1.0  0.34424  0.27772  0.94867  1.0000
  H   H353      1.0  0.45846  0.27531  0.76079  1.0000
  C   C237      1.0  0.47784  0.24587  0.85485  1.0000
  C   C238      1.0  0.25457  0.03035  0.75070  1.0000
  H   H354      1.0  0.41929  0.99955  0.80700  1.0000
  H   H355      1.0  0.30584  0.06083  0.60156  1.0000
  S   S97       1.0  0.47481  0.12909  0.81761  1.0000
  H   H356      1.0  0.47548  0.23991  0.71327  1.0000
  C   C239      1.0  0.45455  0.23403  0.71760  1.0000
  H   H357      1.0  0.28245  0.26257  0.92221  1.0000
  H   H358      1.0  0.35313  0.05689  0.67285  1.0000
  C   C240      1.0  0.31577  0.28008  0.88293  1.0000
  S   S98       1.0  0.31987  0.07605  0.50502  1.0000
  H   H359      1.0  0.25830  0.14202  0.94343  1.0000
  H   H360      1.0  0.33967  0.08300  0.60301  1.0000
  N   N24       1.0  0.28565  0.18270  0.94311  1.0000
  H   H361      1.0  0.37100  0.06780  0.62690  1.0000
  Fe  Fe51      1.0  0.47442  0.12691  0.93590  1.0000
  H   H362      1.0  0.42318  0.03780  0.96535  1.0000
  H   H363      1.0  0.25105  0.02249  0.81465  1.0000
  S   S99       1.0  0.43532  0.16741  0.83914  1.0000
  H   H364      1.0  0.39543  0.08424  0.96298  1.0000
  C   C241      1.0  0.30910  0.20050  0.92092  1.0000
  C   C242      1.0  0.47038  0.21905  0.85423  1.0000
  H   H365      1.0  0.43201  0.30428  0.58480  1.0000
  S   S100      1.0  0.47099  0.28904  0.84319  1.0000
  H   H366      1.0  0.31243  0.00430  0.64007  1.0000
  C   C243      1.0  0.24340  0.13659  0.50193  1.0000
  C   C244      1.0  0.33274  0.03623  0.57724  1.0000
  H   H367      1.0  0.32483  0.19482  0.92399  1.0000
  H   H368      1.0  0.37753  0.29513  0.90941  1.0000
  H   H369      1.0  0.27152  0.15440  0.89504  1.0000
  C   C245      1.0  0.24185  0.01649  0.78547  1.0000
  H   H370      1.0  0.29092  0.14885  0.93207  1.0000
  H   H371      1.0  0.25966  0.18992  0.90536  1.0000
  C   C246      1.0  0.42006  0.24584  0.71057  1.0000
  H   H372      1.0  0.30496  0.20073  0.88828  1.0000
  H   H373      1.0  0.34832  0.05276  0.56096  1.0000
  H   H374      1.0  0.45041  0.22974  0.75014  1.0000
  H   H375      1.0  0.41454  0.26100  0.70106  1.0000
  Fe  Fe52      1.0  0.22940  0.06728  0.53977  1.0000
  H   H376      1.0  0.26142  0.31902  0.64388  1.0000
  H   H377      1.0  0.44936  0.27549  0.65072  1.0000
  C   C247      1.0  0.45420  0.26007  0.66139  1.0000
  H   H378      1.0  0.41289  0.05586  0.93299  1.0000
  H   H379      1.0  0.47519  0.26702  0.65570  1.0000
  C   C248      1.0  0.42175  0.05619  0.96287  1.0000
  H   H380      1.0  0.44189  0.07246  0.96261  1.0000
  H   H381      1.0  0.36996  0.03650  0.96643  1.0000
  C   C249      1.0  0.25457  0.31989  0.58015  1.0000
  H   H382      1.0  0.42496  0.10087  0.99122  1.0000
  H   H383      1.0  0.30880  0.31933  0.77004  1.0000
  Fe  Fe53      1.0  0.38931  0.47151  0.14549  1.0000
  S   S101      1.0  0.37486  0.49168  0.18842  1.0000
  S   S102      1.0  0.40494  0.44388  0.16662  1.0000
  Fe  Fe54      1.0  0.37297  0.49220  0.07086  1.0000
  S   S103      1.0  0.35735  0.51367  0.11014  1.0000
  C   C250      1.0  0.33860  0.55653  0.16280  1.0000
  Fe  Fe55      1.0  0.39357  0.52608  0.14747  1.0000
  S   S104      1.0  0.41211  0.56654  0.17665  1.0000
  Fe  Fe56      1.0  0.34007  0.47775  0.14759  1.0000
  S   S105      1.0  0.30069  0.45797  0.17803  1.0000
  S   S106      1.0  0.41051  0.50692  0.10643  1.0000
  S   S107      1.0  0.35326  0.45528  0.10644  1.0000
  Fe  Fe57      1.0  0.44896  0.39710  0.36679  1.0000
  H   H384      1.0  0.33150  0.37060  0.15317  1.0000
  S   S108      1.0  0.42646  0.41842  0.34567  1.0000
  C   C251      1.0  0.40426  0.39351  0.47638  1.0000
  C   C252      1.0  0.30843  0.54434  0.21802  1.0000
  H   H385      1.0  0.35868  0.56156  0.15302  1.0000
  Fe  Fe58      1.0  0.45698  0.34832  0.37091  1.0000
  H   H386      1.0  0.30064  0.37812  0.24687  1.0000
  S   S109      1.0  0.43204  0.36169  0.40622  1.0000
  C   C253      1.0  0.27685  0.46867  0.17245  1.0000
  C   C254      1.0  0.25569  0.45946  0.19886  1.0000
  C   C255      1.0  0.25933  0.49429  0.13903  1.0000
  C   C256      1.0  0.27856  0.48609  0.14242  1.0000
  H   H387      1.0  0.25421  0.44601  0.22227  1.0000
  H   H388      1.0  0.26073  0.50765  0.11552  1.0000
  H   H389      1.0  0.29449  0.49298  0.12144  1.0000
  C   C257      1.0  0.44608  0.58738  0.17631  1.0000
  C   C258      1.0  0.45661  0.60993  0.20069  1.0000
  C   C259      1.0  0.31352  0.37446  0.22588  1.0000
  C   C260      1.0  0.46268  0.58226  0.15171  1.0000
  H   H390      1.0  0.44398  0.61398  0.22002  1.0000
  H   H391      1.0  0.32771  0.51152  0.19774  1.0000
  H   H392      1.0  0.45488  0.56507  0.13270  1.0000
  C   C261      1.0  0.41146  0.43763  0.21662  1.0000
  C   C262      1.0  0.40866  0.45095  0.24997  1.0000
  C   C263      1.0  0.41332  0.44481  0.28914  1.0000
  C   C264      1.0  0.42113  0.42552  0.29554  1.0000
  C   C265      1.0  0.42405  0.41227  0.26218  1.0000
  C   C266      1.0  0.41924  0.41831  0.22301  1.0000
  H   H393      1.0  0.40281  0.46594  0.24566  1.0000
  H   H394      1.0  0.41094  0.45516  0.31469  1.0000
  H   H395      1.0  0.42952  0.39702  0.26661  1.0000
  H   H396      1.0  0.42134  0.40775  0.19749  1.0000
  C   C267      1.0  0.35370  0.57441  0.22908  1.0000
  H   H397      1.0  0.30181  0.35506  0.21151  1.0000
  H   H398      1.0  0.29415  0.52654  0.20189  1.0000
  H   H399      1.0  0.32505  0.53935  0.14467  1.0000
  H   H400      1.0  0.35197  0.57094  0.26205  1.0000
  H   H401      1.0  0.35859  0.38983  0.18566  1.0000
  H   H402      1.0  0.31162  0.41159  0.14868  1.0000
  H   H403      1.0  0.30531  0.54037  0.25077  1.0000
  H   H404      1.0  0.37414  0.57993  0.22070  1.0000
  H   H405      1.0  0.36093  0.53391  0.20797  1.0000
  H   H406      1.0  0.34989  0.43615  0.19384  1.0000
  N   N25       1.0  0.33530  0.55112  0.20634  1.0000
  H   H407      1.0  0.30350  0.56023  0.21088  1.0000
  C   C268      1.0  0.34061  0.52917  0.21541  1.0000
  H   H408      1.0  0.35031  0.59141  0.22301  1.0000
  C   C269      1.0  0.34203  0.38976  0.16870  1.0000
  H   H409      1.0  0.29204  0.37727  0.15532  1.0000
  H   H410      1.0  0.33761  0.52394  0.24776  1.0000
  H   H411      1.0  0.33485  0.57305  0.15476  1.0000
  H   H412      1.0  0.32893  0.37327  0.24429  1.0000
  H   H413      1.0  0.32737  0.42603  0.23464  1.0000
  N   N26       1.0  0.32479  0.39513  0.19550  1.0000
  H   H414      1.0  0.35518  0.42018  0.23585  1.0000
  C   C270      1.0  0.33992  0.42045  0.21599  1.0000
  C   C271      1.0  0.23821  0.48517  0.16554  1.0000
  H   H415      1.0  0.29050  0.40016  0.19081  1.0000
  C   C272      1.0  0.30378  0.39596  0.17154  1.0000
  C   C273      1.0  0.23651  0.46773  0.19557  1.0000
  Fe  Fe59      1.0  0.46711  0.38248  0.44618  1.0000
  H   H416      1.0  0.35064  0.40484  0.14506  1.0000
  H   H417      1.0  0.47112  0.45984  0.25205  1.0000
  S   S110      1.0  0.47119  0.38236  0.32873  1.0000
  H   H418      1.0  0.39692  0.38611  0.44553  1.0000
  H   H419      1.0  0.40333  0.41208  0.48076  1.0000
  H   H420      1.0  0.47792  0.44247  0.31541  1.0000
  H   H421      1.0  0.42513  0.39826  0.47719  1.0000
  S   S111      1.0  0.37192  0.49937  0.00307  1.0000
  H   H422      1.0  0.47658  0.41962  0.25142  1.0000
  H   H423      1.0  0.38320  0.34137  0.47034  1.0000
  H   H424      1.0  0.35314  0.36060  0.47551  1.0000
  H   H425      1.0  0.34323  0.33429  0.77710  1.0000
  Fe  Fe60      1.0  0.31695  0.44087  0.78126  1.0000
  S   S112      1.0  0.32981  0.48056  0.75533  1.0000
  S   S113      1.0  0.32258  0.42918  0.84501  1.0000
  Fe  Fe61      1.0  0.30001  0.41366  0.69723  1.0000
  S   S114      1.0  0.31235  0.45169  0.66526  1.0000
  S   S115      1.0  0.28443  0.37163  0.67386  1.0000
  Fe  Fe62      1.0  0.34776  0.46817  0.70551  1.0000
  S   S116      1.0  0.39030  0.48993  0.68705  1.0000
  Fe  Fe63      1.0  0.29322  0.46152  0.71714  1.0000
  S   S117      1.0  0.27137  0.48520  0.70830  1.0000
  S   S118      1.0  0.33692  0.42935  0.73340  1.0000
  S   S119      1.0  0.27894  0.42261  0.74714  1.0000
  C   C274      1.0  0.44177  0.33607  0.62672  1.0000
  S   S120      1.0  0.43471  0.33112  0.85404  1.0000
  H   H426      1.0  0.30608  0.37023  0.75444  1.0000
  H   H427      1.0  0.44584  0.53078  0.79152  1.0000
  H   H428      1.0  0.37762  0.51295  0.81604  1.0000
  C   C275      1.0  0.39555  0.51797  0.79847  1.0000
  Fe  Fe64      1.0  0.45477  0.36278  0.80883  1.0000
  S   S121      1.0  0.41892  0.34990  0.76997  1.0000
  H   H429      1.0  0.46484  0.57381  0.50072  1.0000
  S   S122      1.0  0.46516  0.38859  0.51430  1.0000
  C   C276      1.0  0.45257  0.60827  0.57314  1.0000
  S   S123      1.0  0.47060  0.34052  0.77286  1.0000
  C   C277      1.0  0.44247  0.57842  0.68063  1.0000
  C   C278      1.0  0.45282  0.56111  0.67586  1.0000
  C   C279      1.0  0.43650  0.53410  0.67752  1.0000
  C   C280      1.0  0.40978  0.52410  0.68453  1.0000
  C   C281      1.0  0.39950  0.54141  0.68987  1.0000
  C   C282      1.0  0.41579  0.56843  0.68785  1.0000
  S   S124      1.0  0.24595  0.32240  0.49789  1.0000
  H   H430      1.0  0.44466  0.52085  0.67352  1.0000
  H   H431      1.0  0.37897  0.53400  0.69529  1.0000
  H   H432      1.0  0.40760  0.58166  0.69171  1.0000
  H   H433      1.0  0.24311  0.51349  0.69182  1.0000
  H   H434      1.0  0.34904  0.39691  0.81657  1.0000
  C   C283      1.0  0.34978  0.38189  0.79624  1.0000
  C   C284      1.0  0.46836  0.59094  0.51992  1.0000
  H   H435      1.0  0.40598  0.57191  0.54769  1.0000
  C   C285      1.0  0.25683  0.33552  0.54706  1.0000
  C   C286      1.0  0.27370  0.35837  0.62467  1.0000
  C   C287      1.0  0.27572  0.37393  0.59163  1.0000
  C   C288      1.0  0.26741  0.36257  0.55313  1.0000
  C   C289      1.0  0.26306  0.33128  0.61861  1.0000
  H   H436      1.0  0.28378  0.39476  0.59570  1.0000
  H   H437      1.0  0.26912  0.37489  0.52787  1.0000
  C   C290      1.0  0.45659  0.36773  0.55690  1.0000
  C   C291      1.0  0.44686  0.34076  0.55334  1.0000
  Fe  Fe65      1.0  0.43360  0.32533  0.73672  1.0000
  H   H438      1.0  0.44502  0.33199  0.52390  1.0000
  C   C292      1.0  0.45145  0.36301  0.63024  1.0000
  C   C293      1.0  0.45873  0.37867  0.59558  1.0000
  H   H439      1.0  0.35379  0.39003  0.76537  1.0000
  H   H440      1.0  0.38554  0.47060  0.77006  1.0000
  H   H441      1.0  0.45336  0.37183  0.65968  1.0000
  H   H442      1.0  0.43710  0.60436  0.59573  1.0000
  C   C294      1.0  0.35649  0.47903  0.96044  1.0000
  C   C295      1.0  0.34776  0.45213  0.96050  1.0000
  C   C296      1.0  0.33722  0.43720  0.92510  1.0000
  C   C297      1.0  0.33496  0.44881  0.88929  1.0000
  C   C298      1.0  0.34320  0.47561  0.88946  1.0000
  C   C299      1.0  0.35409  0.49059  0.92466  1.0000
  H   H443      1.0  0.42779  0.50648  0.75438  1.0000
  H   H444      1.0  0.33087  0.41649  0.92548  1.0000
  H   H445      1.0  0.34117  0.48479  0.86250  1.0000
  H   H446      1.0  0.36059  0.51133  0.92426  1.0000
  C   C300      1.0  0.39123  0.35007  0.50031  1.0000
  N   N27       1.0  0.40813  0.50206  0.81060  1.0000
  C   C301      1.0  0.30354  0.36242  0.78551  1.0000
  H   H447      1.0  0.38981  0.37077  0.57183  1.0000
  H   H448      1.0  0.40866  0.53910  0.80286  1.0000
  C   C302      1.0  0.39026  0.47433  0.80267  1.0000
  H   H449      1.0  0.42335  0.59205  0.50616  1.0000
  H   H450      1.0  0.44225  0.49836  0.79584  1.0000
  H   H451      1.0  0.38983  0.51481  0.76616  1.0000
  H   H452      1.0  0.37167  0.46804  0.81890  1.0000
  C   C303      1.0  0.32677  0.33825  0.76931  1.0000
  H   H453      1.0  0.34957  0.44291  0.98758  1.0000
  H   H454      1.0  0.39873  0.46158  0.81235  1.0000
  N   N28       1.0  0.32526  0.35736  0.79744  1.0000
  N   N29       1.0  0.38935  0.37432  0.50745  1.0000
  H   H455      1.0  0.46621  0.39948  0.59883  1.0000
  H   H456      1.0  0.32008  0.36103  0.86077  1.0000
  C   C304      1.0  0.23001  0.49316  0.68630  1.0000
  H   H457      1.0  0.35968  0.38652  0.51082  1.0000
  H   H458      1.0  0.44076  0.54570  0.55819  1.0000
  H   H459      1.0  0.46306  0.56944  0.59285  1.0000
  H   H460      1.0  0.41173  0.35369  0.50113  1.0000
  H   H461      1.0  0.41752  0.55882  0.50804  1.0000
  H   H462      1.0  0.30193  0.37693  0.80592  1.0000
  H   H463      1.0  0.39853  0.40304  0.55446  1.0000
  H   H464      1.0  0.47106  0.61506  0.59015  1.0000
  H   H465      1.0  0.47093  0.60716  0.49972  1.0000
  C   C305      1.0  0.23886  0.47458  0.69191  1.0000
  H   H466      1.0  0.39681  0.50012  0.87251  1.0000
  C   C306      1.0  0.42239  0.57655  0.52661  1.0000
  C   C307      1.0  0.41453  0.50605  0.85398  1.0000
  C   C308      1.0  0.43210  0.50979  0.78717  1.0000
  C   C309      1.0  0.44485  0.56372  0.57542  1.0000
  H   H467      1.0  0.33698  0.34263  0.84842  1.0000
  H   H468      1.0  0.42776  0.52682  0.86115  1.0000
  S   S125      1.0  0.46190  0.61250  0.67655  1.0000
  H   H469      1.0  0.42892  0.55863  0.59759  1.0000
  C   C310      1.0  0.40006  0.38500  0.54767  1.0000
  H   H470      1.0  0.42405  0.49433  0.86418  1.0000
  H   H471      1.0  0.32951  0.34530  0.73776  1.0000
  N   N30       1.0  0.44704  0.58486  0.54873  1.0000
  C   C311      1.0  0.43950  0.32508  0.58802  1.0000
  C   C312      1.0  0.32105  0.34695  0.83871  1.0000
  H   H472      1.0  0.45435  0.62468  0.55414  1.0000
  H   H473      1.0  0.28469  0.34439  0.78605  1.0000
  H   H474      1.0  0.36652  0.37886  0.80576  1.0000
  H   H475      1.0  0.42093  0.39003  0.54990  1.0000
  H   H476      1.0  0.35006  0.35423  0.52853  1.0000
  H   H477      1.0  0.38063  0.33528  0.52358  1.0000
  H   H478      1.0  0.47258  0.34943  0.91784  1.0000
  H   H479      1.0  0.30266  0.32850  0.84086  1.0000
  C   C313      1.0  0.36186  0.36867  0.50547  1.0000
  H   H480      1.0  0.47335  0.56851  0.67067  1.0000
  S   S126      1.0  0.47801  0.40381  0.83440  1.0000
  Fe  Fe66      1.0  0.30145  0.88753  0.28093  1.0000
  S   S127      1.0  0.31717  0.86350  0.24847  1.0000
  S   S128      1.0  0.29496  0.88985  0.34869  1.0000
  Fe  Fe67      1.0  0.28711  0.90528  0.20140  1.0000
  S   S129      1.0  0.30221  0.88319  0.16387  1.0000
  S   S130      1.0  0.26562  0.92702  0.17871  1.0000
  Fe  Fe68      1.0  0.28229  0.85065  0.20744  1.0000
  S   S131      1.0  0.26181  0.81070  0.17758  1.0000
  Fe  Fe69      1.0  0.33586  0.89777  0.20713  1.0000
  S   S132      1.0  0.37551  0.91521  0.17749  1.0000
  S   S133      1.0  0.26500  0.87177  0.24268  1.0000
  S   S134      1.0  0.32225  0.92272  0.24192  1.0000
  C   C314      1.0  0.24374  0.95217  0.07857  1.0000
  C   C315      1.0  0.26307  0.93494  0.12789  1.0000
  C   C316      1.0  0.25620  0.94632  0.04715  1.0000
  C   C317      1.0  0.27207  0.93472  0.05639  1.0000
  C   C318      1.0  0.27556  0.92910  0.09648  1.0000
  H   H481      1.0  0.28187  0.93019  0.03235  1.0000
  H   H482      1.0  0.28799  0.92038  0.10302  1.0000
  C   C319      1.0  0.31567  0.89813  0.39185  1.0000
  C   C320      1.0  0.30487  0.89657  0.43024  1.0000
  C   C321      1.0  0.32046  0.90357  0.46532  1.0000
  C   C322      1.0  0.34720  0.91241  0.46249  1.0000
  C   C323      1.0  0.35803  0.91411  0.42406  1.0000
  C   C324      1.0  0.34242  0.90703  0.38897  1.0000
  H   H483      1.0  0.28423  0.88980  0.43292  1.0000
  H   H484      1.0  0.31676  0.96864  0.27345  1.0000
  H   H485      1.0  0.37868  0.92100  0.42137  1.0000
  H   H486      1.0  0.35112  0.90850  0.35976  1.0000
  C   C325      1.0  0.39971  0.90484  0.18066  1.0000
  C   C326      1.0  0.39735  0.88478  0.20606  1.0000
  C   C327      1.0  0.41617  0.87594  0.20535  1.0000
  C   C328      1.0  0.43774  0.88730  0.17978  1.0000
  C   C329      1.0  0.44031  0.90765  0.15492  1.0000
  C   C330      1.0  0.42135  0.91631  0.15533  1.0000
  H   H487      1.0  0.38109  0.87613  0.22631  1.0000
  H   H488      1.0  0.41416  0.86032  0.22491  1.0000
  H   H489      1.0  0.42339  0.93186  0.13560  1.0000
  C   C331      1.0  0.24719  0.94652  0.11866  1.0000
  H   H490      1.0  0.23741  0.95112  0.14266  1.0000
  H   H491      1.0  0.24515  0.85510  0.09163  1.0000
  H   H492      1.0  0.45677  0.91654  0.13507  1.0000
  H   H493      1.0  0.27297  0.92735  0.35340  1.0000
  H   H494      1.0  0.32870  0.94699  0.32843  1.0000
  H   H495      1.0  0.31816  0.94783  0.37862  1.0000
  H   H496      1.0  0.45674  0.67359  0.12569  1.0000
  S   S135      1.0  0.46039  0.87487  0.17897  1.0000
  S   S136      1.0  0.25242  0.95282  0.99602  1.0000
  H   H497      1.0  0.37146  0.84802  0.08034  1.0000
  H   H498      1.0  0.46457  0.70726  0.13193  1.0000
  N   N31       1.0  0.34132  0.83492  0.12488  1.0000
  C   C332      1.0  0.32408  0.84227  0.10169  1.0000
  C   C333      1.0  0.33391  0.80722  0.11741  1.0000
  C   C334      1.0  0.33870  0.83901  0.16816  1.0000
  C   C335      1.0  0.36848  0.85123  0.11251  1.0000
  H   H499      1.0  0.32954  0.86322  0.10631  1.0000
  H   H500      1.0  0.30349  0.83082  0.11115  1.0000
  H   H501      1.0  0.32511  0.83901  0.06888  1.0000
  H   H502      1.0  0.33548  0.80332  0.08498  1.0000
  H   H503      1.0  0.34661  0.80116  0.13456  1.0000
  H   H504      1.0  0.31352  0.79449  0.12676  1.0000
  H   H505      1.0  0.35162  0.83399  0.18677  1.0000
  H   H506      1.0  0.31846  0.82695  0.17863  1.0000
  H   H507      1.0  0.34392  0.85966  0.17468  1.0000
  H   H508      1.0  0.23960  0.84443  0.14288  1.0000
  H   H509      1.0  0.38226  0.84721  0.13078  1.0000
  H   H510      1.0  0.37428  0.87230  0.11642  1.0000
  H   H511      1.0  0.25033  0.87799  0.13164  1.0000
  C   C336      1.0  0.27981  0.93951  0.32594  1.0000
  H   H512      1.0  0.40620  0.89773  0.48237  1.0000
  C   C337      1.0  0.32401  0.95894  0.35008  1.0000
  H   H513      1.0  0.34217  0.97716  0.35622  1.0000
  H   H514      1.0  0.28368  0.92770  0.30296  1.0000
  H   H515      1.0  0.23150  0.96110  0.07200  1.0000
  C   C338      1.0  0.23755  0.85779  0.12100  1.0000
  H   H516      1.0  0.43874  0.90199  0.48584  1.0000
  C   C339      1.0  0.47169  0.69387  0.11950  1.0000
  H   H517      1.0  0.47307  0.69630  0.08629  1.0000
  N   N32       1.0  0.30322  0.96433  0.33443  1.0000
  H   H518      1.0  0.29044  0.96850  0.39343  1.0000
  H   H519      1.0  0.41187  0.86984  0.48145  1.0000
  H   H520      1.0  0.26360  0.94273  0.31441  1.0000
  C   C340      1.0  0.31194  0.97944  0.29697  1.0000
  C   C341      1.0  0.29711  0.97941  0.36480  1.0000
  H   H521      1.0  0.29663  0.98367  0.28416  1.0000
  H   H522      1.0  0.28149  0.98385  0.35408  1.0000
  Fe  Fe70      1.0  0.38129  0.90829  0.64876  1.0000
  S   S137      1.0  0.39560  0.94444  0.61172  1.0000
  S   S138      1.0  0.40431  0.88706  0.66697  1.0000
  Fe  Fe71      1.0  0.32535  0.90062  0.64840  1.0000
  S   S139      1.0  0.33621  0.93583  0.60963  1.0000
  S   S140      1.0  0.28502  0.88218  0.67611  1.0000
  Fe  Fe72      1.0  0.35983  0.92157  0.57336  1.0000
  C   C342      1.0  0.43246  0.87674  0.55612  1.0000
  Fe  Fe73      1.0  0.37069  0.95538  0.65135  1.0000
  S   S141      1.0  0.34642  0.88490  0.60928  1.0000
  S   S142      1.0  0.35891  0.92079  0.69134  1.0000
  H   H523      1.0  0.31165  0.91396  0.75045  1.0000
  C   C343      1.0  0.26878  0.83039  0.65566  1.0000
  C   C344      1.0  0.26379  0.84827  0.67743  1.0000
  N   N33       1.0  0.30864  0.94950  0.74796  1.0000
  H   H524      1.0  0.28625  0.83710  0.63799  1.0000
  H   H525      1.0  0.42640  0.85681  0.54406  1.0000
  H   H526      1.0  0.27124  0.94823  0.75263  1.0000
  C   C345      1.0  0.45607  0.92434  0.66150  1.0000
  C   C346      1.0  0.43834  0.89867  0.67040  1.0000
  C   C347      1.0  0.44777  0.88125  0.68143  1.0000
  H   H527      1.0  0.31608  0.96990  0.69187  1.0000
  H   H528      1.0  0.44913  0.93802  0.65323  1.0000
  H   H529      1.0  0.43420  0.86135  0.68835  1.0000
  H   H530      1.0  0.28872  0.93770  0.69100  1.0000
  S   S143      1.0  0.36799  0.92164  0.50564  1.0000
  C   C348      1.0  0.47460  0.88930  0.68351  1.0000
  H   H531      1.0  0.43095  0.87536  0.58955  1.0000
  H   H532      1.0  0.44583  0.92725  0.54975  1.0000
  H   H533      1.0  0.29814  0.98037  0.75357  1.0000
  C   C349      1.0  0.25094  0.80372  0.65629  1.0000
  H   H534      1.0  0.45329  0.88894  0.54887  1.0000
  H   H535      1.0  0.38148  0.85127  0.53824  1.0000
  C   C350      1.0  0.29918  0.92248  0.76175  1.0000
  C   C351      1.0  0.42509  0.91431  0.55651  1.0000
  H   H536      1.0  0.29115  0.96003  0.79693  1.0000
  H   H537      1.0  0.37617  0.87935  0.53911  1.0000
  H   H538      1.0  0.42296  0.91379  0.58976  1.0000
  N   N34       1.0  0.41625  0.88792  0.53962  1.0000
  H   H539      1.0  0.25482  0.79007  0.63889  1.0000
  C   C352      1.0  0.33536  0.96567  0.76289  1.0000
  C   C353      1.0  0.38893  0.87131  0.55069  1.0000
  H   H540      1.0  0.38658  0.86967  0.58395  1.0000
  C   C354      1.0  0.30853  0.94981  0.70354  1.0000
  H   H541      1.0  0.32101  0.94173  0.69111  1.0000
  H   H542      1.0  0.29887  0.92135  0.79513  1.0000
  H   H543      1.0  0.31177  0.90214  0.49453  1.0000
  C   C355      1.0  0.29155  0.96000  0.76346  1.0000
  C   C356      1.0  0.24095  0.83916  0.70019  1.0000
  H   H544      1.0  0.33637  0.96597  0.79631  1.0000
  H   H545      1.0  0.34871  0.95827  0.75150  1.0000
  H   H546      1.0  0.27922  0.90959  0.75039  1.0000
  H   H547      1.0  0.41365  0.92357  0.54404  1.0000
  H   H548      1.0  0.39828  0.97783  0.74269  1.0000
  C   C357      1.0  0.41842  0.88940  0.49534  1.0000
  H   H549      1.0  0.34327  0.98616  0.75270  1.0000
  H   H550      1.0  0.23696  0.85282  0.71728  1.0000
  Fe  Fe74      1.0  0.64493  0.10792  0.43967  1.0000
  S   S144      1.0  0.66144  0.14656  0.40806  1.0000
  H   H551      1.0  0.53286  0.07759  0.31314  1.0000
  Fe  Fe75      1.0  0.63115  0.07669  0.35882  1.0000
  S   S145      1.0  0.64763  0.11300  0.32204  1.0000
  S   S146      1.0  0.60931  0.03427  0.33690  1.0000
  Fe  Fe76      1.0  0.68053  0.12960  0.36692  1.0000
  Fe  Fe77      1.0  0.62717  0.12723  0.36549  1.0000
  S   S147      1.0  0.60628  0.14736  0.33501  1.0000
  S   S148      1.0  0.66572  0.09177  0.40062  1.0000
  S   S149      1.0  0.60898  0.09006  0.40016  1.0000
  H   H552      1.0  0.51126  0.16654  0.36472  1.0000
  C   C358      1.0  0.57259  0.13724  0.33568  1.0000
  C   C359      1.0  0.55643  0.12047  0.36501  1.0000
  C   C360      1.0  0.52982  0.11349  0.36507  1.0000
  C   C361      1.0  0.51912  0.12313  0.33585  1.0000
  C   C362      1.0  0.53524  0.13978  0.30639  1.0000
  C   C363      1.0  0.56188  0.14686  0.30644  1.0000
  H   H553      1.0  0.56449  0.11311  0.38788  1.0000
  H   H554      1.0  0.51743  0.10055  0.38794  1.0000
  H   H555      1.0  0.52712  0.14690  0.28330  1.0000
  H   H556      1.0  0.57426  0.15980  0.28359  1.0000
  C   C364      1.0  0.60102  0.02099  0.28735  1.0000
  H   H557      1.0  0.52691  0.21537  0.31582  1.0000
  H   H558      1.0  0.65940  0.02507  0.44424  1.0000
  C   C365      1.0  0.58261  0.99470  0.28244  1.0000
  C   C366      1.0  0.60470  0.02429  0.21439  1.0000
  C   C367      1.0  0.61204  0.03575  0.25303  1.0000
  C   C368      1.0  0.48184  0.27012  0.36567  1.0000
  H   H559      1.0  0.61343  0.03587  0.18807  1.0000
  H   H560      1.0  0.62633  0.05594  0.25621  1.0000
  H   H561      1.0  0.72248  0.03432  0.02010  1.0000
  H   H562      1.0  0.68280  0.01422  0.45723  1.0000
  C   C369      1.0  0.54427  0.03836  0.31956  1.0000
  H   H563      1.0  0.59240  0.07039  0.29483  1.0000
  H   H564      1.0  0.51505  0.18107  0.41366  1.0000
  H   H565      1.0  0.54521  0.04804  0.34903  1.0000
  C   C370      1.0  0.56187  0.19858  0.38046  1.0000
  H   H566      1.0  0.55654  0.05710  0.22202  1.0000
  C   C371      1.0  0.51595  0.18506  0.38090  1.0000
  C   C372      1.0  0.57814  0.07812  0.29309  1.0000
  H   H567      1.0  0.56365  0.03438  0.24852  1.0000
  N   N35       1.0  0.55157  0.05703  0.28613  1.0000
  H   H568      1.0  0.58145  0.21349  0.37102  1.0000
  H   H569      1.0  0.58445  0.09278  0.26873  1.0000
  H   H570      1.0  0.55833  0.17984  0.36608  1.0000
  H   H571      1.0  0.55760  0.02951  0.32169  1.0000
  H   H572      1.0  0.53070  0.02764  0.24133  1.0000
  C   C373      1.0  0.53331  0.06814  0.28420  1.0000
  H   H573      1.0  0.50030  0.19028  0.37374  1.0000
  C   C374      1.0  0.56506  0.15796  0.01297  1.0000
  N   N36       1.0  0.54159  0.20594  0.36918  1.0000
  H   H574      1.0  0.49779  0.27269  0.38507  1.0000
  H   H575      1.0  0.54591  0.22818  0.42328  1.0000
  H   H576      1.0  0.57957  0.08872  0.32180  1.0000
  S   S150      1.0  0.72333  0.14947  0.34968  1.0000
  C   C375      1.0  0.55055  0.04349  0.24780  1.0000
  H   H577      1.0  0.53888  0.08318  0.26049  1.0000
  H   H578      1.0  0.51316  0.05292  0.27776  1.0000
  H   H579      1.0  0.52427  0.02223  0.31559  1.0000
  H   H580      1.0  0.57592  0.17748  0.02732  1.0000
  C   C376      1.0  0.54642  0.23038  0.39004  1.0000
  H   H581      1.0  0.53819  0.19163  0.30849  1.0000
  H   H582      1.0  0.53148  0.23649  0.38181  1.0000
  H   H583      1.0  0.70905  0.19151  0.34320  1.0000
  C   C377      1.0  0.67849  0.03102  0.45915  1.0000
  C   C378      1.0  0.54199  0.20974  0.32524  1.0000
  H   H584      1.0  0.56105  0.22529  0.31518  1.0000
  H   H585      1.0  0.56244  0.19604  0.41350  1.0000
  H   H586      1.0  0.54545  0.14836  0.02695  1.0000
  H   H587      1.0  0.56564  0.24657  0.38197  1.0000
  C   C379      1.0  0.58626  0.99801  0.20948  1.0000
  H   H588      1.0  0.48775  0.11524  0.08682  1.0000
  S   S151      1.0  0.48551  0.11345  0.33691  1.0000
  H   H589      1.0  0.68884  0.01317  0.00997  1.0000
  H   H590      1.0  0.69334  0.04713  0.44123  1.0000
  H   H591      1.0  0.65337  0.05631  0.48852  1.0000
  S   S152      1.0  0.48289  0.17013  0.26892  1.0000
  S   S153      1.0  0.48202  0.22479  0.34102  1.0000
  H   H592      1.0  0.57514  0.14632  0.02078  1.0000
  H   H593      1.0  0.48138  0.30534  0.38676  1.0000
  C   C380      1.0  0.70790  0.02515  0.99557  1.0000
  H   H594      1.0  0.68727  0.07844  0.48596  1.0000
  S   S154      1.0  0.48070  0.12242  0.00308  1.0000
  C   C381      1.0  0.71845  0.98955  0.99166  1.0000
  C   C382      1.0  0.63902  0.12639  0.70901  1.0000
  H   H595      1.0  0.72750  0.10345  0.97521  1.0000
  S   S155      1.0  0.70859  0.15472  0.84899  1.0000
  H   H596      1.0  0.70455  0.05314  0.55181  1.0000
  Fe  Fe78      1.0  0.70833  0.15417  0.73096  1.0000
  S   S156      1.0  0.69296  0.17669  0.76814  1.0000
  S   S157      1.0  0.70893  0.15895  0.66217  1.0000
  S   S158      1.0  0.49099  0.10643  0.89672  1.0000
  Fe  Fe79      1.0  0.67465  0.14097  0.80621  1.0000
  S   S159      1.0  0.63223  0.11977  0.82519  1.0000
  N   N37       1.0  0.62571  0.14074  0.69308  1.0000
  S   S160      1.0  0.68855  0.11774  0.76747  1.0000
  Fe  Fe80      1.0  0.50875  0.14283  0.86056  1.0000
  S   S161      1.0  0.55155  0.16489  0.84375  1.0000
  C   C383      1.0  0.61013  0.13275  0.82963  1.0000
  C   C384      1.0  0.61779  0.15921  0.82465  1.0000
  C   C385      1.0  0.59951  0.16864  0.82853  1.0000
  C   C386      1.0  0.57344  0.15176  0.83739  1.0000
  C   C387      1.0  0.56576  0.12529  0.84212  1.0000
  C   C388      1.0  0.58404  0.11587  0.83830  1.0000
  H   H597      1.0  0.63785  0.17246  0.81836  1.0000
  H   H598      1.0  0.60567  0.18918  0.82497  1.0000
  H   H599      1.0  0.54574  0.11204  0.84869  1.0000
  H   H600      1.0  0.57792  0.09536  0.84211  1.0000
  H   H601      1.0  0.61561  0.15017  0.63543  1.0000
  H   H602      1.0  0.72081  0.11394  0.90518  1.0000
  Fe  Fe81      1.0  0.72405  0.13452  0.80776  1.0000
  H   H603      1.0  0.60090  0.19276  0.96377  1.0000
  H   H604      1.0  0.54635  0.13441  0.91826  1.0000
  H   H605      1.0  0.70887  0.03041  0.51966  1.0000
  H   H606      1.0  0.63931  0.08368  0.58993  1.0000
  C   C389      1.0  0.63931  0.16803  0.70729  1.0000
  H   H607      1.0  0.48381  0.21213  0.86392  1.0000
  H   H608      1.0  0.49707  0.25946  0.86513  1.0000
  H   H609      1.0  0.62965  0.10580  0.69846  1.0000
  C   C390      1.0  0.66065  0.11536  0.54966  1.0000
  C   C391      1.0  0.68130  0.14046  0.54694  1.0000
  C   C392      1.0  0.69591  0.15325  0.58157  1.0000
  C   C393      1.0  0.69030  0.14117  0.61939  1.0000
  C   C394      1.0  0.66994  0.11583  0.62197  1.0000
  C   C395      1.0  0.65512  0.10315  0.58742  1.0000
  H   H610      1.0  0.68591  0.15017  0.51823  1.0000
  H   H611      1.0  0.71963  0.06332  0.50365  1.0000
  H   H612      1.0  0.66567  0.10594  0.65047  1.0000
  H   H613      1.0  0.65962  0.13542  0.69953  1.0000
  H   H614      1.0  0.63954  0.16926  0.74074  1.0000
  H   H615      1.0  0.60011  0.16160  0.95658  1.0000
  H   H616      1.0  0.69169  0.01105  0.91961  1.0000
  H   H617      1.0  0.61671  0.11972  0.63672  1.0000
  H   H618      1.0  0.58786  0.10791  0.69735  1.0000
  C   C396      1.0  0.59868  0.12853  0.70757  1.0000
  H   H619      1.0  0.66200  0.00006  0.52344  1.0000
  H   H620      1.0  0.62984  0.17952  0.69588  1.0000
  H   H621      1.0  0.67203  0.06803  0.53386  1.0000
  H   H622      1.0  0.59798  0.12864  0.74110  1.0000
  H   H623      1.0  0.55950  0.19513  0.97333  1.0000
  S   S162      1.0  0.64096  0.09842  0.50729  1.0000
  H   H624      1.0  0.65985  0.17775  0.69704  1.0000
  C   C397      1.0  0.54931  0.17522  0.96011  1.0000
  H   H625      1.0  0.58804  0.13899  0.69658  1.0000
  C   C398      1.0  0.62598  0.14004  0.64862  1.0000
  H   H626      1.0  0.65773  0.02262  0.55598  1.0000
  H   H627      1.0  0.63892  0.12625  0.74240  1.0000
  H   H628      1.0  0.64619  0.14972  0.63695  1.0000
  H   H629      1.0  0.52876  0.12314  0.96441  1.0000
  C   C399      1.0  0.67256  0.06140  0.50249  1.0000
  H   H630      1.0  0.63864  0.01099  0.51086  1.0000
  N   N38       1.0  0.67834  0.03915  0.50137  1.0000
  C   C400      1.0  0.70399  0.04686  0.51993  1.0000
  H   H631      1.0  0.58820  0.17469  0.91795  1.0000
  H   H632      1.0  0.54775  0.17735  0.92712  1.0000
  S   S163      1.0  0.49407  0.16428  0.90160  1.0000
  N   N39       1.0  0.56309  0.15992  0.96894  1.0000
  C   C401      1.0  0.69472  0.99653  0.93751  1.0000
  C   C402      1.0  0.58927  0.17283  0.95117  1.0000
  H   H633      1.0  0.55855  0.12154  0.95675  1.0000
  C   C403      1.0  0.54854  0.13357  0.95138  1.0000
  N   N40       1.0  0.71521  0.00941  0.96826  1.0000
  H   H634      1.0  0.71167  0.17277  0.57901  1.0000
  H   H635      1.0  0.70674  0.04129  0.97930  1.0000
  H   H636      1.0  0.52927  0.16576  0.97239  1.0000
  H   H637      1.0  0.48442  0.28537  0.72542  1.0000
  C   C404      1.0  0.65828  0.01724  0.52390  1.0000
  Fe  Fe82      1.0  0.72845  0.18861  0.80728  1.0000
  S   S164      1.0  0.54451  0.42475  0.34800  1.0000
  H   H638      1.0  0.64625  0.57499  0.41398  1.0000
  H   H639      1.0  0.62560  0.61675  0.47331  1.0000
  Fe  Fe83      1.0  0.71396  0.57440  0.31303  1.0000
  C   C405      1.0  0.49253  0.47118  0.24887  1.0000
  Fe  Fe84      1.0  0.65828  0.56683  0.31266  1.0000
  S   S165      1.0  0.66981  0.60359  0.27753  1.0000
  S   S166      1.0  0.61721  0.54718  0.33760  1.0000
  Fe  Fe85      1.0  0.69389  0.59078  0.23959  1.0000
  S   S167      1.0  0.70274  0.59511  0.17195  1.0000
  Fe  Fe86      1.0  0.70368  0.62165  0.32065  1.0000
  C   C406      1.0  0.49917  0.45412  0.31118  1.0000
  S   S168      1.0  0.67976  0.55265  0.27152  1.0000
  S   S169      1.0  0.69116  0.58537  0.35712  1.0000
  H   H640      1.0  0.59331  0.60329  0.04177  1.0000
  Fe  Fe87      1.0  0.50369  0.40248  0.37352  1.0000
  C   C407      1.0  0.64093  0.61284  0.37581  1.0000
  C   C408      1.0  0.65275  0.55956  0.05744  1.0000
  C   C409      1.0  0.67935  0.57630  0.05485  1.0000
  C   C410      1.0  0.69424  0.58693  0.09016  1.0000
  C   C411      1.0  0.68283  0.58101  0.12853  1.0000
  C   C412      1.0  0.65625  0.56419  0.13113  1.0000
  C   C413      1.0  0.64136  0.55363  0.09582  1.0000
  H   H641      1.0  0.68847  0.58110  0.02567  1.0000
  H   H642      1.0  0.50258  0.43422  0.21604  1.0000
  H   H643      1.0  0.64713  0.55939  0.16030  1.0000
  H   H644      1.0  0.62083  0.54068  0.09832  1.0000
  C   C414      1.0  0.56516  0.45882  0.34827  1.0000
  C   C415      1.0  0.55784  0.47646  0.36564  1.0000
  C   C416      1.0  0.57404  0.50343  0.36226  1.0000
  C   C417      1.0  0.59787  0.51307  0.34206  1.0000
  C   C418      1.0  0.60538  0.49544  0.32529  1.0000
  C   C419      1.0  0.58905  0.46849  0.32828  1.0000
  H   H645      1.0  0.53970  0.46933  0.38160  1.0000
  H   H646      1.0  0.56811  0.51690  0.37552  1.0000
  H   H647      1.0  0.62365  0.50255  0.30968  1.0000
  H   H648      1.0  0.59489  0.45501  0.31475  1.0000
  C   C420      1.0  0.49998  0.62206  0.17570  1.0000
  H   H649      1.0  0.54485  0.46363  0.27644  1.0000
  H   H650      1.0  0.50201  0.59554  0.13180  1.0000
  H   H651      1.0  0.61361  0.56962  0.41825  1.0000
  N   N41       1.0  0.50596  0.45787  0.26812  1.0000
  C   C421      1.0  0.48346  0.62707  0.20070  1.0000
  H   H652      1.0  0.65349  0.60617  0.35968  1.0000
  C   C422      1.0  0.63377  0.58229  0.42904  1.0000
  H   H653      1.0  0.50546  0.47297  0.32731  1.0000
  H   H654      1.0  0.71477  0.59989  0.08766  1.0000
  H   H655      1.0  0.69983  0.54237  0.19166  1.0000
  C   C423      1.0  0.57865  0.55675  0.00651  1.0000
  H   H656      1.0  0.62091  0.60096  0.36390  1.0000
  H   H657      1.0  0.68268  0.61988  0.41872  1.0000
  C   C424      1.0  0.58280  0.60000  0.01255  1.0000
  S   S170      1.0  0.53368  0.64362  0.17268  1.0000
  H   H658      1.0  0.64763  0.63347  0.36746  1.0000
  H   H659      1.0  0.54149  0.49272  0.28035  1.0000
  C   C425      1.0  0.66921  0.62586  0.43382  1.0000
  S   S171      1.0  0.63269  0.54581  0.01407  1.0000
  C   C426      1.0  0.53429  0.47380  0.26397  1.0000
  H   H660      1.0  0.55762  0.54774  0.01347  1.0000
  H   H661      1.0  0.58941  0.55888  0.03520  1.0000
  H   H662      1.0  0.50847  0.44358  0.32639  1.0000
  H   H663      1.0  0.50762  0.42172  0.26272  1.0000
  H   H664      1.0  0.54002  0.47800  0.23192  1.0000
  H   H665      1.0  0.49674  0.47392  0.21613  1.0000
  N   N42       1.0  0.64225  0.60992  0.41972  1.0000
  C   C427      1.0  0.48942  0.59960  0.15124  1.0000
  H   H666      1.0  0.63092  0.63945  0.43361  1.0000
  H   H667      1.0  0.67632  0.64683  0.42709  1.0000
  H   H668      1.0  0.63443  0.57922  0.46190  1.0000
  S   S172      1.0  0.49119  0.36718  0.41310  1.0000
  H   H669      1.0  0.56181  0.59217  0.01937  1.0000
  H   H670      1.0  0.60458  0.60703  0.43001  1.0000
  C   C428      1.0  0.49782  0.43225  0.24862  1.0000
  H   H671      1.0  0.67113  0.62415  0.46681  1.0000
  H   H672      1.0  0.49846  0.49067  0.26272  1.0000
  H   H673      1.0  0.49139  0.64405  0.22012  1.0000
  H   H674      1.0  0.71219  0.52364  0.24970  1.0000
  C   C429      1.0  0.62508  0.61868  0.44008  1.0000
  H   H675      1.0  0.72195  0.55667  0.15127  1.0000
  H   H676      1.0  0.70693  0.52206  0.15825  1.0000
  H   H677      1.0  0.62706  0.59628  0.00639  1.0000
  H   H678      1.0  0.58939  0.61927  0.99819  1.0000
  C   C430      1.0  0.71557  0.54112  0.17432  1.0000
  H   H679      1.0  0.72011  0.50381  0.21652  1.0000
  S   S173      1.0  0.48230  0.41918  0.40936  1.0000
  C   C431      1.0  0.72790  0.52336  0.23096  1.0000
  H   H680      1.0  0.53134  0.33949  0.91751  1.0000
  Fe  Fe88      1.0  0.67465  0.55930  0.87110  1.0000
  S   S174      1.0  0.66163  0.58359  0.90911  1.0000
  H   H681      1.0  0.69971  0.49083  0.75707  1.0000
  Fe  Fe89      1.0  0.62102  0.51256  0.87008  1.0000
  S   S175      1.0  0.60408  0.53273  0.90831  1.0000
  S   S176      1.0  0.60103  0.47221  0.84111  1.0000
  Fe  Fe90      1.0  0.62605  0.56763  0.86928  1.0000
  S   S177      1.0  0.60543  0.59161  0.85259  1.0000
  Fe  Fe91      1.0  0.64061  0.54746  0.94608  1.0000
  S   S178      1.0  0.64067  0.54648  0.82853  1.0000
  S   S179      1.0  0.65591  0.52413  0.91059  1.0000
  Fe  Fe92      1.0  0.50391  0.63250  0.65631  1.0000
  S   S180      1.0  0.52185  0.61450  0.61533  1.0000
  H   H682      1.0  0.62207  0.58324  0.77281  1.0000
  C   C432      1.0  0.59857  0.59774  0.80268  1.0000
  C   C433      1.0  0.58227  0.60932  0.79687  1.0000
  C   C434      1.0  0.57681  0.61506  0.75791  1.0000
  C   C435      1.0  0.58794  0.60966  0.72418  1.0000
  C   C436      1.0  0.60943  0.59205  0.76893  1.0000
  H   H683      1.0  0.57370  0.61376  0.82269  1.0000
  H   H684      1.0  0.58002  0.59673  0.93128  1.0000
  C   C437      1.0  0.51220  0.42318  0.83385  1.0000
  C   C438      1.0  0.52841  0.41582  0.81231  1.0000
  C   C439      1.0  0.55556  0.43103  0.81474  1.0000
  C   C440      1.0  0.56676  0.45400  0.83805  1.0000
  C   C441      1.0  0.55052  0.46159  0.85899  1.0000
  C   C442      1.0  0.52341  0.44621  0.85696  1.0000
  H   H685      1.0  0.52004  0.39843  0.79377  1.0000
  H   H686      1.0  0.56792  0.42507  0.79819  1.0000
  H   H687      1.0  0.55883  0.47920  0.87701  1.0000
  H   H688      1.0  0.51105  0.45215  0.87358  1.0000
  H   H689      1.0  0.55214  0.56992  0.95267  1.0000
  H   H690      1.0  0.53693  0.40584  0.90598  1.0000
  C   C443      1.0  0.51869  0.39111  0.91996  1.0000
  H   H691      1.0  0.71789  0.53104  0.87381  1.0000
  H   H692      1.0  0.68845  0.50071  0.82397  1.0000
  C   C444      1.0  0.68745  0.52987  0.76160  1.0000
  N   N43       1.0  0.58759  0.58202  0.98628  1.0000
  H   H693      1.0  0.62981  0.47452  0.75940  1.0000
  Fe  Fe93      1.0  0.55735  0.63590  0.65480  1.0000
  S   S181      1.0  0.52713  0.65187  0.51219  1.0000
  S   S182      1.0  0.71479  0.57679  0.84249  1.0000
  H   H694      1.0  0.63549  0.50684  0.77015  1.0000
  H   H695      1.0  0.66268  0.50912  0.82950  1.0000
  H   H696      1.0  0.70745  0.53565  0.77275  1.0000
  C   C445      1.0  0.51201  0.36101  0.86540  1.0000
  H   H697      1.0  0.64337  0.49912  0.72140  1.0000
  H   H698      1.0  0.55373  0.37341  0.91205  1.0000
  H   H699      1.0  0.68052  0.48947  0.71392  1.0000
  C   C446      1.0  0.60426  0.59812  0.73001  1.0000
  N   N44       1.0  0.66995  0.50202  0.76865  1.0000
  N   N45       1.0  0.51356  0.36432  0.90955  1.0000
  S   S183      1.0  0.58382  0.61879  0.67463  1.0000
  H   H700      1.0  0.66714  0.46497  0.75193  1.0000
  H   H701      1.0  0.68872  0.53469  0.72913  1.0000
  C   C447      1.0  0.67975  0.48609  0.74690  1.0000
  H   H702      1.0  0.56407  0.62375  0.75410  1.0000
  H   H703      1.0  0.65518  0.47617  0.81893  1.0000
  C   C448      1.0  0.64357  0.49535  0.75409  1.0000
  H   H704      1.0  0.61307  0.59392  0.70425  1.0000
  C   C449      1.0  0.66908  0.49672  0.81214  1.0000
  C   C450      1.0  0.61562  0.59321  0.97817  1.0000
  H   H705      1.0  0.53046  0.37467  0.85087  1.0000
  H   H706      1.0  0.68074  0.54255  0.77764  1.0000
  H   H707      1.0  0.61980  0.57994  0.95885  1.0000
  H   H708      1.0  0.49630  0.36461  0.85265  1.0000
  C   C451      1.0  0.57337  0.57815  0.94787  1.0000
  H   H709      1.0  0.50279  0.39511  0.90897  1.0000
  C   C452      1.0  0.53475  0.35958  0.92511  1.0000
  H   H710      1.0  0.57650  0.56459  0.92740  1.0000
  Fe  Fe94      1.0  0.53640  0.65145  0.57930  1.0000
  H   H711      1.0  0.58197  0.54271  0.98744  1.0000
  H   H712      1.0  0.62308  0.61208  0.96224  1.0000
  H   H713      1.0  0.52036  0.39455  0.95303  1.0000
  H   H714      1.0  0.48721  0.59713  0.53576  1.0000
  H   H715      1.0  0.48954  0.34657  0.96090  1.0000
  H   H716      1.0  0.53650  0.36187  0.95841  1.0000
  H   H717      1.0  0.50796  0.34100  0.85627  1.0000
  C   C453      1.0  0.48875  0.34554  0.92748  1.0000
  S   S184      1.0  0.53849  0.65192  0.69776  1.0000
  H   H718      1.0  0.48350  0.32516  0.91822  1.0000
  Fe  Fe95      1.0  0.55176  0.94213  0.14085  1.0000
  S   S185      1.0  0.53583  0.90887  0.18386  1.0000
  H   H719      1.0  0.61503  0.96895  0.25985  1.0000
  Fe  Fe96      1.0  0.52864  0.90565  0.06624  1.0000
  S   S186      1.0  0.51106  0.87000  0.10529  1.0000
  H   H720      1.0  0.53845  0.67455  0.36860  1.0000
  Fe  Fe97      1.0  0.49924  0.89376  0.14650  1.0000
  H   H721      1.0  0.62710  0.68197  0.30160  1.0000
  Fe  Fe98      1.0  0.54881  0.88795  0.13931  1.0000
  S   S187      1.0  0.57486  0.87004  0.15765  1.0000
  S   S188      1.0  0.51432  0.92835  0.10578  1.0000
  S   S189      1.0  0.56727  0.92235  0.09790  1.0000
  H   H722      1.0  0.56073  0.96318  0.24058  1.0000
  Fe  Fe99      1.0  0.55704  0.68086  0.20887  1.0000
  S   S190      1.0  0.59463  0.68857  0.23894  1.0000
  Fe  Fe100     1.0  0.56369  0.73443  0.22965  1.0000
  S   S191      1.0  0.60158  0.74637  0.26192  1.0000
  S   S192      1.0  0.53902  0.75527  0.22249  1.0000
  Fe  Fe101     1.0  0.61189  0.72782  0.20956  1.0000
  S   S193      1.0  0.65468  0.74668  0.19017  1.0000
  Fe  Fe102     1.0  0.58252  0.70650  0.28977  1.0000
  S   S194      1.0  0.59469  0.70227  0.35420  1.0000
  S   S195      1.0  0.57521  0.71876  0.17545  1.0000
  S   S196      1.0  0.54362  0.69584  0.26156  1.0000
  H   H723      1.0  0.49166  0.66048  0.12694  1.0000
  H   H724      1.0  0.63015  0.95323  0.28775  1.0000
  H   H725      1.0  0.51047  0.74069  0.14131  1.0000
  H   H726      1.0  0.71048  0.69546  0.05833  1.0000
  H   H727      1.0  0.55088  0.71723  0.48128  1.0000
  C   C454      1.0  0.57362  0.67906  0.47022  1.0000
  H   H728      1.0  0.65090  0.67183  0.31534  1.0000
  H   H729      1.0  0.59857  0.92484  0.17092  1.0000
  C   C455      1.0  0.66925  0.75514  0.14157  1.0000
  C   C456      1.0  0.69625  0.77100  0.13885  1.0000
  C   C457      1.0  0.70878  0.77774  0.10117  1.0000
  C   C458      1.0  0.69451  0.76831  0.06549  1.0000
  C   C459      1.0  0.66756  0.75226  0.06825  1.0000
  C   C460      1.0  0.65498  0.74588  0.10590  1.0000
  H   H730      1.0  0.70755  0.77838  0.16612  1.0000
  H   H731      1.0  0.70766  0.73631  0.30001  1.0000
  H   H732      1.0  0.65627  0.74478  0.04098  1.0000
  H   H733      1.0  0.63426  0.73360  0.10729  1.0000
  H   H734      1.0  0.62641  0.95602  0.17665  1.0000
  H   H735      1.0  0.64553  0.97175  0.24377  1.0000
  C   C461      1.0  0.58796  0.69006  0.43497  1.0000
  C   C462      1.0  0.57549  0.68855  0.39792  1.0000
  C   C463      1.0  0.66010  0.73301  0.29676  1.0000
  C   C464      1.0  0.72799  0.67786  0.39052  1.0000
  H   H736      1.0  0.53551  0.73121  0.14161  1.0000
  S   S197      1.0  0.71104  0.66156  0.34577  1.0000
  C   C465      1.0  0.53404  0.66486  0.43193  1.0000
  C   C466      1.0  0.56430  0.83773  0.17436  1.0000
  C   C467      1.0  0.58273  0.82877  0.18020  1.0000
  C   C468      1.0  0.57532  0.80350  0.19446  1.0000
  C   C469      1.0  0.54937  0.78702  0.20345  1.0000
  C   C470      1.0  0.53092  0.79594  0.19748  1.0000
  C   C471      1.0  0.53829  0.82112  0.18286  1.0000
  H   H737      1.0  0.60289  0.84145  0.17365  1.0000
  H   H738      1.0  0.58973  0.79690  0.19889  1.0000
  H   H739      1.0  0.51081  0.78340  0.20449  1.0000
  H   H740      1.0  0.52392  0.82779  0.17865  1.0000
  C   C472      1.0  0.62651  0.95811  0.25690  1.0000
  H   H741      1.0  0.68296  0.72125  0.23579  1.0000
  H   H742      1.0  0.52462  0.68452  0.13350  1.0000
  C   C473      1.0  0.64646  0.68853  0.31585  1.0000
  S   S198      1.0  0.51898  0.90052  0.99836  1.0000
  H   H743      1.0  0.61884  0.90294  0.20892  1.0000
  C   C474      1.0  0.69195  0.71917  0.31491  1.0000
  H   H744      1.0  0.57523  0.92662  0.25362  1.0000
  H   H745      1.0  0.60891  0.69972  0.43635  1.0000
  C   C475      1.0  0.50566  0.68106  0.12042  1.0000
  C   C476      1.0  0.54649  0.66622  0.46887  1.0000
  H   H746      1.0  0.72053  0.71619  0.10226  1.0000
  H   H747      1.0  0.64772  0.93345  0.21320  1.0000
  H   H748      1.0  0.57687  0.89909  0.23152  1.0000
  C   C477      1.0  0.66816  0.70436  0.25253  1.0000
  H   H749      1.0  0.51887  0.72973  0.09545  1.0000
  N   N46       1.0  0.66666  0.71127  0.29500  1.0000
  C   C478      1.0  0.60813  0.94204  0.19126  1.0000
  N   N47       1.0  0.61284  0.93453  0.23156  1.0000
  H   H750      1.0  0.69152  0.72444  0.34707  1.0000
  H   H751      1.0  0.67472  0.75045  0.28088  1.0000
  C   C479      1.0  0.54838  0.67597  0.39675  1.0000
  H   H752      1.0  0.51282  0.69941  0.19561  1.0000
  H   H753      1.0  0.59527  0.95137  0.19287  1.0000
  C   C480      1.0  0.58780  0.91698  0.25020  1.0000
  N   N48       1.0  0.49697  0.69933  0.13738  1.0000
  S   S199      1.0  0.70931  0.77470  0.01695  1.0000
  H   H754      1.0  0.64112  0.72763  0.28204  1.0000
  H   H755      1.0  0.64942  0.69831  0.23650  1.0000
  H   H756      1.0  0.64453  0.69325  0.34780  1.0000
  H   H757      1.0  0.65860  0.73868  0.32833  1.0000
  C   C481      1.0  0.51623  0.72635  0.12836  1.0000
  C   C482      1.0  0.49422  0.69600  0.18139  1.0000
  C   C483      1.0  0.62883  0.92094  0.22772  1.0000
  H   H758      1.0  0.63286  0.91502  0.25755  1.0000
  H   H759      1.0  0.69750  0.70318  0.31402  1.0000
  H   H760      1.0  0.57901  0.74816  0.48698  1.0000
  H   H761      1.0  0.67321  0.68811  0.24997  1.0000
  H   H762      1.0  0.59054  0.91065  0.28050  1.0000
  H   H763      1.0  0.70860  0.72551  0.05886  1.0000
  H   H764      1.0  0.48860  0.71010  0.19556  1.0000
  C   C484      1.0  0.57517  0.98330  0.24381  1.0000
  H   H765      1.0  0.54761  0.74648  0.48058  1.0000
  H   H766      1.0  0.50807  0.68298  0.08726  1.0000
  C   C485      1.0  0.72052  0.71607  0.06880  1.0000
  H   H767      1.0  0.72270  0.89851  0.48882  1.0000
  H   H768      1.0  0.57385  0.98311  0.30874  1.0000
  S   S200      1.0  0.57786  0.98458  0.16001  1.0000
  H   H769      1.0  0.70027  0.97631  0.00733  1.0000
  H   H770      1.0  0.72720  0.71356  0.37561  1.0000
  H   H771      1.0  0.47942  0.67604  0.18942  1.0000
  H   H772      1.0  0.51310  0.65503  0.43034  1.0000
  Fe  Fe103     1.0  0.55294  0.85326  0.70076  1.0000
  S   S201      1.0  0.59064  0.87349  0.73440  1.0000
  S   S202      1.0  0.53100  0.80964  0.68743  1.0000
  Fe  Fe104     1.0  0.54708  0.90275  0.69518  1.0000
  S   S203      1.0  0.58489  0.92641  0.72794  1.0000
  S   S204      1.0  0.52630  0.92607  0.67644  1.0000
  Fe  Fe105     1.0  0.60111  0.90555  0.68899  1.0000
  S   S205      1.0  0.64334  0.92589  0.66743  1.0000
  Fe  Fe106     1.0  0.57150  0.89289  0.77055  1.0000
  S   S206      1.0  0.58016  0.90000  0.83823  1.0000
  S   S207      1.0  0.56422  0.88407  0.65309  1.0000
  S   S208      1.0  0.53282  0.87035  0.74008  1.0000
  Fe  Fe107     1.0  0.55219  0.68586  0.65562  1.0000
  S   S209      1.0  0.57350  0.67119  0.61483  1.0000
  S   S210      1.0  0.57584  0.72825  0.67460  1.0000
  H   H773      1.0  0.68128  0.91271  0.55828  1.0000
  C   C486      1.0  0.68447  0.95476  0.61805  1.0000
  C   C487      1.0  0.49232  0.91490  0.67435  1.0000
  H   H774      1.0  0.56275  0.70313  0.54485  1.0000
  C   C488      1.0  0.56937  0.72313  0.55705  1.0000
  H   H775      1.0  0.52058  0.76765  0.83551  1.0000
  H   H776      1.0  0.55444  0.96073  0.74532  1.0000
  H   H777      1.0  0.50228  0.88537  0.91685  1.0000
  H   H778      1.0  0.63233  0.65640  0.72200  1.0000
  H   H779      1.0  0.51621  0.97353  0.79208  1.0000
  H   H780      1.0  0.56267  0.98523  0.78384  1.0000
  C   C489      1.0  0.68172  0.96192  0.54653  1.0000
  H   H781      1.0  0.71748  0.97692  0.58003  1.0000
  H   H782      1.0  0.54767  0.78674  0.77512  1.0000
  C   C490      1.0  0.54415  0.78762  0.68271  1.0000
  C   C491      1.0  0.57055  0.79544  0.68833  1.0000
  C   C492      1.0  0.57995  0.77703  0.68576  1.0000
  C   C493      1.0  0.56312  0.75070  0.67738  1.0000
  C   C494      1.0  0.53678  0.74293  0.67131  1.0000
  C   C495      1.0  0.52737  0.76131  0.67407  1.0000
  H   H783      1.0  0.58371  0.81563  0.69485  1.0000
  H   H784      1.0  0.60038  0.78325  0.69040  1.0000
  H   H785      1.0  0.52356  0.72271  0.66514  1.0000
  H   H786      1.0  0.50689  0.75505  0.66984  1.0000
  C   C496      1.0  0.65732  0.94029  0.62069  1.0000
  C   C497      1.0  0.64241  0.93703  0.58605  1.0000
  C   C498      1.0  0.65456  0.94780  0.54926  1.0000
  H   H787      1.0  0.62153  0.92598  0.58756  1.0000
  H   H788      1.0  0.64279  0.94492  0.52265  1.0000
  C   C499      1.0  0.53630  0.89968  0.95460  1.0000
  C   C500      1.0  0.56289  0.90733  0.95525  1.0000
  C   C501      1.0  0.57586  0.90722  0.91940  1.0000
  C   C502      1.0  0.56248  0.89928  0.88246  1.0000
  C   C503      1.0  0.53577  0.89104  0.88194  1.0000
  C   C504      1.0  0.52288  0.89154  0.91765  1.0000
  H   H789      1.0  0.51496  0.72824  0.53476  1.0000
  H   H790      1.0  0.59647  0.91345  0.92036  1.0000
  H   H791      1.0  0.52495  0.88409  0.85425  1.0000
  H   H792      1.0  0.49436  0.79996  0.81007  1.0000
  H   H793      1.0  0.69980  0.98477  0.91610  1.0000
  C   C505      1.0  0.53672  0.95233  0.84370  1.0000
  H   H794      1.0  0.58492  0.77435  0.54997  1.0000
  H   H795      1.0  0.57312  0.96068  0.78830  1.0000
  H   H796      1.0  0.67889  0.88294  0.57743  1.0000
  N   N49       1.0  0.53263  0.94740  0.79991  1.0000
  H   H797      1.0  0.50314  0.78097  0.77611  1.0000
  H   H798      1.0  0.51889  0.93987  0.86090  1.0000
  C   C506      1.0  0.69247  0.90388  0.57296  1.0000
  H   H799      1.0  0.62344  0.67474  0.66192  1.0000
  H   H800      1.0  0.62783  0.70750  0.66228  1.0000
  S   S211      1.0  0.69593  0.97451  0.49908  1.0000
  C   C507      1.0  0.55820  0.73696  0.49511  1.0000
  H   H801      1.0  0.56131  0.83899  0.85136  1.0000
  H   H802      1.0  0.51272  0.78777  0.86830  1.0000
  C   C508      1.0  0.55678  0.96428  0.77844  1.0000
  N   N50       1.0  0.55461  0.73548  0.53920  1.0000
  C   C509      1.0  0.63525  0.69454  0.67511  1.0000
  H   H803      1.0  0.52337  0.71871  0.58144  1.0000
  C   C510      1.0  0.69662  0.96561  0.58131  1.0000
  H   H804      1.0  0.64922  0.72077  0.76935  1.0000
  C   C511      1.0  0.52785  0.78773  0.84789  1.0000
  H   H805      1.0  0.71597  0.87321  0.57108  1.0000
  C   C512      1.0  0.48291  0.93237  0.66343  1.0000
  C   C513      1.0  0.52547  0.91990  0.79131  1.0000
  H   H806      1.0  0.69618  0.95764  0.64475  1.0000
  C   C514      1.0  0.56401  0.76192  0.55639  1.0000
  H   H807      1.0  0.60450  0.68359  0.76504  1.0000
  S   S212      1.0  0.51603  0.66813  0.61815  1.0000
  H   H808      1.0  0.52868  0.83451  0.85300  1.0000
  H   H809      1.0  0.57239  0.81141  0.80618  1.0000
  C   C515      1.0  0.51157  0.95294  0.78602  1.0000
  H   H810      1.0  0.51408  0.81469  0.76703  1.0000
  H   H811      1.0  0.54139  0.91535  0.79991  1.0000
  H   H812      1.0  0.50774  0.90656  0.80788  1.0000
  H   H813      1.0  0.64297  0.73435  0.72482  1.0000
  H   H814      1.0  0.56174  0.76141  0.58972  1.0000
  H   H815      1.0  0.49647  0.95224  0.65638  1.0000
  C   C516      1.0  0.51029  0.80028  0.79126  1.0000
  C   C517      1.0  0.54337  0.83313  0.83312  1.0000
  H   H816      1.0  0.69844  0.91309  0.60328  1.0000
  H   H817      1.0  0.55311  0.77177  0.54401  1.0000
  H   H818      1.0  0.54531  0.79214  0.86659  1.0000
  H   H819      1.0  0.66413  0.68312  0.72759  1.0000
  H   H820      1.0  0.69268  0.87485  0.50967  1.0000
  C   C518      1.0  0.55414  0.80626  0.78923  1.0000
  N   N51       1.0  0.53391  0.80684  0.81539  1.0000
  C   C519      1.0  0.64984  0.72052  0.73588  1.0000
  H   H821      1.0  0.67051  0.72821  0.72700  1.0000
  H   H822      1.0  0.59046  0.73442  0.55088  1.0000
  H   H823      1.0  0.65553  0.70153  0.66466  1.0000
  H   H824      1.0  0.55896  0.82031  0.76422  1.0000
  C   C520      1.0  0.64337  0.67628  0.73511  1.0000
  H   H825      1.0  0.56699  0.72160  0.59025  1.0000
  H   H826      1.0  0.54820  0.84799  0.80938  1.0000
  H   H827      1.0  0.57351  0.91363  0.98333  1.0000
  H   H828      1.0  0.50818  0.94941  0.75298  1.0000
  H   H829      1.0  0.55237  0.94804  0.85501  1.0000
  C   C521      1.0  0.52680  0.71979  0.54840  1.0000
  H   H830      1.0  0.51922  0.69949  0.53668  1.0000
  C   C522      1.0  0.70616  0.89603  0.50811  1.0000
  H   H831      1.0  0.59877  0.69795  0.72087  1.0000
  N   N52       1.0  0.63378  0.69405  0.71950  1.0000
  C   C523      1.0  0.60657  0.68484  0.73177  1.0000
  N   N53       1.0  0.71509  0.90747  0.54858  1.0000
  H   H832      1.0  0.72360  0.94578  0.52900  1.0000
  H   H833      1.0  0.49295  0.94032  0.80120  1.0000
  H   H834      1.0  0.59392  0.66514  0.71925  1.0000
  H   H835      1.0  0.72421  0.97743  0.97212  1.0000
  H   H836      1.0  0.52138  0.91526  0.75877  1.0000
  H   H837      1.0  0.48153  0.87564  0.69191  1.0000
  H   H838      1.0  0.67584  0.98328  0.95147  1.0000
  H   H839      1.0  0.58358  0.68023  0.49823  1.0000
  H   H840      1.0  0.54232  0.97295  0.85146  1.0000
  H   H841      1.0  0.64143  0.67438  0.76838  1.0000
  C   C524      1.0  0.72869  0.89451  0.56837  1.0000
  H   H842      1.0  0.69588  0.90552  0.49244  1.0000
  C   C525      1.0  0.86464  0.08568  0.48356  1.0000
  H   H843      1.0  0.83349  0.09911  0.39672  1.0000
  C   C526      1.0  0.91147  0.27568  0.44866  1.0000
  S   S213      1.0  0.80618  0.01341  0.42747  1.0000
  H   H844      1.0  0.82654  0.25307  0.18398  1.0000
  S   S214      1.0  0.81402  0.07857  0.48398  1.0000
  S   S215      1.0  0.75462  0.02263  0.43512  1.0000
  Fe  Fe108     1.0  0.79060  0.07220  0.03141  1.0000
  Fe  Fe109     1.0  0.81283  0.05804  0.10673  1.0000
  S   S216      1.0  0.83456  0.04279  0.06787  1.0000
  S   S217      1.0  0.82023  0.05835  0.17483  1.0000
  Fe  Fe110     1.0  0.84507  0.07821  0.02968  1.0000
  H   H845      1.0  0.78666  0.07161  0.31094  1.0000
  Fe  Fe111     1.0  0.79836  0.02365  0.03049  1.0000
  S   S218      1.0  0.82581  0.09489  0.07069  1.0000
  S   S219      1.0  0.77585  0.03693  0.07123  1.0000
  H   H846      1.0  0.76582  0.01919  0.18633  1.0000
  H   H847      1.0  0.79397  0.00821  0.13677  1.0000
  H   H848      1.0  0.80037  0.28760  0.17536  1.0000
  S   S220      1.0  0.85372  0.27669  0.26167  1.0000
  S   S221      1.0  0.78900  0.27035  0.31037  1.0000
  C   C527      1.0  0.92963  0.26664  0.45659  1.0000
  C   C528      1.0  0.91763  0.27395  0.37651  1.0000
  C   C529      1.0  0.93566  0.26476  0.38442  1.0000
  C   C530      1.0  0.94154  0.26098  0.42420  1.0000
  H   H849      1.0  0.94537  0.26080  0.35963  1.0000
  H   H850      1.0  0.95566  0.25417  0.42982  1.0000
  C   C531      1.0  0.90313  0.13383  0.99779  1.0000
  H   H851      1.0  0.77767  0.18187  0.33577  1.0000
  H   H852      1.0  0.73524  0.23846  0.32811  1.0000
  Fe  Fe112     1.0  0.83242  0.29293  0.29877  1.0000
  Fe  Fe113     1.0  0.88680  0.29793  0.30493  1.0000
  S   S222      1.0  0.88629  0.09979  0.00622  1.0000
  H   H853      1.0  0.74769  0.23839  0.17642  1.0000
  C   C532      1.0  0.76432  0.23808  0.16038  1.0000
  H   H854      1.0  0.77509  0.20923  0.21313  1.0000
  S   S223      1.0  0.75755  0.99546  0.32931  1.0000
  C   C533      1.0  0.81800  0.08500  0.37647  1.0000
  H   H855      1.0  0.77919  0.27508  0.21827  1.0000
  C   C534      1.0  0.72970  0.19955  0.33845  1.0000
  C   C535      1.0  0.77526  0.01362  0.28700  1.0000
  C   C536      1.0  0.80136  0.03210  0.28967  1.0000
  C   C537      1.0  0.81458  0.04584  0.25516  1.0000
  C   C538      1.0  0.80200  0.04128  0.21752  1.0000
  C   C539      1.0  0.77588  0.02281  0.21488  1.0000
  C   C540      1.0  0.83097  0.99311  0.13344  1.0000
  H   H856      1.0  0.81142  0.03559  0.31819  1.0000
  H   H857      1.0  0.83484  0.05994  0.25752  1.0000
  H   H858      1.0  0.82145  0.11671  0.31565  1.0000
  Fe  Fe114     1.0  0.76735  0.99870  0.39667  1.0000
  H   H859      1.0  0.89099  0.28565  0.40333  1.0000
  H   H860      1.0  0.81200  0.28097  0.22119  1.0000
  C   C541      1.0  0.77149  0.23704  0.32368  1.0000
  C   C542      1.0  0.78334  0.22090  0.32605  1.0000
  C   C543      1.0  0.76836  0.19420  0.33418  1.0000
  C   C544      1.0  0.90525  0.27903  0.40886  1.0000
  H   H861      1.0  0.81451  0.25943  0.13830  1.0000
  H   H862      1.0  0.80399  0.22895  0.32142  1.0000
  H   H863      1.0  0.80967  0.99826  0.20122  1.0000
  N   N54       1.0  0.79907  0.09427  0.36564  1.0000
  C   C545      1.0  0.89088  0.14960  0.00057  1.0000
  H   H864      1.0  0.75795  0.21783  0.14944  1.0000
  C   C546      1.0  0.76266  0.00906  0.24938  1.0000
  H   H865      1.0  0.79864  0.12666  0.33529  1.0000
  H   H866      1.0  0.82798  0.13431  0.36258  1.0000
  C   C547      1.0  0.79491  0.27381  0.20090  1.0000
  C   C548      1.0  0.78736  0.09842  0.40265  1.0000
  C   C549      1.0  0.74462  0.22619  0.32992  1.0000
  H   H867      1.0  0.80853  0.06623  0.39279  1.0000
  C   C550      1.0  0.77857  0.07465  0.33967  1.0000
  H   H868      1.0  0.87063  0.14109  0.00859  1.0000
  H   H869      1.0  0.90202  0.27995  0.47351  1.0000
  H   H870      1.0  0.90430  0.09225  0.48277  1.0000
  H   H871      1.0  0.74246  0.99485  0.24697  1.0000
  C   C551      1.0  0.78078  0.22967  0.22214  1.0000
  N   N55       1.0  0.78723  0.24695  0.18702  1.0000
  H   H872      1.0  0.76448  0.22967  0.23963  1.0000
  C   C552      1.0  0.81238  0.11907  0.34382  1.0000
  Fe  Fe115     1.0  0.79236  0.03540  0.46837  1.0000
  H   H873      1.0  0.80389  0.22638  0.15383  1.0000
  S   S224      1.0  0.76243  0.08702  0.01060  1.0000
  C   C553      1.0  0.74147  0.18336  0.34048  1.0000
  C   C554      1.0  0.80889  0.24632  0.16475  1.0000
  H   H874      1.0  0.85322  0.30162  0.07316  1.0000
  S   S225      1.0  0.86445  0.31177  0.34470  1.0000
  H   H875      1.0  0.76353  0.08064  0.33181  1.0000
  H   H876      1.0  0.77319  0.10574  0.39577  1.0000
  S   S226      1.0  0.91274  0.28059  0.32601  1.0000
  H   H877      1.0  0.82744  0.08193  0.34934  1.0000
  H   H878      1.0  0.80239  0.11280  0.42323  1.0000
  H   H879      1.0  0.83832  0.01383  0.14303  1.0000
  H   H880      1.0  0.77709  0.08012  0.41988  1.0000
  H   H881      1.0  0.83314  0.99286  0.10020  1.0000
  H   H882      1.0  0.76857  0.25078  0.13362  1.0000
  H   H883      1.0  0.79755  0.23610  0.24320  1.0000
  H   H884      1.0  0.76865  0.05539  0.35461  1.0000
  H   H885      1.0  0.97136  0.18149  0.43170  1.0000
  H   H886      1.0  0.89522  0.18847  0.99494  1.0000
  H   H887      1.0  0.96259  0.30813  0.01479  1.0000
  C   C555      1.0  0.84810  0.09673  0.49007  1.0000
  S   S227      1.0  0.97488  0.22156  0.48722  1.0000
  S   S228      1.0  0.86252  0.30832  0.15834  1.0000
  H   H888      1.0  0.96715  0.14937  0.42364  1.0000
  C   C556      1.0  0.89167  0.10097  0.48799  1.0000
  H   H889      1.0  0.85664  0.06540  0.47498  1.0000
  Fe  Fe116     1.0  0.86889  0.31403  0.22667  1.0000
  H   H890      1.0  0.73393  0.99870  0.01491  1.0000
  H   H891      1.0  0.97837  0.17249  0.38329  1.0000
  C   C557      1.0  0.87105  0.31941  0.07757  1.0000
  Fe  Fe117     1.0  0.73771  0.98887  0.47753  1.0000
  C   C558      1.0  0.90487  0.17646  0.99276  1.0000
  C   C559      1.0  0.81261  0.21547  0.91514  1.0000
  C   C560      1.0  0.77054  0.18186  0.89450  1.0000
  S   S229      1.0  0.75130  0.22890  0.83537  1.0000
  S   S230      1.0  0.87457  0.29494  0.84295  1.0000
  C   C561      1.0  0.92881  0.28291  0.85664  1.0000
  H   H892      1.0  0.93490  0.29477  0.88479  1.0000
  S   S231      1.0  0.74752  0.11458  0.83001  1.0000
  Fe  Fe118     1.0  0.95549  0.18748  0.52830  1.0000
  S   S232      1.0  0.93739  0.20664  0.56620  1.0000
  H   H893      1.0  0.83338  0.22098  0.92055  1.0000
  Fe  Fe119     1.0  0.95916  0.24178  0.52780  1.0000
  C   C562      1.0  0.73988  0.02651  0.94828  1.0000
  C   C563      1.0  0.77030  0.09937  0.88941  1.0000
  H   H894      1.0  0.80875  0.19555  0.84064  1.0000
  C   C564      1.0  0.78556  0.24760  0.83485  1.0000
  C   C565      1.0  0.79717  0.27106  0.85685  1.0000
  C   C566      1.0  0.82433  0.28601  0.85874  1.0000
  C   C567      1.0  0.84026  0.27756  0.83888  1.0000
  C   C568      1.0  0.82868  0.25414  0.81665  1.0000
  C   C569      1.0  0.80146  0.23932  0.81435  1.0000
  H   H895      1.0  0.78508  0.27770  0.87267  1.0000
  H   H896      1.0  0.78232  0.09819  0.86551  1.0000
  H   H897      1.0  0.84080  0.24754  0.80086  1.0000
  H   H898      1.0  0.79278  0.22154  0.79675  1.0000
  C   C570      1.0  0.80901  0.18311  0.86573  1.0000
  H   H899      1.0  0.82943  0.18716  0.87066  1.0000
  H   H900      1.0  0.87197  0.11979  0.59180  1.0000
  H   H901      1.0  0.81187  0.22870  0.89179  1.0000
  C   C571      1.0  0.75110  0.10685  0.88041  1.0000
  H   H902      1.0  0.83291  0.30395  0.87597  1.0000
  C   C572      1.0  0.88587  0.13838  0.50579  1.0000
  C   C573      1.0  0.85887  0.12313  0.50124  1.0000
  H   H903      1.0  0.78803  0.15023  0.92639  1.0000
  H   H904      1.0  0.95480  0.24248  0.87754  1.0000
  S   S233      1.0  0.96559  0.21378  0.67272  1.0000
  H   H905      1.0  0.76117  0.18527  0.92143  1.0000
  H   H906      1.0  0.76922  0.19410  0.86991  1.0000
  C   C574      1.0  0.93611  0.25450  0.81082  1.0000
  C   C575      1.0  0.79855  0.17110  0.93517  1.0000
  S   S234      1.0  0.77434  0.00357  0.51398  1.0000
  H   H907      1.0  0.92225  0.23697  0.88601  1.0000
  H   H908      1.0  0.81880  0.17545  0.94265  1.0000
  H   H909      1.0  0.94788  0.24440  0.80377  1.0000
  N   N56       1.0  0.89867  0.14294  0.63825  1.0000
  C   C576      1.0  0.90421  0.14066  0.68100  1.0000
  C   C577      1.0  0.87639  0.11860  0.62415  1.0000
  C   C578      1.0  0.92169  0.14781  0.61399  1.0000
  C   C579      1.0  0.89252  0.16480  0.63376  1.0000
  H   H910      1.0  0.90914  0.12449  0.68554  1.0000
  H   H911      1.0  0.88730  0.13700  0.70033  1.0000
  H   H912      1.0  0.92098  0.15889  0.69222  1.0000
  H   H913      1.0  0.88033  0.10167  0.62705  1.0000
  H   H914      1.0  0.85857  0.11435  0.64152  1.0000
  H   H915      1.0  0.91834  0.15004  0.58170  1.0000
  H   H916      1.0  0.92670  0.13155  0.61603  1.0000
  H   H917      1.0  0.93899  0.16588  0.62400  1.0000
  H   H918      1.0  0.78939  0.17351  0.96315  1.0000
  H   H919      1.0  0.87540  0.16192  0.65199  1.0000
  H   H920      1.0  0.94869  0.26319  0.91133  1.0000
  H   H921      1.0  0.90907  0.18357  0.64369  1.0000
  H   H922      1.0  0.80471  0.21961  0.94317  1.0000
  H   H923      1.0  0.88805  0.16703  0.60188  1.0000
  S   S235      1.0  0.93656  0.14589  0.50421  1.0000
  H   H924      1.0  0.90798  0.26864  0.85992  1.0000
  H   H925      1.0  0.78930  0.08815  0.93556  1.0000
  S   S236      1.0  0.74535  0.16909  0.76766  1.0000
  N   N57       1.0  0.79770  0.18791  0.90266  1.0000
  C   C580      1.0  0.93126  0.18787  0.98248  1.0000
  C   C581      1.0  0.75884  0.09497  0.96032  1.0000
  H   H926      1.0  0.95909  0.20477  0.75785  1.0000
  H   H927      1.0  0.93913  0.13323  0.98514  1.0000
  C   C582      1.0  0.77430  0.09365  0.92914  1.0000
  H   H928      1.0  0.79785  0.16250  0.85529  1.0000
  N   N58       1.0  0.94496  0.26985  0.84853  1.0000
  C   C583      1.0  0.94256  0.25240  0.88219  1.0000
  H   H929      1.0  0.75879  0.16124  0.88489  1.0000
  H   H930      1.0  0.91549  0.23946  0.81279  1.0000
  H   H931      1.0  0.96380  0.18059  0.97207  1.0000
  C   C584      1.0  0.73959  0.10238  0.95133  1.0000
  C   C585      1.0  0.97722  0.22220  0.75379  1.0000
  C   C586      1.0  0.73575  0.10835  0.91164  1.0000
  H   H932      1.0  0.75535  0.03764  0.97072  1.0000
  H   H933      1.0  0.74687  0.01525  0.92913  1.0000
  S   S237      1.0  0.93765  0.26392  0.50728  1.0000
  S   S238      1.0  0.94804  0.22167  0.97217  1.0000
  H   H934      1.0  0.92995  0.29617  0.83180  1.0000
  H   H935      1.0  0.93772  0.26709  0.78477  1.0000
  H   H936      1.0  0.73782  0.04096  0.92883  1.0000
  C   C587      1.0  0.94352  0.17212  0.97992  1.0000
  H   H937      1.0  0.97490  0.30299  0.81903  1.0000
  C   C588      1.0  0.90243  0.12738  0.49904  1.0000
  Fe  Fe120     1.0  0.97338  0.22150  0.60507  1.0000
  H   H938      1.0  0.84625  0.13190  0.50614  1.0000
  H   H939      1.0  0.89385  0.15874  0.51391  1.0000
  S   S239      1.0  0.81058  0.05747  0.98848  1.0000
  C   C589      1.0  0.92948  0.14525  0.98735  1.0000
  C   C590      1.0  0.97235  0.28960  0.84436  1.0000
  H   H940      1.0  0.91100  0.35741  0.15202  1.0000
  Fe  Fe121     1.0  0.88002  0.34688  0.30454  1.0000
  S   S240      1.0  0.73538  0.55122  0.32845  1.0000
  S   S241      1.0  0.90156  0.38734  0.33325  1.0000
  H   H941      1.0  0.97022  0.61209  0.20642  1.0000
  H   H942      1.0  0.95018  0.59416  0.27246  1.0000
  N   N59       1.0  0.93794  0.51589  0.25598  1.0000
  H   H943      1.0  0.87972  0.47467  0.41218  1.0000
  H   H944      1.0  0.76552  0.55886  0.15377  1.0000
  C   C591      1.0  0.96390  0.53101  0.23820  1.0000
  Fe  Fe122     1.0  0.88258  0.51498  0.35692  1.0000
  S   S242      1.0  0.91608  0.52980  0.39981  1.0000
  S   S243      1.0  0.86493  0.47521  0.32632  1.0000
  Fe  Fe123     1.0  0.87619  0.56440  0.36558  1.0000
  S   S244      1.0  0.90982  0.58271  0.40916  1.0000
  S   S245      1.0  0.85654  0.58911  0.34940  1.0000
  Fe  Fe124     1.0  0.93004  0.56760  0.36633  1.0000
  H   H945      1.0  0.87703  0.32726  0.01376  1.0000
  Fe  Fe125     1.0  0.89273  0.54345  0.43839  1.0000
  S   S246      1.0  0.89759  0.55189  0.32119  1.0000
  S   S247      1.0  0.85809  0.52608  0.39694  1.0000
  H   H946      1.0  0.85536  0.41696  0.43440  1.0000
  C   C592      1.0  0.82281  0.57806  0.34288  1.0000
  C   C593      1.0  0.81396  0.59611  0.33289  1.0000
  C   C594      1.0  0.78727  0.58830  0.32846  1.0000
  C   C595      1.0  0.76917  0.56230  0.33404  1.0000
  C   C596      1.0  0.77803  0.54426  0.34396  1.0000
  C   C597      1.0  0.80470  0.55207  0.34847  1.0000
  H   H947      1.0  0.82783  0.61629  0.32865  1.0000
  H   H948      1.0  0.78074  0.60241  0.32089  1.0000
  H   H949      1.0  0.76415  0.52409  0.34833  1.0000
  H   H950      1.0  0.81121  0.53798  0.35620  1.0000
  H   H951      1.0  0.93481  0.38306  0.09262  1.0000
  C   C598      1.0  0.83222  0.60397  0.45355  1.0000
  H   H952      1.0  0.83534  0.62394  0.46110  1.0000
  C   C599      1.0  0.89120  0.41160  0.33068  1.0000
  C   C600      1.0  0.90624  0.43584  0.34950  1.0000
  C   C601      1.0  0.89863  0.45561  0.34833  1.0000
  C   C602      1.0  0.87579  0.45127  0.32834  1.0000
  C   C603      1.0  0.86084  0.42711  0.30939  1.0000
  C   C604      1.0  0.86846  0.40735  0.31056  1.0000
  H   H953      1.0  0.92389  0.43931  0.36508  1.0000
  H   H954      1.0  0.91048  0.47409  0.36294  1.0000
  H   H955      1.0  0.84317  0.42354  0.29376  1.0000
  H   H956      1.0  0.85672  0.38881  0.29591  1.0000
  H   H957      1.0  0.95979  0.32236  0.36406  1.0000
  C   C605      1.0  0.96173  0.36623  0.33773  1.0000
  H   H958      1.0  0.75404  0.58609  0.20014  1.0000
  S   S248      1.0  0.92614  0.37560  0.00733  1.0000
  C   C606      1.0  0.90764  0.35697  0.04884  1.0000
  C   C607      1.0  0.91702  0.36523  0.08820  1.0000
  C   C608      1.0  0.90353  0.35073  0.12203  1.0000
  C   C609      1.0  0.84266  0.42629  0.42933  1.0000
  C   C610      1.0  0.83417  0.46233  0.44499  1.0000
  S   S249      1.0  0.97275  0.58832  0.34841  1.0000
  H   H959      1.0  0.95300  0.51380  0.31425  1.0000
  H   H960      1.0  0.94699  0.33491  0.05370  1.0000
  H   H961      1.0  0.92709  0.48389  0.21432  1.0000
  H   H962      1.0  0.95302  0.34963  0.31598  1.0000
  N   N60       1.0  0.85153  0.59809  0.47370  1.0000
  H   H963      1.0  0.91887  0.32691  0.36577  1.0000
  H   H964      1.0  0.82677  0.55674  0.47354  1.0000
  C   C611      1.0  0.92829  0.48788  0.24726  1.0000
  H   H965      1.0  0.83341  0.60280  0.42022  1.0000
  C   C612      1.0  0.93966  0.52020  0.29994  1.0000
  S   S250      1.0  0.84594  0.32949  0.26213  1.0000
  H   H966      1.0  0.94109  0.48048  0.26070  1.0000
  H   H967      1.0  0.95294  0.37929  0.33134  1.0000
  H   H968      1.0  0.84699  0.56872  0.43022  1.0000
  H   H969      1.0  0.81209  0.59003  0.46222  1.0000
  C   C613      1.0  0.92879  0.34354  0.38697  1.0000
  H   H970      1.0  0.77454  0.54542  0.19576  1.0000
  H   H971      1.0  0.84029  0.48073  0.46252  1.0000
  H   H972      1.0  0.97177  0.55222  0.24466  1.0000
  N   N61       1.0  0.85102  0.45023  0.45390  1.0000
  H   H973      1.0  0.94697  0.54111  0.30755  1.0000
  C   C614      1.0  0.97076  0.60125  0.26828  1.0000
  H   H974      1.0  0.92037  0.50942  0.31422  1.0000
  N   N62       1.0  0.73728  0.54430  0.20084  1.0000
  H   H975      1.0  0.96318  0.33002  0.41669  1.0000
  H   H976      1.0  0.87970  0.61522  0.42688  1.0000
  C   C615      1.0  0.87780  0.61656  0.46007  1.0000
  H   H977      1.0  0.83489  0.46716  0.41248  1.0000
  H   H978      1.0  0.89133  0.45994  0.44878  1.0000
  C   C616      1.0  0.75792  0.54312  0.17652  1.0000
  H   H979      1.0  0.81360  0.44914  0.45246  1.0000
  C   C617      1.0  0.96783  0.33875  0.38617  1.0000
  H   H980      1.0  0.84336  0.43051  0.39659  1.0000
  H   H981      1.0  0.96148  0.39333  0.40359  1.0000
  C   C618      1.0  0.87808  0.46866  0.44408  1.0000
  H   H982      1.0  0.92659  0.54561  0.24478  1.0000
  H   H983      1.0  0.88535  0.48663  0.46300  1.0000
  C   C619      1.0  0.88451  0.33394  0.04375  1.0000
  H   H984      1.0  0.73230  0.64576  0.41450  1.0000
  H   H985      1.0  0.74366  0.52560  0.25218  1.0000
  H   H986      1.0  0.90010  0.51366  0.25192  1.0000
  C   C620      1.0  0.74778  0.56974  0.22173  1.0000
  C   C621      1.0  0.91984  0.52454  0.23876  1.0000
  S   S251      1.0  0.90410  0.33387  0.26665  1.0000
  H   H987      1.0  0.91792  0.52147  0.20560  1.0000
  H   H988      1.0  0.91993  0.35673  0.38268  1.0000
  H   H989      1.0  0.86076  0.56629  0.47740  1.0000
  H   H990      1.0  0.90852  0.47608  0.25978  1.0000
  H   H991      1.0  0.96832  0.36849  0.06343  1.0000
  C   C622      1.0  0.88041  0.32767  0.11694  1.0000
  C   C623      1.0  0.84628  0.57128  0.46331  1.0000
  H   H992      1.0  0.75066  0.52422  0.16014  1.0000
  H   H993      1.0  0.76453  0.57314  0.24150  1.0000
  H   H994      1.0  0.97365  0.34393  0.08828  1.0000
  H   H995      1.0  0.82243  0.41173  0.43632  1.0000
  H   H996      1.0  0.92427  0.33572  0.41800  1.0000
  N   N63       1.0  0.95698  0.35698  0.37966  1.0000
  H   H997      1.0  0.73290  0.57075  0.24132  1.0000
  C   C624      1.0  0.96941  0.37933  0.40769  1.0000
  H   H998      1.0  0.88245  0.63702  0.46730  1.0000
  H   H999      1.0  0.96614  0.37287  0.43955  1.0000
  C   C625      1.0  0.96767  0.34913  0.05936  1.0000
  H   H1000     1.0  0.96338  0.52849  0.20494  1.0000
  H   H1001     1.0  0.89289  0.61264  0.47448  1.0000
  S   S252      1.0  0.72910  0.61214  0.27969  1.0000
  H   H1002     1.0  0.97805  0.52497  0.25053  1.0000
  Fe  Fe126     1.0  0.89469  0.33706  0.86541  1.0000
  S   S253      1.0  0.93233  0.35105  0.89979  1.0000
  Fe  Fe127     1.0  0.89764  0.39092  0.86660  1.0000
  S   S254      1.0  0.93470  0.40840  0.90216  1.0000
  S   S255      1.0  0.87811  0.41258  0.83669  1.0000
  Fe  Fe128     1.0  0.94765  0.38623  0.85995  1.0000
  H   H1003     1.0  0.86196  0.43486  0.50485  1.0000
  Fe  Fe129     1.0  0.91662  0.37193  0.93968  1.0000
  S   S256      1.0  0.91152  0.37054  0.82232  1.0000
  S   S257      1.0  0.87808  0.35611  0.90734  1.0000
  H   H1004     1.0  0.82915  0.43001  0.50572  1.0000
  Fe  Fe130     1.0  0.89177  0.55487  0.81313  1.0000
  S   S258      1.0  0.91606  0.59144  0.77918  1.0000
  S   S259      1.0  0.91055  0.53337  0.84552  1.0000
  Fe  Fe131     1.0  0.84313  0.56158  0.80545  1.0000
  S   S260      1.0  0.86369  0.59871  0.77064  1.0000
  S   S261      1.0  0.80131  0.53847  0.82736  1.0000
  Fe  Fe132     1.0  0.88250  0.57839  0.73575  1.0000
  S   S262      1.0  0.89330  0.59100  0.67004  1.0000
  Fe  Fe133     1.0  0.89644  0.61002  0.81547  1.0000
  H   H1005     1.0  0.95506  0.34264  0.98139  1.0000
  S   S263      1.0  0.85946  0.54009  0.76733  1.0000
  S   S264      1.0  0.87451  0.57444  0.85279  1.0000
  C   C626      1.0  0.77794  0.54999  0.83272  1.0000
  C   C627      1.0  0.78165  0.57358  0.81642  1.0000
  C   C628      1.0  0.76221  0.58151  0.82009  1.0000
  H   H1006     1.0  0.94732  0.62137  0.70989  1.0000
  C   C629      1.0  0.84982  0.60052  0.51776  1.0000
  C   C630      1.0  0.75467  0.53461  0.85310  1.0000
  H   H1007     1.0  0.79940  0.58563  0.80065  1.0000
  H   H1008     1.0  0.76524  0.59971  0.80704  1.0000
  H   H1009     1.0  0.94836  0.63755  0.66407  1.0000
  H   H1010     1.0  0.75165  0.51640  0.86605  1.0000
  H   H1011     1.0  0.96707  0.46094  0.72430  1.0000
  C   C631      1.0  0.88555  0.54735  0.54938  1.0000
  C   C632      1.0  0.89823  0.57454  0.55147  1.0000
  C   C633      1.0  0.90038  0.58746  0.58860  1.0000
  C   C634      1.0  0.89005  0.57346  0.62418  1.0000
  C   C635      1.0  0.87743  0.54628  0.62207  1.0000
  C   C636      1.0  0.87519  0.53336  0.58492  1.0000
  H   H1012     1.0  0.90666  0.58561  0.52464  1.0000
  H   H1013     1.0  0.91034  0.60847  0.58984  1.0000
  H   H1014     1.0  0.86938  0.53521  0.64905  1.0000
  H   H1015     1.0  0.86540  0.51235  0.58382  1.0000
  C   C637      1.0  0.90186  0.49991  0.84181  1.0000
  C   C638      1.0  0.88579  0.48410  0.81101  1.0000
  C   C639      1.0  0.87897  0.45743  0.80966  1.0000
  C   C640      1.0  0.88828  0.44638  0.83882  1.0000
  C   C641      1.0  0.90463  0.46227  0.86932  1.0000
  C   C642      1.0  0.91136  0.48892  0.87078  1.0000
  H   H1016     1.0  0.87858  0.49239  0.78831  1.0000
  H   H1017     1.0  0.86633  0.44524  0.78592  1.0000
  H   H1018     1.0  0.91178  0.45396  0.89211  1.0000
  H   H1019     1.0  0.92386  0.50106  0.89468  1.0000
  H   H1020     1.0  0.83306  0.46538  0.83079  1.0000
  N   N64       1.0  0.96682  0.46562  0.78853  1.0000
  N   N65       1.0  0.82355  0.48124  0.88299  1.0000
  C   C643      1.0  0.82935  0.46156  0.86349  1.0000
  C   C644      1.0  0.84613  0.50719  0.87938  1.0000
  C   C645      1.0  0.81790  0.47497  0.92597  1.0000
  C   C646      1.0  0.80088  0.48134  0.86311  1.0000
  H   H1021     1.0  0.94548  0.48354  0.81546  1.0000
  H   H1022     1.0  0.81305  0.44159  0.86649  1.0000
  H   H1023     1.0  0.84690  0.46155  0.87692  1.0000
  H   H1024     1.0  0.84211  0.52267  0.89245  1.0000
  H   H1025     1.0  0.86353  0.50822  0.89495  1.0000
  H   H1026     1.0  0.85152  0.51221  0.84737  1.0000
  H   H1027     1.0  0.85557  0.46168  0.51624  1.0000
  H   H1028     1.0  0.80082  0.45559  0.92986  1.0000
  H   H1029     1.0  0.81375  0.48966  0.94163  1.0000
  H   H1030     1.0  0.79562  0.49559  0.87772  1.0000
  H   H1031     1.0  0.78359  0.46190  0.86403  1.0000
  H   H1032     1.0  0.80493  0.48710  0.83098  1.0000
  H   H1033     1.0  0.83466  0.47462  0.94166  1.0000
  H   H1034     1.0  0.97687  0.37612  0.99080  1.0000
  H   H1035     1.0  0.97018  0.50390  0.78138  1.0000
  C   C647      1.0  0.97567  0.35643  0.98832  1.0000
  H   H1036     1.0  0.92282  0.63205  0.91163  1.0000
  C   C648      1.0  0.95757  0.64033  0.69432  1.0000
  S   S265      1.0  0.88193  0.52985  0.50337  1.0000
  H   H1037     1.0  0.93158  0.43230  0.76951  1.0000
  H   H1038     1.0  0.94041  0.47783  0.76247  1.0000
  H   H1039     1.0  0.83021  0.58690  0.52903  1.0000
  C   C649      1.0  0.73540  0.54276  0.85734  1.0000
  H   H1040     1.0  0.86400  0.59598  0.53386  1.0000
  H   H1041     1.0  0.85389  0.62057  0.52678  1.0000
  C   C650      1.0  0.95525  0.48352  0.78680  1.0000
  H   H1042     1.0  0.93542  0.43701  0.82280  1.0000
  H   H1043     1.0  0.96876  0.39080  0.75799  1.0000
  C   C651      1.0  0.94613  0.43876  0.79435  1.0000
  C   C652      1.0  0.84932  0.44387  0.49709  1.0000
  H   H1044     1.0  0.95420  0.42476  0.79585  1.0000
  C   C653      1.0  0.73898  0.56620  0.84051  1.0000
  S   S266      1.0  0.92001  0.65316  0.83266  1.0000
  C   C654      1.0  0.93090  0.65294  0.91451  1.0000
  H   H1045     1.0  0.95793  0.64582  0.77483  1.0000
  H   H1046     1.0  0.94074  0.65381  0.97736  1.0000
  H   H1047     1.0  0.91742  0.63665  0.73847  1.0000
  H   H1048     1.0  0.97804  0.64437  0.69001  1.0000
  H   H1049     1.0  0.91849  0.65267  0.69243  1.0000
  H   H1050     1.0  0.97552  0.47188  0.85179  1.0000
  C   C655      1.0  0.81419  0.96607  0.01801  1.0000
  H   H1051     1.0  0.92850  0.84162  0.16390  1.0000
  C   C656      1.0  0.87672  0.89777  0.45202  1.0000
  H   H1052     1.0  0.91508  0.79233  0.21358  1.0000
  C   C657      1.0  0.96417  0.82573  0.14876  1.0000
  S   S267      1.0  0.95415  0.75782  0.07089  1.0000
  H   H1053     1.0  0.78143  0.96717  0.20009  1.0000
  S   S268      1.0  0.78657  0.82173  0.03185  1.0000
  H   H1054     1.0  0.74994  0.86689  0.45938  1.0000
  H   H1055     1.0  0.76570  0.91461  0.45374  1.0000
  C   C658      1.0  0.83393  0.89347  0.43954  1.0000
  C   C659      1.0  0.84118  0.85576  0.43549  1.0000
  S   S269      1.0  0.82367  0.78143  0.00584  1.0000
  N   N66       1.0  0.74712  0.72979  0.05274  1.0000
  H   H1056     1.0  0.91595  0.84655  0.01699  1.0000
  N   N67       1.0  0.93687  0.80926  0.16005  1.0000
  H   H1057     1.0  0.92218  0.82577  0.11554  1.0000
  H   H1058     1.0  0.84604  0.85865  0.40299  1.0000
  S   S270      1.0  0.96580  0.70731  0.00341  1.0000
  H   H1059     1.0  0.94713  0.79508  0.21307  1.0000
  C   C660      1.0  0.78014  0.91351  0.00198  1.0000
  H   H1060     1.0  0.81998  0.84262  0.43785  1.0000
  H   H1061     1.0  0.88302  0.91666  0.46812  1.0000
  H   H1062     1.0  0.82751  0.98633  0.02367  1.0000
  H   H1063     1.0  0.94291  0.82351  0.22109  1.0000
  S   S271      1.0  0.77577  0.98138  0.00988  1.0000
  C   C661      1.0  0.85746  0.79211  0.01240  1.0000
  C   C662      1.0  0.80187  0.97791  0.18982  1.0000
  H   H1064     1.0  0.96674  0.68546  0.11996  1.0000
  H   H1065     1.0  0.81264  0.88094  0.44262  1.0000
  C   C663      1.0  0.75211  0.70435  0.46326  1.0000
  Fe  Fe134     1.0  0.97744  0.74891  0.02496  1.0000
  C   C664      1.0  0.73561  0.66548  0.41964  1.0000
  H   H1066     1.0  0.75287  0.66868  0.47836  1.0000
  Fe  Fe135     1.0  0.75040  0.80177  0.99414  1.0000
  N   N68       1.0  0.80371  0.97716  0.14552  1.0000
  H   H1067     1.0  0.75366  0.69628  0.05537  1.0000
  H   H1068     1.0  0.74890  0.76747  0.05712  1.0000
  H   H1069     1.0  0.86917  0.83288  0.00593  1.0000
  H   H1070     1.0  0.81313  0.96925  0.20471  1.0000
  H   H1071     1.0  0.76683  0.89328  0.99601  1.0000
  H   H1072     1.0  0.96593  0.82985  0.11594  1.0000
  C   C665      1.0  0.76242  0.71683  0.06613  1.0000
  C   C666      1.0  0.76487  0.88011  0.47967  1.0000
  H   H1073     1.0  0.77410  0.93743  0.14050  1.0000
  H   H1074     1.0  0.76032  0.75806  0.10094  1.0000
  H   H1075     1.0  0.77983  0.76785  0.05644  1.0000
  C   C667      1.0  0.92674  0.78401  0.13865  1.0000
  H   H1076     1.0  0.83809  0.89761  0.40703  1.0000
  S   S272      1.0  0.94461  0.81875  0.03352  1.0000
  H   H1077     1.0  0.76678  0.97632  0.13570  1.0000
  H   H1078     1.0  0.97503  0.68472  0.19308  1.0000
  C   C668      1.0  0.93537  0.80487  0.20390  1.0000
  C   C669      1.0  0.86626  0.77364  0.01974  1.0000
  H   H1079     1.0  0.96349  0.84387  0.48663  1.0000
  H   H1080     1.0  0.97265  0.84478  0.16486  1.0000
  C   C670      1.0  0.80627  0.92099  0.00972  1.0000
  H   H1081     1.0  0.88210  0.90199  0.41985  1.0000
  H   H1082     1.0  0.79538  0.94882  0.09821  1.0000
  S   S273      1.0  0.81892  0.89845  0.00841  1.0000
  H   H1083     1.0  0.85136  0.84531  0.44851  1.0000
  C   C671      1.0  0.82319  0.94733  0.01790  1.0000
  H   H1084     1.0  0.80661  0.94151  0.14422  1.0000
  H   H1085     1.0  0.97638  0.81615  0.15606  1.0000
  C   C672      1.0  0.74491  0.71689  0.43381  1.0000
  Fe  Fe136     1.0  0.96767  0.79600  0.03958  1.0000
  H   H1086     1.0  0.93801  0.77355  0.14654  1.0000
  C   C673      1.0  0.90213  0.82613  0.01777  1.0000
  H   H1087     1.0  0.88815  0.88845  0.46459  1.0000
  C   C674      1.0  0.73279  0.70365  0.39786  1.0000
  H   H1088     1.0  0.85243  0.75322  0.02045  1.0000
  H   H1089     1.0  0.92774  0.78665  0.10544  1.0000
  C   C675      1.0  0.77368  0.90710  0.47649  1.0000
  H   H1090     1.0  0.97810  0.71993  0.12348  1.0000
  H   H1091     1.0  0.84348  0.95334  0.02372  1.0000
  N   N69       1.0  0.84860  0.88076  0.45662  1.0000
  C   C676      1.0  0.79455  0.95003  0.13159  1.0000
  H   H1092     1.0  0.74839  0.73667  0.43901  1.0000
  C   C677      1.0  0.89286  0.78133  0.02566  1.0000
  H   H1093     1.0  0.97200  0.75902  0.25894  1.0000
  C   C678      1.0  0.87559  0.81843  0.01143  1.0000
  C   C679      1.0  0.74734  0.67857  0.45587  1.0000
  H   H1094     1.0  0.89931  0.76687  0.03085  1.0000
  C   C680      1.0  0.74603  0.72948  0.00834  1.0000
  H   H1095     1.0  0.90612  0.77109  0.14617  1.0000
  H   H1096     1.0  0.90055  0.81046  0.15648  1.0000
  H   H1097     1.0  0.83870  0.91220  0.45525  1.0000
  Fe  Fe137     1.0  0.78546  0.98023  0.47075  1.0000
  C   C681      1.0  0.92132  0.82237  0.14865  1.0000
  S   S274      1.0  0.74766  0.96357  0.43682  1.0000
  C   C682      1.0  0.78808  0.95859  0.01009  1.0000
  C   C683      1.0  0.91096  0.80766  0.02467  1.0000
  C   C684      1.0  0.75960  0.75697  0.06754  1.0000
  C   C685      1.0  0.77114  0.93224  0.00208  1.0000
  H   H1098     1.0  0.84389  0.98594  0.14705  1.0000
  H   H1099     1.0  0.78260  0.72694  0.05424  1.0000
  H   H1100     1.0  0.75088  0.92625  0.99603  1.0000
  H   H1101     1.0  0.76378  0.71679  0.09950  1.0000
  H   H1102     1.0  0.73699  0.70931  0.99599  1.0000
  H   H1103     1.0  0.76582  0.74001  0.99525  1.0000
  H   H1104     1.0  0.73443  0.73896  0.99722  1.0000
  H   H1105     1.0  0.72945  0.79024  0.09980  1.0000
  H   H1106     1.0  0.78846  0.98746  0.09378  1.0000
  C   C686      1.0  0.78749  0.98771  0.12717  1.0000
  H   H1107     1.0  0.81871  0.92756  0.55139  1.0000
  S   S275      1.0  0.76794  0.78496  0.94950  1.0000
  S   S276      1.0  0.76606  0.71941  0.51030  1.0000
  C   C687      1.0  0.91147  0.78798  0.51509  1.0000
  S   S277      1.0  0.76037  0.83675  0.95508  1.0000
  Fe  Fe138     1.0  0.80470  0.80634  0.98607  1.0000
  H   H1108     1.0  0.82916  0.93556  0.92998  1.0000
  Fe  Fe139     1.0  0.78125  0.82158  0.91358  1.0000
  S   S278      1.0  0.77790  0.82874  0.84608  1.0000
  S   S279      1.0  0.81917  0.84182  0.94721  1.0000
  Fe  Fe140     1.0  0.78502  0.81510  0.53891  1.0000
  S   S280      1.0  0.76415  0.77806  0.57465  1.0000
  H   H1109     1.0  0.92622  0.67046  0.73962  1.0000
  Fe  Fe141     1.0  0.83575  0.81181  0.53819  1.0000
  S   S281      1.0  0.81861  0.77494  0.57318  1.0000
  H   H1110     1.0  0.80229  0.88908  0.82311  1.0000
  Fe  Fe142     1.0  0.78363  0.76179  0.53257  1.0000
  Fe  Fe143     1.0  0.80059  0.79400  0.61279  1.0000
  S   S282      1.0  0.80663  0.79002  0.68047  1.0000
  S   S283      1.0  0.81997  0.83194  0.57972  1.0000
  C   C688      1.0  0.78587  0.81744  0.80049  1.0000
  C   C689      1.0  0.77999  0.82503  0.76330  1.0000
  C   C690      1.0  0.78600  0.81680  0.72638  1.0000
  C   C691      1.0  0.79813  0.80086  0.72605  1.0000
  C   C692      1.0  0.80411  0.79336  0.76323  1.0000
  C   C693      1.0  0.79801  0.80152  0.80015  1.0000
  H   H1111     1.0  0.96876  0.70245  0.71190  1.0000
  H   H1112     1.0  0.78125  0.82280  0.69822  1.0000
  H   H1113     1.0  0.81342  0.78100  0.76357  1.0000
  N   N70       1.0  0.81440  0.90872  0.88019  1.0000
  H   H1114     1.0  0.91394  0.79233  0.65669  1.0000
  H   H1115     1.0  0.82227  0.87604  0.87783  1.0000
  H   H1116     1.0  0.86741  0.76005  0.66143  1.0000
  C   C694      1.0  0.95163  0.69254  0.95632  1.0000
  C   C695      1.0  0.94108  0.66537  0.95181  1.0000
  H   H1117     1.0  0.77058  0.83730  0.76300  1.0000
  C   C696      1.0  0.93144  0.66759  0.88099  1.0000
  C   C697      1.0  0.94220  0.69478  0.88544  1.0000
  C   C698      1.0  0.95209  0.70718  0.92286  1.0000
  H   H1118     1.0  0.84595  0.94758  0.88352  1.0000
  H   H1119     1.0  0.94276  0.70636  0.85978  1.0000
  C   C699      1.0  0.79482  0.88738  0.53448  1.0000
  H   H1120     1.0  0.96026  0.72809  0.92566  1.0000
  H   H1121     1.0  0.85431  0.86778  0.51428  1.0000
  H   H1122     1.0  0.82181  0.86170  0.50415  1.0000
  H   H1123     1.0  0.85545  0.81589  0.63597  1.0000
  H   H1124     1.0  0.87439  0.81382  0.59486  1.0000
  C   C700      1.0  0.87490  0.81820  0.62754  1.0000
  H   H1125     1.0  0.80278  0.87994  0.55737  1.0000
  H   H1126     1.0  0.83032  0.92041  0.82114  1.0000
  C   C701      1.0  0.79312  0.92433  0.50234  1.0000
  H   H1127     1.0  0.74608  0.89716  0.55114  1.0000
  C   C702      1.0  0.78870  0.89359  0.89860  1.0000
  H   H1128     1.0  0.89574  0.82768  0.70156  1.0000
  C   C703      1.0  0.94393  0.83080  0.49582  1.0000
  S   S284      1.0  0.87747  0.83569  0.51752  1.0000
  H   H1129     1.0  0.88908  0.83904  0.63195  1.0000
  H   H1130     1.0  0.77863  0.87350  0.88590  1.0000
  H   H1131     1.0  0.75057  0.93888  0.52725  1.0000
  H   H1132     1.0  0.83383  0.89586  0.92253  1.0000
  C   C704      1.0  0.96965  0.68612  0.69538  1.0000
  S   S285      1.0  0.76420  0.83612  0.51068  1.0000
  H   H1133     1.0  0.88690  0.79447  0.71364  1.0000
  H   H1134     1.0  0.79045  0.89192  0.93159  1.0000
  C   C705      1.0  0.81131  0.90918  0.83614  1.0000
  C   C706      1.0  0.86285  0.77358  0.64369  1.0000
  C   C707      1.0  0.89997  0.82322  0.51220  1.0000
  H   H1135     1.0  0.87341  0.78393  0.52827  1.0000
  N   N71       1.0  0.88191  0.80100  0.65138  1.0000
  C   C708      1.0  0.90800  0.80512  0.63958  1.0000
  H   H1136     1.0  0.86243  0.76825  0.61134  1.0000
  H   H1137     1.0  0.92291  0.82561  0.64494  1.0000
  H   H1138     1.0  0.90869  0.80085  0.60694  1.0000
  H   H1139     1.0  0.84288  0.76986  0.65203  1.0000
  S   S286      1.0  0.80507  0.95837  0.49958  1.0000
  C   C709      1.0  0.88175  0.80709  0.69461  1.0000
  C   C710      1.0  0.83100  0.89642  0.88947  1.0000
  H   H1140     1.0  0.86218  0.80405  0.70420  1.0000
  H   H1141     1.0  0.80271  0.79545  0.82831  1.0000
  H   H1142     1.0  0.79866  0.91809  0.82803  1.0000
  H   H1143     1.0  0.77589  0.90278  0.89366  1.0000
  C   C711      1.0  0.77555  0.87014  0.50843  1.0000
  H   H1144     1.0  0.85052  0.90715  0.87583  1.0000
  H   H1145     1.0  0.84642  0.89409  0.51637  1.0000
  H   H1146     1.0  0.81436  0.94533  0.89093  1.0000
  C   C712      1.0  0.82651  0.93551  0.89675  1.0000
  C   C713      1.0  0.89303  0.79714  0.51960  1.0000
  C   C714      1.0  0.80371  0.91434  0.53117  1.0000
  H   H1147     1.0  0.73543  0.90258  0.59912  1.0000
  S   S287      1.0  0.80221  0.79771  0.49487  1.0000
  Fe  Fe144     1.0  0.79775  0.85557  0.98977  1.0000
  H   H1148     1.0  0.96109  0.68479  0.66496  1.0000
  H   H1149     1.0  0.73973  0.94507  0.57468  1.0000
  H   H1150     1.0  0.90590  0.76772  0.52049  1.0000
  C   C715      1.0  0.73302  0.93551  0.54476  1.0000
  N   N72       1.0  0.95586  0.66141  0.71729  1.0000
  C   C716      1.0  0.84251  0.87591  0.49975  1.0000
  H   H1151     1.0  0.96655  0.67958  0.77574  1.0000
  C   C717      1.0  0.96788  0.66409  0.75740  1.0000
  C   C718      1.0  0.93697  0.80468  0.50299  1.0000
  S   S288      1.0  0.95921  0.79190  0.49750  1.0000
  H   H1152     1.0  0.93111  0.86022  0.49478  1.0000
  C   C719      1.0  0.92550  0.84000  0.50046  1.0000
  C   C720      1.0  0.92835  0.65515  0.72204  1.0000
