data_image0
_chemical_formula_structural       FeCH2FeS2FeSH4C2NHC2H4CHC3H2CH6CH3SHSNHCHC3HCHSHCHCHCHC3H3C2H2SCH2CH5SHFeH5SCFe2CH2SH9SCH3C3H2NC4SCSCHC2HFeCSHC2HFeH5CHSHFeHCHSH2SCHFeS2FeSFeSFeS2CH2SHSHFeSC2H3C2HSC7H4C3H4NHCHC2FeH4NFeHC2HCHSC3FeCSH3CFeCNH2CH2N2HS2H10CHCHC3FeS2FeSFeHSCH2S2H2SC6FeH2CNCHC2HC6H5CHSC3SHCH2C2HCH2NSHSFeHCHFeCHSHSHC2H3C4HCSH2CHCH4CHC2H3NH3FeS2FeHCHFeHS2HFeSFeSCH2C2H2CSHNSH3FeHSH4CH3CHCH4C3HNH4CSFeS2CFeS2C7H4C6H8CNCH3CH9CH3SCH6CHCH2FeHSCFeS2HCFeHFeS2H4CHCHC5H3C6H5NHC2HCHSHFeHC2NCSH2SH2CH3FeH3CH2SHNFeS2FeS3HFeSH3SCH4C8H2CH5SCH4SHC2H2SCH11CHCH3C3NCH2CH2CFeH2CS2HSHFeSHC6H3C2HCHCSC2H4CNCH2NC2H4SH6SHFeCSH2CH3C2SHNC6H4C4HC2H6C2FeCH2SH3SH4CHCNH5C2HCHCNHCH2CH8CH2CH2FeSHCH3S2HSH3CNCH2FeSHFeHS3HSCHC7H2CH2NHFeH2FeHCH2SHCSH3NH2NHCFeS2FeSFeS3HSH3C2HSHNH4SHC6H2C6H3NC4H12CHSH2FeCH2C2HSH5CSCFe2C3H2CH5CH2SCHNC2FeS2FeS2FeHCFeCS2CNH2C2HCHSH4NC2HC6H4CSH2CHC4FeH5CH5CH6CHC2HSH2NC4H2SHS2HC2NHFe2SH6FeS2FeS2FeS3FeHSCHC7H4FeCSCFeSH2FeCH2CH5CHNH4CSHCHCH2C3H5SFeS2HFeS2C6H4C7H13CNCSHSCH2CHFeH2CSFeSHFeSH2CHCH7CH2CH2CHCH3C2FeNH3SH2C2HC2HCH4CHS2C2H2CH2C2H3SH2C2H5C2HNHCH3CH2CSCH2C3H7NFeHC4H3S2HC2HCH4C2HCHC3H4NHC2H2FeSCH2SC2HCFeCHSHCH3FeSFeS2Fe2S5HS2FeNFeSHFeHC2H3C6H4C2FeH2SH3C3HCNC2SH2CNFeH3CHC4H2FeHCH2CS2H2CH4NH3C2H4SCHCHCHFeS2H2CSHC3HSH2SHC5H4CHC6H4C2NHCH5NHCHCFeH5CHCHFeH5CSHSHCHFeS2H5CS2HSHNHC4HCHNCH2C2HCFeHCHCFeS2FeSFeS3CSCHCH3S2H3SC6H3C6H5SFeH2CH7NCHFeSH2CH2CFe2SC2H8SC2HFeHCFeS2FeSH2SFeHSH4C7H3C7SH2CNHNH2NCHCHCH4SCHCNCHSHCSH3C2H2CFeS2FeHSCFeSHCH3C8SH3SFeH5FeH5CH3CH9SH2CHCH5CH5CH5SCNFeHS2HCSH2CHC2FeC6H3NC2H6C3HCH4SCH3NHC2S3H
_chemical_formula_sum              "Fe112 C560 H896 S224 N56"
_cell_length_a       50.2352
_cell_length_b       36.3926
_cell_length_c       45.7143
_cell_angle_alpha    90.7448
_cell_angle_beta     113.355
_cell_angle_gamma    90.5925

_space_group_name_H-M_alt    "P 1"
_space_group_IT_number       1

loop_
  _space_group_symop_operation_xyz
  'x, y, z'

loop_
  _atom_site_type_symbol
  _atom_site_label
  _atom_site_symmetry_multiplicity
  _atom_site_fract_x
  _atom_site_fract_y
  _atom_site_fract_z
  _atom_site_occupancy
  Fe  Fe1       1.0  0.11516  0.48903  0.35139  1.0000
  C   C1        1.0  0.12162  0.28138  0.33797  1.0000
  H   H1        1.0  0.17849  0.12388  0.29757  1.0000
  H   H2        1.0  0.02139  0.12097  0.24170  1.0000
  Fe  Fe2       1.0  0.04113  0.19799  0.26833  1.0000
  S   S1        1.0  0.09212  0.44560  0.31397  1.0000
  S   S2        1.0  0.07666  0.16052  0.26590  1.0000
  Fe  Fe3       1.0  0.02821  0.25830  0.30666  1.0000
  S   S3        1.0  0.04506  0.25936  0.26803  1.0000
  H   H3        1.0  0.14975  0.32189  0.48853  1.0000
  H   H4        1.0  0.12607  0.12481  0.26181  1.0000
  H   H5        1.0  0.23308  0.08342  0.05469  1.0000
  H   H6        1.0  0.17733  0.28423  0.34521  1.0000
  C   C2        1.0  0.04615  0.09145  0.29994  1.0000
  C   C3        1.0  0.13138  0.26560  0.29164  1.0000
  N   N1        1.0  0.13301  0.29520  0.31482  1.0000
  H   H7        1.0  0.03653  0.33058  0.29035  1.0000
  C   C4        1.0  0.11400  0.16027  0.29254  1.0000
  C   C5        1.0  0.13378  0.13994  0.28425  1.0000
  H   H8        1.0  0.06604  0.08110  0.29762  1.0000
  H   H9        1.0  0.99291  0.45772  0.27838  1.0000
  H   H10       1.0  0.02919  0.44873  0.28222  1.0000
  H   H11       1.0  0.12868  0.39788  0.03141  1.0000
  C   C6        1.0  0.99387  0.09416  0.27654  1.0000
  H   H12       1.0  0.99451  0.12474  0.27646  1.0000
  C   C7        1.0  0.06072  0.38162  0.30122  1.0000
  C   C8        1.0  0.20057  0.44786  0.49463  1.0000
  C   C9        1.0  0.05138  0.34815  0.30901  1.0000
  H   H13       1.0  0.04006  0.08013  0.23974  1.0000
  H   H14       1.0  0.10938  0.19467  0.32876  1.0000
  C   C10       1.0  0.18692  0.49085  0.00154  1.0000
  H   H15       1.0  0.05332  0.38924  0.27647  1.0000
  H   H16       1.0  0.10893  0.25413  0.27957  1.0000
  H   H17       1.0  0.09867  0.27173  0.32594  1.0000
  H   H18       1.0  0.20162  0.44808  0.47145  1.0000
  H   H19       1.0  0.12350  0.33794  0.28013  1.0000
  H   H20       1.0  0.11641  0.34948  0.31458  1.0000
  C   C11       1.0  0.16358  0.13930  0.30452  1.0000
  H   H21       1.0  0.21446  0.46328  0.04410  1.0000
  H   H22       1.0  0.09239  0.31855  0.28464  1.0000
  H   H23       1.0  0.13828  0.27562  0.27280  1.0000
  S   S4        1.0  0.16282  0.49236  0.38300  1.0000
  H   H24       1.0  0.00100  0.08069  0.22185  1.0000
  S   S5        1.0  0.02624  0.19668  0.30859  1.0000
  N   N2        1.0  0.01954  0.07847  0.27310  1.0000
  H   H25       1.0  0.11692  0.39059  0.48893  1.0000
  C   C12       1.0  0.20318  0.48839  0.03461  1.0000
  H   H26       1.0  0.14568  0.24237  0.30342  1.0000
  C   C13       1.0  0.02670  0.00384  0.00503  1.0000
  C   C14       1.0  0.06135  0.33744  0.34076  1.0000
  C   C15       1.0  0.16355  0.30729  0.33198  1.0000
  H   H27       1.0  0.11241  0.32307  0.48335  1.0000
  C   C16       1.0  0.11559  0.32663  0.29778  1.0000
  H   H28       1.0  0.99790  0.02711  0.25323  1.0000
  S   S6        1.0  0.05168  0.29397  0.35028  1.0000
  H   H29       1.0  0.16555  0.32974  0.34957  1.0000
  C   C17       1.0  0.12435  0.17948  0.32173  1.0000
  H   H30       1.0  0.05702  0.49675  0.26742  1.0000
  C   C18       1.0  0.14192  0.38533  0.01944  1.0000
  H   H31       1.0  0.17287  0.31783  0.31524  1.0000
  C   C19       1.0  0.07973  0.40498  0.32517  1.0000
  H   H32       1.0  0.12202  0.30322  0.35544  1.0000
  C   C20       1.0  0.02047  0.09047  0.24273  1.0000
  C   C21       1.0  0.17404  0.15900  0.33350  1.0000
  C   C22       1.0  0.15414  0.17893  0.34196  1.0000
  H   H33       1.0  0.03679  0.02519  0.27063  1.0000
  H   H34       1.0  0.13441  0.25789  0.35154  1.0000
  H   H35       1.0  0.16189  0.19394  0.36444  1.0000
  C   C23       1.0  0.08919  0.39485  0.35708  1.0000
  C   C24       1.0  0.08008  0.36099  0.36484  1.0000
  H   H36       1.0  0.10387  0.41280  0.37567  1.0000
  H   H37       1.0  0.08775  0.35290  0.38947  1.0000
  S   S7        1.0  0.21158  0.16091  0.35963  1.0000
  C   C25       1.0  0.00926  0.46404  0.26829  1.0000
  H   H38       1.0  0.15290  0.36101  0.03333  1.0000
  H   H39       1.0  0.15912  0.40585  0.02092  1.0000
  C   C26       1.0  0.01772  0.03789  0.27318  1.0000
  H   H40       1.0  0.04651  0.08243  0.32325  1.0000
  H   H41       1.0  0.04798  0.12197  0.30087  1.0000
  H   H42       1.0  0.00055  0.45273  0.24346  1.0000
  H   H43       1.0  0.01697  0.02784  0.29577  1.0000
  H   H44       1.0  0.23732  0.03442  0.05696  1.0000
  S   S8        1.0  0.99510  0.19729  0.23074  1.0000
  H   H45       1.0  0.00270  0.03428  0.49196  1.0000
  Fe  Fe4       1.0  0.99795  0.25908  0.23523  1.0000
  H   H46       1.0  0.23712  0.06022  0.09065  1.0000
  H   H47       1.0  0.99244  0.08600  0.29927  1.0000
  H   H48       1.0  0.08672  0.35937  0.99548  1.0000
  H   H49       1.0  0.11077  0.32237  0.99711  1.0000
  H   H50       1.0  0.03382  0.18723  0.77119  1.0000
  S   S9        1.0  0.02524  0.14191  0.60616  1.0000
  C   C27       1.0  0.14323  0.24749  0.62783  1.0000
  Fe  Fe5       1.0  0.99737  0.10152  0.87294  1.0000
  Fe  Fe6       1.0  0.01833  0.08011  0.60536  1.0000
  C   C28       1.0  0.19842  0.44711  0.55513  1.0000
  H   H51       1.0  0.10374  0.08009  0.54210  1.0000
  H   H52       1.0  0.07417  0.03581  0.55770  1.0000
  S   S10       1.0  0.23077  0.30930  0.69005  1.0000
  H   H53       1.0  0.07687  0.03527  0.59783  1.0000
  H   H54       1.0  0.14050  0.06241  0.62904  1.0000
  H   H55       1.0  0.16006  0.37811  0.97214  1.0000
  H   H56       1.0  0.01482  0.44192  0.72603  1.0000
  H   H57       1.0  0.06367  0.11890  0.83438  1.0000
  H   H58       1.0  0.13241  0.11062  0.62727  1.0000
  H   H59       1.0  0.08725  0.34005  0.95938  1.0000
  H   H60       1.0  0.03430  0.49794  0.76059  1.0000
  H   H61       1.0  0.12662  0.42899  0.96861  1.0000
  S   S11       1.0  0.00303  0.16213  0.88386  1.0000
  C   C29       1.0  0.11367  0.23752  0.61409  1.0000
  H   H62       1.0  0.07996  0.20136  0.61608  1.0000
  H   H63       1.0  0.09909  0.25218  0.59368  1.0000
  H   H64       1.0  0.11114  0.07860  0.63848  1.0000
  C   C30       1.0  0.17206  0.34915  0.54852  1.0000
  C   C31       1.0  0.99275  0.08004  0.73921  1.0000
  C   C32       1.0  0.12190  0.35145  0.54124  1.0000
  H   H65       1.0  0.17947  0.34111  0.70445  1.0000
  H   H66       1.0  0.17829  0.37264  0.56586  1.0000
  N   N3        1.0  0.10247  0.07768  0.58844  1.0000
  C   C33       1.0  0.11842  0.08340  0.56774  1.0000
  C   C34       1.0  0.07917  0.10486  0.58079  1.0000
  C   C35       1.0  0.12257  0.08242  0.62222  1.0000
  C   C36       1.0  0.08955  0.04020  0.58297  1.0000
  S   S12       1.0  0.05688  0.07244  0.65144  1.0000
  C   C37       1.0  0.18093  0.47116  0.53150  1.0000
  S   S13       1.0  0.01280  0.05240  0.55712  1.0000
  C   C38       1.0  0.99942  0.43797  0.73778  1.0000
  H   H67       1.0  0.10637  0.01874  0.58870  1.0000
  C   C39       1.0  0.21844  0.42422  0.51846  1.0000
  C   C40       1.0  0.12152  0.18962  0.65299  1.0000
  H   H68       1.0  0.09616  0.42165  0.97913  1.0000
  Fe  Fe7       1.0  0.20024  0.31057  0.63841  1.0000
  C   C41       1.0  0.16192  0.22840  0.65415  1.0000
  S   S14       1.0  0.15596  0.28401  0.61156  1.0000
  H   H69       1.0  0.01343  0.15124  0.77963  1.0000
  C   C42       1.0  0.13896  0.38774  0.50807  1.0000
  C   C43       1.0  0.21746  0.42367  0.54883  1.0000
  H   H70       1.0  0.06344  0.10225  0.55550  1.0000
  Fe  Fe8       1.0  0.23503  0.37167  0.62212  1.0000
  H   H71       1.0  0.06224  0.14719  0.86607  1.0000
  H   H72       1.0  0.09918  0.34066  0.66752  1.0000
  H   H73       1.0  0.18790  0.34894  0.53704  1.0000
  H   H74       1.0  0.18477  0.23563  0.66475  1.0000
  H   H75       1.0  0.19763  0.44741  0.57845  1.0000
  C   C44       1.0  0.10278  0.20875  0.62670  1.0000
  H   H76       1.0  0.13619  0.06333  0.57285  1.0000
  S   S15       1.0  0.19700  0.37184  0.63607  1.0000
  H   H77       1.0  0.05535  0.43801  0.77962  1.0000
  Fe  Fe9       1.0  0.06235  0.13387  0.65322  1.0000
  H   H78       1.0  0.09232  0.17108  0.82431  1.0000
  C   C45       1.0  0.11007  0.40825  0.96845  1.0000
  H   H79       1.0  0.12826  0.11154  0.57126  1.0000
  S   S16       1.0  0.10923  0.15297  0.66948  1.0000
  H   H80       1.0  0.05354  0.03817  0.78926  1.0000
  H   H81       1.0  0.09899  0.35463  0.52422  1.0000
  S   S17       1.0  0.03476  0.04910  0.72179  1.0000
  C   C46       1.0  0.03869  0.43377  0.78969  1.0000
  H   H82       1.0  0.15279  0.33311  0.98324  1.0000
  Fe  Fe10      1.0  0.16131  0.40481  0.86180  1.0000
  S   S18       1.0  0.11291  0.40727  0.83650  1.0000
  S   S19       1.0  0.18721  0.37132  0.83970  1.0000
  Fe  Fe11      1.0  0.16011  0.44349  0.92247  1.0000
  S   S20       1.0  0.11164  0.44917  0.89982  1.0000
  Fe  Fe12      1.0  0.11074  0.39067  0.88263  1.0000
  S   S21       1.0  0.07584  0.35285  0.88660  1.0000
  Fe  Fe13      1.0  0.11841  0.46527  0.85600  1.0000
  S   S22       1.0  0.15870  0.38405  0.90693  1.0000
  S   S23       1.0  0.16733  0.46380  0.87942  1.0000
  C   C47       1.0  0.01926  0.06202  0.74916  1.0000
  H   H83       1.0  0.12222  0.31803  0.65139  1.0000
  H   H84       1.0  0.17493  0.32348  0.56240  1.0000
  S   S24       1.0  0.04211  0.08812  0.90807  1.0000
  H   H85       1.0  0.00728  0.18870  0.82114  1.0000
  S   S25       1.0  0.03574  0.14316  0.68224  1.0000
  H   H86       1.0  0.22883  0.34520  0.76085  1.0000
  Fe  Fe14      1.0  0.04640  0.14870  0.92097  1.0000
  S   S26       1.0  0.08573  0.18360  0.92432  1.0000
  C   C48       1.0  0.02951  0.20040  0.82750  1.0000
  C   C49       1.0  0.01773  0.49255  0.77057  1.0000
  H   H87       1.0  0.12334  0.32497  0.55372  1.0000
  H   H88       1.0  0.04875  0.14207  0.78074  1.0000
  H   H89       1.0  0.12531  0.26464  0.68552  1.0000
  C   C50       1.0  0.13847  0.34499  0.72820  1.0000
  C   C51       1.0  0.14242  0.35866  0.97113  1.0000
  H   H90       1.0  0.16570  0.18471  0.68692  1.0000
  S   S27       1.0  0.03007  0.14069  0.95968  1.0000
  C   C52       1.0  0.07750  0.19053  0.82908  1.0000
  C   C53       1.0  0.07932  0.30581  0.89716  1.0000
  C   C54       1.0  0.05568  0.28744  0.89990  1.0000
  C   C55       1.0  0.05746  0.25025  0.90859  1.0000
  C   C56       1.0  0.08296  0.23090  0.91457  1.0000
  C   C57       1.0  0.10671  0.24934  0.91208  1.0000
  C   C58       1.0  0.10492  0.28658  0.90335  1.0000
  H   H91       1.0  0.03581  0.30206  0.89531  1.0000
  H   H92       1.0  0.03908  0.23656  0.91067  1.0000
  H   H93       1.0  0.12655  0.23464  0.91670  1.0000
  H   H94       1.0  0.12328  0.30029  0.90125  1.0000
  C   C59       1.0  0.19419  0.42382  0.76429  1.0000
  C   C60       1.0  0.18719  0.41600  0.79060  1.0000
  C   C61       1.0  0.19531  0.38266  0.80636  1.0000
  H   H95       1.0  0.18806  0.44986  0.75251  1.0000
  H   H96       1.0  0.17582  0.43595  0.79892  1.0000
  H   H97       1.0  0.13746  0.29468  0.51346  1.0000
  H   H98       1.0  0.14824  0.37233  0.72724  1.0000
  N   N4        1.0  0.04845  0.17372  0.82080  1.0000
  H   H99       1.0  0.08793  0.13356  0.58537  1.0000
  C   C62       1.0  0.05112  0.14073  0.84020  1.0000
  H   H100      1.0  0.01060  0.30103  0.67721  1.0000
  C   C63       1.0  0.20899  0.39828  0.75312  1.0000
  C   C64       1.0  0.18182  0.47172  0.50110  1.0000
  Fe  Fe15      1.0  0.02723  0.08226  0.67705  1.0000
  H   H101      1.0  0.16999  0.29594  0.68719  1.0000
  H   H102      1.0  0.10275  0.28707  0.70219  1.0000
  H   H103      1.0  0.11605  0.34965  0.72646  1.0000
  H   H104      1.0  0.02950  0.12903  0.83647  1.0000
  N   N5        1.0  0.12388  0.37504  0.98593  1.0000
  Fe  Fe16      1.0  0.22914  0.37098  0.68714  1.0000
  H   H105      1.0  0.13783  0.27087  0.72789  1.0000
  C   C65       1.0  0.02057  0.06037  0.80332  1.0000
  C   C66       1.0  0.15108  0.19951  0.66661  1.0000
  H   H106      1.0  0.13174  0.36324  0.66892  1.0000
  C   C67       1.0  0.12216  0.33620  0.67120  1.0000
  H   H107      1.0  0.06657  0.10057  0.59563  1.0000
  S   S28       1.0  0.21666  0.40928  0.71942  1.0000
  C   C68       1.0  0.21022  0.35718  0.79526  1.0000
  C   C69       1.0  0.21699  0.36486  0.76878  1.0000
  C   C70       1.0  0.12556  0.28409  0.70465  1.0000
  Fe  Fe17      1.0  0.99791  0.14615  0.63491  1.0000
  C   C71       1.0  0.03308  0.05221  0.78132  1.0000
  S   S29       1.0  0.18579  0.45256  0.97633  1.0000
  H   H108      1.0  0.18234  0.30254  0.72959  1.0000
  H   H109      1.0  0.12710  0.37381  0.55964  1.0000
  H   H110      1.0  0.12958  0.35131  0.94564  1.0000
  C   C72       1.0  0.01457  0.00955  0.53794  1.0000
  Fe  Fe18      1.0  0.02168  0.08081  0.94418  1.0000
  C   C73       1.0  0.16896  0.31458  0.70615  1.0000
  N   N6        1.0  0.13875  0.31996  0.70257  1.0000
  H   H111      1.0  0.03819  0.20809  0.85325  1.0000
  H   H112      1.0  0.15118  0.33384  0.75226  1.0000
  C   C74       1.0  0.03563  0.16317  0.78660  1.0000
  H   H113      1.0  0.21682  0.33144  0.80744  1.0000
  H   H114      1.0  0.03501  0.40366  0.79049  1.0000
  N   N7        1.0  0.14198  0.35251  0.52479  1.0000
  N   N8        1.0  0.01153  0.45279  0.77084  1.0000
  H   H115      1.0  0.03131  0.05248  0.82795  1.0000
  S   S30       1.0  0.03844  0.03434  0.98153  1.0000
  S   S31       1.0  0.23619  0.31009  0.62121  1.0000
  H   H116      1.0  0.00930  0.23646  0.65794  1.0000
  H   H117      1.0  0.02749  0.22610  0.81391  1.0000
  H   H118      1.0  0.23318  0.40638  0.51332  1.0000
  H   H119      1.0  0.08768  0.19853  0.85485  1.0000
  H   H120      1.0  0.07637  0.21578  0.81519  1.0000
  H   H121      1.0  0.09609  0.40145  0.94311  1.0000
  H   H122      1.0  0.99872  0.45791  0.81032  1.0000
  H   H123      1.0  0.04838  0.44452  0.81472  1.0000
  H   H124      1.0  0.14268  0.41162  0.52476  1.0000
  H   H125      1.0  0.16669  0.48968  0.53687  1.0000
  C   C75       1.0  0.10118  0.34804  0.98453  1.0000
  H   H126      1.0  0.15493  0.39046  0.49686  1.0000
  C   C76       1.0  0.00865  0.00903  0.50507  1.0000
  H   H127      1.0  0.99431  0.40800  0.73693  1.0000
  C   C77       1.0  0.99375  0.07778  0.79321  1.0000
  C   C78       1.0  0.13507  0.32166  0.50149  1.0000
  C   C79       1.0  0.99029  0.44700  0.78538  1.0000
  Fe  Fe19      1.0  0.22107  0.66772  0.16846  1.0000
  S   S32       1.0  0.19256  0.61756  0.15206  1.0000
  S   S33       1.0  0.20473  0.72207  0.17887  1.0000
  Fe  Fe20      1.0  0.03931  0.84293  0.17004  1.0000
  S   S34       1.0  0.05976  0.84500  0.22447  1.0000
  Fe  Fe21      1.0  0.04940  0.80303  0.11619  1.0000
  H   H128      1.0  0.11269  0.59701  0.17555  1.0000
  S   S35       1.0  0.07500  0.76703  0.09631  1.0000
  C   C80       1.0  0.20504  0.51813  0.05554  1.0000
  H   H129      1.0  0.17631  0.67892  0.22724  1.0000
  H   H130      1.0  0.09620  0.85095  0.02695  1.0000
  S   S36       1.0  0.05967  0.86082  0.13597  1.0000
  S   S37       1.0  0.03345  0.78407  0.15276  1.0000
  H   H131      1.0  0.04821  0.50338  0.31676  1.0000
  H   H132      1.0  0.16949  0.52549  0.29960  1.0000
  S   S38       1.0  0.21081  0.55280  0.22090  1.0000
  C   C81       1.0  0.03624  0.51107  0.25449  1.0000
  C   C82       1.0  0.02029  0.87849  0.29617  1.0000
  C   C83       1.0  0.04120  0.85115  0.30341  1.0000
  C   C84       1.0  0.05276  0.84093  0.28102  1.0000
  C   C85       1.0  0.04300  0.85709  0.25085  1.0000
  C   C86       1.0  0.01025  0.97620  0.48883  1.0000
  Fe  Fe22      1.0  0.01403  0.87345  0.10152  1.0000
  H   H133      1.0  0.13544  0.61689  0.15780  1.0000
  H   H134      1.0  0.06967  0.82072  0.28729  1.0000
  C   C87       1.0  0.19077  0.55092  0.04359  1.0000
  N   N9        1.0  0.01526  0.50396  0.26913  1.0000
  C   C88       1.0  0.17446  0.55330  0.01055  1.0000
  H   H135      1.0  0.05615  0.94406  0.06699  1.0000
  C   C89       1.0  0.03960  0.95852  0.04810  1.0000
  C   C90       1.0  0.21723  0.59363  0.27557  1.0000
  H   H136      1.0  0.01380  0.78547  0.21817  1.0000
  C   C91       1.0  0.11047  0.75352  0.12055  1.0000
  C   C92       1.0  0.12334  0.72541  0.10960  1.0000
  C   C93       1.0  0.15203  0.71503  0.12762  1.0000
  C   C94       1.0  0.16824  0.73326  0.15643  1.0000
  C   C95       1.0  0.15526  0.76101  0.16764  1.0000
  C   C96       1.0  0.12636  0.77093  0.14989  1.0000
  H   H137      1.0  0.11117  0.71186  0.08690  1.0000
  H   H138      1.0  0.16186  0.69367  0.11874  1.0000
  H   H139      1.0  0.16770  0.77517  0.18994  1.0000
  H   H140      1.0  0.11664  0.79267  0.15849  1.0000
  H   H141      1.0  0.17737  0.65916  0.36798  1.0000
  C   C97       1.0  0.13857  0.62970  0.23288  1.0000
  H   H142      1.0  0.15074  0.58696  0.19105  1.0000
  S   S39       1.0  0.11369  0.54524  0.33145  1.0000
  C   C98       1.0  0.14542  0.67781  0.40082  1.0000
  C   C99       1.0  0.18266  0.54469  0.29299  1.0000
  C   C100      1.0  0.02759  0.51747  0.30259  1.0000
  S   S40       1.0  0.00690  0.89459  0.32452  1.0000
  H   H143      1.0  0.03254  0.54753  0.30426  1.0000
  C   C101      1.0  0.17039  0.65521  0.21013  1.0000
  H   H144      1.0  0.16335  0.57850  0.00098  1.0000
  H   H145      1.0  0.14375  0.65295  0.25039  1.0000
  C   C102      1.0  0.11972  0.67035  0.18799  1.0000
  C   C103      1.0  0.01039  0.89450  0.26591  1.0000
  H   H146      1.0  0.15401  0.60735  0.24441  1.0000
  C   C104      1.0  0.02136  0.88351  0.24317  1.0000
  H   H147      1.0  0.18689  0.63361  0.22021  1.0000
  H   H148      1.0  0.12409  0.69521  0.20375  1.0000
  N   N10       1.0  0.14077  0.64109  0.20299  1.0000
  S   S41       1.0  0.00478  0.81597  0.08055  1.0000
  H   H149      1.0  0.17235  0.66494  0.18820  1.0000
  S   S42       1.0  0.19399  0.59050  0.06827  1.0000
  Fe  Fe23      1.0  0.00979  0.86331  0.36869  1.0000
  H   H150      1.0  0.09704  0.66088  0.18225  1.0000
  C   C105      1.0  0.01038  0.95312  0.04295  1.0000
  H   H151      1.0  0.99762  0.79401  0.26207  1.0000
  Fe  Fe24      1.0  0.21721  0.60340  0.12188  1.0000
  C   C106      1.0  0.21232  0.59990  0.30358  1.0000
  H   H152      1.0  0.07023  0.98703  0.03349  1.0000
  S   S43       1.0  0.99836  0.80315  0.36435  1.0000
  H   H153      1.0  0.11642  0.61915  0.22848  1.0000
  S   S44       1.0  0.01963  0.90030  0.48601  1.0000
  H   H154      1.0  0.17946  0.72466  0.38606  1.0000
  C   C107      1.0  0.04451  0.67327  0.36272  1.0000
  C   C108      1.0  0.20509  0.56259  0.25624  1.0000
  H   H155      1.0  0.03464  0.79963  0.03387  1.0000
  H   H156      1.0  0.04356  0.87639  0.06211  1.0000
  H   H157      1.0  0.12088  0.67939  0.16529  1.0000
  C   C109      1.0  0.18775  0.53828  0.26513  1.0000
  C   C110      1.0  0.13458  0.60908  0.18089  1.0000
  C   C111      1.0  0.04469  0.70669  0.37872  1.0000
  C   C112      1.0  0.06185  0.86341  0.05820  1.0000
  H   H158      1.0  0.01387  0.89645  0.22019  1.0000
  C   C113      1.0  0.08408  0.65140  0.40931  1.0000
  S   S45       1.0  0.00359  0.80953  0.43855  1.0000
  H   H159      1.0  0.99430  0.91576  0.26013  1.0000
  H   H160      1.0  0.04138  0.54093  0.25492  1.0000
  C   C114      1.0  0.19517  0.57538  0.31259  1.0000
  H   H161      1.0  0.09989  0.68928  0.44951  1.0000
  C   C115      1.0  0.08441  0.68492  0.42521  1.0000
  H   H162      1.0  0.08491  0.80794  0.03764  1.0000
  H   H163      1.0  0.15321  0.73628  0.34734  1.0000
  H   H164      1.0  0.00931  0.83643  0.01970  1.0000
  H   H165      1.0  0.99775  0.71614  0.13934  1.0000
  C   C116      1.0  0.15580  0.72619  0.37118  1.0000
  H   H166      1.0  0.04917  0.83882  0.32667  1.0000
  C   C117      1.0  0.04758  0.98329  0.02915  1.0000
  C   C118      1.0  0.07739  0.83169  0.02130  1.0000
  H   H167      1.0  0.09855  0.66625  0.34520  1.0000
  H   H168      1.0  0.16877  0.67433  0.41623  1.0000
  H   H169      1.0  0.15116  0.67099  0.32933  1.0000
  N   N11       1.0  0.14123  0.69010  0.36864  1.0000
  H   H170      1.0  0.02954  0.72794  0.36675  1.0000
  H   H171      1.0  0.09911  0.63007  0.42142  1.0000
  H   H172      1.0  0.14661  0.74728  0.38230  1.0000
  Fe  Fe25      1.0  0.10239  0.56522  0.37162  1.0000
  S   S46       1.0  0.14890  0.57418  0.40478  1.0000
  S   S47       1.0  0.06522  0.60562  0.35573  1.0000
  Fe  Fe26      1.0  0.16009  0.55056  0.36514  1.0000
  H   H173      1.0  0.09926  0.71195  0.36063  1.0000
  C   C119      1.0  0.06488  0.71281  0.40998  1.0000
  H   H174      1.0  0.10585  0.70447  0.32508  1.0000
  Fe  Fe27      1.0  0.14741  0.51534  0.41979  1.0000
  H   H175      1.0  0.13630  0.69769  0.41300  1.0000
  S   S48       1.0  0.19013  0.58410  0.34849  1.0000
  S   S49       1.0  0.04699  0.85988  0.41699  1.0000
  H   H176      1.0  0.13438  0.65089  0.39960  1.0000
  Fe  Fe28      1.0  0.01410  0.87025  0.43866  1.0000
  S   S50       1.0  0.99858  0.92095  0.06528  1.0000
  Fe  Fe29      1.0  0.03355  0.79993  0.41350  1.0000
  S   S51       1.0  0.06755  0.75534  0.43031  1.0000
  C   C120      1.0  0.10988  0.69344  0.34900  1.0000
  H   H177      1.0  0.14323  0.63524  0.35147  1.0000
  H   H178      1.0  0.02914  0.66901  0.33838  1.0000
  C   C121      1.0  0.15378  0.66284  0.35366  1.0000
  C   C122      1.0  0.06445  0.64569  0.37779  1.0000
  H   H179      1.0  0.01239  0.51251  0.31445  1.0000
  H   H180      1.0  0.07974  0.88420  0.06459  1.0000
  C   C123      1.0  0.02839  0.82336  0.01743  1.0000
  S   S52       1.0  0.09969  0.50822  0.38856  1.0000
  H   H181      1.0  0.22228  0.62360  0.31862  1.0000
  N   N12       1.0  0.05273  0.84997  0.02497  1.0000
  S   S53       1.0  0.15903  0.50275  0.47251  1.0000
  H   H182      1.0  0.21751  0.51564  0.08086  1.0000
  H   H183      1.0  0.06968  0.84063  0.07536  1.0000
  H   H184      1.0  0.23092  0.61237  0.26932  1.0000
  Fe  Fe30      1.0  0.22812  0.59033  0.19239  1.0000
  H   H185      1.0  0.00559  0.97657  0.46362  1.0000
  S   S54       1.0  0.99443  0.85969  0.13743  1.0000
  H   H186      1.0  0.17835  0.51409  0.25049  1.0000
  H   H187      1.0  0.99992  0.65217  0.15804  1.0000
  H   H188      1.0  0.02438  0.89526  0.00519  1.0000
  H   H189      1.0  0.23887  0.57976  0.03693  1.0000
  C   C124      1.0  0.04327  0.88133  0.00316  1.0000
  H   H190      1.0  0.06082  0.90252  0.00861  1.0000
  H   H191      1.0  0.99146  0.55336  0.25112  1.0000
  H   H192      1.0  0.99166  0.82284  0.19755  1.0000
  C   C125      1.0  0.99158  0.79269  0.20127  1.0000
  H   H193      1.0  0.02762  0.50120  0.22923  1.0000
  C   C126      1.0  0.99753  0.99886  0.00021  1.0000
  H   H194      1.0  0.07135  0.82098  0.99654  1.0000
  H   H195      1.0  0.99149  0.73257  0.23455  1.0000
  H   H196      1.0  0.02118  0.81220  0.99267  1.0000
  H   H197      1.0  0.02085  0.96087  0.72858  1.0000
  C   C127      1.0  0.02385  0.94366  0.53813  1.0000
  C   C128      1.0  0.02228  0.97650  0.55437  1.0000
  C   C129      1.0  0.17243  0.52347  0.98966  1.0000
  H   H198      1.0  0.02972  0.91838  0.55120  1.0000
  N   N13       1.0  0.04665  0.91651  0.75593  1.0000
  H   H199      1.0  0.06431  0.91976  0.80716  1.0000
  H   H200      1.0  0.01363  0.90195  0.77279  1.0000
  H   H201      1.0  0.09023  0.92771  0.78974  1.0000
  H   H202      1.0  0.11735  0.71752  0.85094  1.0000
  C   C130      1.0  0.23494  0.92271  0.57736  1.0000
  S   S55       1.0  0.20334  0.80743  0.86303  1.0000
  Fe  Fe31      1.0  0.03630  0.76342  0.77010  1.0000
  S   S56       1.0  0.02390  0.75940  0.81224  1.0000
  S   S57       1.0  0.06959  0.80467  0.76642  1.0000
  C   C131      1.0  0.16456  0.70171  0.83902  1.0000
  Fe  Fe32      1.0  0.02942  0.69857  0.80733  1.0000
  S   S58       1.0  0.05352  0.66278  0.84953  1.0000
  S   S59       1.0  0.04385  0.70300  0.76695  1.0000
  C   C132      1.0  0.07062  0.91132  0.78733  1.0000
  C   C133      1.0  0.06395  0.61903  0.84105  1.0000
  C   C134      1.0  0.05758  0.60757  0.80965  1.0000
  C   C135      1.0  0.06673  0.57310  0.80338  1.0000
  C   C136      1.0  0.08227  0.54973  0.82839  1.0000
  C   C137      1.0  0.08875  0.56115  0.85984  1.0000
  C   C138      1.0  0.07959  0.59574  0.86613  1.0000
  H   H203      1.0  0.04541  0.62512  0.79013  1.0000
  H   H204      1.0  0.06160  0.56447  0.77898  1.0000
  H   H205      1.0  0.10066  0.54331  0.87928  1.0000
  H   H206      1.0  0.08460  0.60446  0.89049  1.0000
  C   C139      1.0  0.16643  0.80733  0.83528  1.0000
  C   C140      1.0  0.15784  0.81923  0.80389  1.0000
  C   C141      1.0  0.12818  0.81823  0.78301  1.0000
  C   C142      1.0  0.10685  0.80475  0.79305  1.0000
  C   C143      1.0  0.11545  0.79312  0.82445  1.0000
  C   C144      1.0  0.14498  0.79448  0.84537  1.0000
  H   H207      1.0  0.17402  0.82927  0.79575  1.0000
  H   H208      1.0  0.12181  0.82761  0.75886  1.0000
  H   H209      1.0  0.09926  0.78365  0.83281  1.0000
  H   H210      1.0  0.15125  0.78575  0.86971  1.0000
  H   H211      1.0  0.12781  0.67065  0.78366  1.0000
  H   H212      1.0  0.15175  0.63630  0.80778  1.0000
  H   H213      1.0  0.17003  0.71965  0.86064  1.0000
  H   H214      1.0  0.02693  0.97614  0.57957  1.0000
  C   C145      1.0  0.11380  0.69995  0.82957  1.0000
  N   N14       1.0  0.13931  0.67735  0.83404  1.0000
  C   C146      1.0  0.14560  0.65391  0.86210  1.0000
  H   H215      1.0  0.15984  0.52587  0.96433  1.0000
  H   H216      1.0  0.16472  0.63635  0.86625  1.0000
  H   H217      1.0  0.22735  0.89903  0.62935  1.0000
  C   C147      1.0  0.13299  0.65384  0.80536  1.0000
  H   H218      1.0  0.12687  0.63528  0.85896  1.0000
  H   H219      1.0  0.10847  0.71821  0.80872  1.0000
  H   H220      1.0  0.05738  0.97367  0.75357  1.0000
  H   H221      1.0  0.03659  0.87238  0.97785  1.0000
  H   H222      1.0  0.09435  0.68242  0.82530  1.0000
  H   H223      1.0  0.11400  0.63515  0.80105  1.0000
  H   H224      1.0  0.15006  0.67072  0.88411  1.0000
  H   H225      1.0  0.16026  0.72034  0.81853  1.0000
  H   H226      1.0  0.18421  0.68571  0.84206  1.0000
  C   C148      1.0  0.03875  0.95577  0.75211  1.0000
  H   H227      1.0  0.07707  0.88193  0.79092  1.0000
  H   H228      1.0  0.07520  0.92111  0.73135  1.0000
  H   H229      1.0  0.22196  0.90107  0.55998  1.0000
  S   S60       1.0  0.09264  0.50641  0.81898  1.0000
  C   C149      1.0  0.05604  0.90477  0.73047  1.0000
  H   H230      1.0  0.03142  0.96565  0.77080  1.0000
  H   H231      1.0  0.02653  0.86422  0.75658  1.0000
  H   H232      1.0  0.00274  0.89715  0.73042  1.0000
  H   H233      1.0  0.21964  0.94013  0.58331  1.0000
  H   H234      1.0  0.06219  0.87525  0.73274  1.0000
  H   H235      1.0  0.99792  0.50770  0.75598  1.0000
  C   C150      1.0  0.02125  0.89401  0.75383  1.0000
  H   H236      1.0  0.03846  0.90813  0.70643  1.0000
  C   C151      1.0  0.01788  0.94312  0.50523  1.0000
  H   H237      1.0  0.02628  0.50487  0.79506  1.0000
  H   H238      1.0  0.22991  0.86005  0.60601  1.0000
  Fe  Fe33      1.0  0.99644  0.69839  0.73563  1.0000
  H   H239      1.0  0.43382  0.33306  0.15043  1.0000
  S   S61       1.0  0.31153  0.06030  0.30779  1.0000
  C   C152      1.0  0.31385  0.00980  0.47422  1.0000
  Fe  Fe34      1.0  0.36478  0.05402  0.16743  1.0000
  S   S62       1.0  0.41239  0.04962  0.19628  1.0000
  S   S63       1.0  0.33330  0.08749  0.18133  1.0000
  H   H240      1.0  0.34988  0.14048  0.30751  1.0000
  C   C153      1.0  0.29056  0.03505  0.10376  1.0000
  Fe  Fe35      1.0  0.36819  0.01085  0.11080  1.0000
  H   H241      1.0  0.40747  0.20498  0.35994  1.0000
  Fe  Fe36      1.0  0.41873  0.06259  0.15150  1.0000
  S   S64       1.0  0.45807  0.10004  0.16049  1.0000
  S   S65       1.0  0.37120  0.07148  0.12352  1.0000
  H   H242      1.0  0.43170  0.23096  0.15544  1.0000
  H   H243      1.0  0.27952  0.04490  0.47386  1.0000
  H   H244      1.0  0.34342  0.02095  0.27832  1.0000
  H   H245      1.0  0.41632  0.21279  0.45154  1.0000
  C   C154      1.0  0.40650  0.28546  0.17499  1.0000
  H   H246      1.0  0.30908  0.10522  0.11046  1.0000
  C   C155      1.0  0.45785  0.14293  0.14224  1.0000
  H   H247      1.0  0.27956  0.03977  0.04167  1.0000
  C   C156      1.0  0.48413  0.19900  0.13926  1.0000
  C   C157      1.0  0.45964  0.21125  0.11378  1.0000
  C   C158      1.0  0.43428  0.18920  0.10269  1.0000
  C   C159      1.0  0.43329  0.15535  0.11695  1.0000
  C   C160      1.0  0.38459  0.14166  0.36952  1.0000
  H   H248      1.0  0.37247  0.10095  0.31621  1.0000
  H   H249      1.0  0.41525  0.19837  0.08292  1.0000
  H   H250      1.0  0.41368  0.13862  0.10807  1.0000
  C   C161      1.0  0.31755  0.06936  0.27283  1.0000
  C   C162      1.0  0.33444  0.04464  0.26386  1.0000
  C   C163      1.0  0.33987  0.05023  0.23628  1.0000
  C   C164      1.0  0.32813  0.08043  0.21708  1.0000
  C   C165      1.0  0.31133  0.10528  0.22610  1.0000
  C   C166      1.0  0.30617  0.09993  0.25395  1.0000
  H   H251      1.0  0.42471  0.29066  0.12739  1.0000
  H   H252      1.0  0.35281  0.03088  0.22963  1.0000
  H   H253      1.0  0.30210  0.12869  0.21135  1.0000
  H   H254      1.0  0.29303  0.11909  0.26047  1.0000
  H   H255      1.0  0.47019  0.00241  0.21521  1.0000
  N   N15       1.0  0.27636  0.06572  0.08271  1.0000
  H   H256      1.0  0.42978  0.14208  0.33044  1.0000
  C   C167      1.0  0.44563  0.24574  0.17786  1.0000
  C   C168      1.0  0.39249  0.19003  0.33807  1.0000
  H   H257      1.0  0.39980  0.15482  0.39221  1.0000
  C   C169      1.0  0.48510  0.38660  0.25439  1.0000
  H   H258      1.0  0.30511  0.01197  0.35534  1.0000
  S   S66       1.0  0.47690  0.35734  0.11099  1.0000
  H   H259      1.0  0.37791  0.13698  0.29257  1.0000
  Fe  Fe37      1.0  0.29468  0.09354  0.33942  1.0000
  H   H260      1.0  0.48055  0.38632  0.29961  1.0000
  C   C170      1.0  0.43921  0.30343  0.15062  1.0000
  C   C171      1.0  0.29522  0.02476  0.48707  1.0000
  N   N16       1.0  0.43682  0.28436  0.17785  1.0000
  C   C172      1.0  0.28512  0.10080  0.10092  1.0000
  S   S67       1.0  0.45932  0.25420  0.09565  1.0000
  H   H261      1.0  0.33459  0.22376  0.37210  1.0000
  H   H262      1.0  0.27483  0.12469  0.08593  1.0000
  S   S68       1.0  0.28667  0.15348  0.34615  1.0000
  H   H263      1.0  0.39151  0.27155  0.15256  1.0000
  H   H264      1.0  0.46841  0.24407  0.17986  1.0000
  C   C173      1.0  0.48323  0.16497  0.15330  1.0000
  H   H265      1.0  0.39919  0.31430  0.17471  1.0000
  H   H266      1.0  0.46163  0.30216  0.15161  1.0000
  H   H267      1.0  0.43746  0.26310  0.43086  1.0000
  Fe  Fe38      1.0  0.25355  0.13156  0.36448  1.0000
  H   H268      1.0  0.44973  0.33204  0.20870  1.0000
  H   H269      1.0  0.45531  0.28914  0.22912  1.0000
  H   H270      1.0  0.37040  0.20102  0.33221  1.0000
  C   C174      1.0  0.42272  0.13652  0.35020  1.0000
  H   H271      1.0  0.43880  0.15017  0.37216  1.0000
  H   H272      1.0  0.26390  0.01343  0.30228  1.0000
  S   S69       1.0  0.41668  0.00304  0.13560  1.0000
  H   H273      1.0  0.39906  0.19742  0.31831  1.0000
  N   N17       1.0  0.39310  0.14989  0.34280  1.0000
  Fe  Fe39      1.0  0.31875  0.14761  0.39683  1.0000
  S   S70       1.0  0.32877  0.08997  0.38873  1.0000
  S   S71       1.0  0.36001  0.17818  0.42817  1.0000
  Fe  Fe40      1.0  0.29431  0.07167  0.40484  1.0000
  S   S72       1.0  0.31225  0.02176  0.43600  1.0000
  S   S73       1.0  0.28598  0.12954  0.41592  1.0000
  S   S74       1.0  0.25991  0.07175  0.35472  1.0000
  H   H274      1.0  0.40394  0.27150  0.19527  1.0000
  Fe  Fe41      1.0  0.45968  0.32527  0.39758  1.0000
  S   S75       1.0  0.41222  0.30806  0.37437  1.0000
  H   H275      1.0  0.27908  0.10116  0.12190  1.0000
  H   H276      1.0  0.42402  0.10633  0.35413  1.0000
  H   H277      1.0  0.44418  0.23037  0.19806  1.0000
  S   S76       1.0  0.47513  0.38069  0.38774  1.0000
  C   C175      1.0  0.37251  0.13132  0.31348  1.0000
  H   H278      1.0  0.36252  0.15199  0.36496  1.0000
  H   H279      1.0  0.35555  0.27482  0.35195  1.0000
  H   H280      1.0  0.38422  0.11157  0.37341  1.0000
  H   H281      1.0  0.30935  0.06964  0.06394  1.0000
  C   C176      1.0  0.37400  0.21477  0.41317  1.0000
  C   C177      1.0  0.35701  0.23216  0.38493  1.0000
  C   C178      1.0  0.36890  0.26111  0.37359  1.0000
  C   C179      1.0  0.39796  0.27241  0.39003  1.0000
  C   C180      1.0  0.41505  0.25466  0.41805  1.0000
  C   C181      1.0  0.40302  0.22615  0.42970  1.0000
  C   C182      1.0  0.45602  0.30292  0.20786  1.0000
  C   C183      1.0  0.24455  0.06075  0.07070  1.0000
  H   H282      1.0  0.28475  0.03401  0.12486  1.0000
  H   H283      1.0  0.27510  0.08884  0.03906  1.0000
  C   C184      1.0  0.28538  0.06614  0.05560  1.0000
  H   H284      1.0  0.46553  0.40195  0.24249  1.0000
  H   H285      1.0  0.48042  0.04608  0.23550  1.0000
  H   H286      1.0  0.47899  0.30337  0.21030  1.0000
  H   H287      1.0  0.28487  0.00802  0.09089  1.0000
  H   H288      1.0  0.31447  0.03817  0.11296  1.0000
  S   S77       1.0  0.48731  0.32709  0.45035  1.0000
  C   C185      1.0  0.48878  0.02181  0.22694  1.0000
  H   H289      1.0  0.32683  0.09310  0.48089  1.0000
  H   H290      1.0  0.33928  0.13744  0.47419  1.0000
  H   H291      1.0  0.37694  0.10537  0.46185  1.0000
  H   H292      1.0  0.36553  0.06164  0.47092  1.0000
  S   S78       1.0  0.48993  0.38700  0.19643  1.0000
  H   H293      1.0  0.40258  0.07673  0.49118  1.0000
  C   C186      1.0  0.34216  0.11632  0.49259  1.0000
  C   C187      1.0  0.37975  0.08610  0.48158  1.0000
  H   H294      1.0  0.29854  0.38033  0.62996  1.0000
  H   H295      1.0  0.47234  0.42793  0.49637  1.0000
  S   S79       1.0  0.47116  0.14121  0.67153  1.0000
  C   C188      1.0  0.29596  0.01226  0.51649  1.0000
  H   H296      1.0  0.30282  0.38241  0.57881  1.0000
  H   H297      1.0  0.31769  0.34683  0.65889  1.0000
  H   H298      1.0  0.41550  0.02494  0.65023  1.0000
  H   H299      1.0  0.30379  0.29829  0.58282  1.0000
  H   H300      1.0  0.29999  0.29636  0.62022  1.0000
  H   H301      1.0  0.34125  0.38982  0.59945  1.0000
  H   H302      1.0  0.46002  0.24927  0.87505  1.0000
  H   H303      1.0  0.47681  0.11427  0.73288  1.0000
  H   H304      1.0  0.33699  0.38531  0.65209  1.0000
  H   H305      1.0  0.32757  0.35289  0.57055  1.0000
  H   H306      1.0  0.42630  0.26558  0.84616  1.0000
  C   C189      1.0  0.30074  0.31533  0.60158  1.0000
  H   H307      1.0  0.33729  0.03250  0.90291  1.0000
  C   C190      1.0  0.47497  0.20974  0.83403  1.0000
  H   H308      1.0  0.41815  0.20508  0.79583  1.0000
  H   H309      1.0  0.41515  0.12744  0.53137  1.0000
  H   H310      1.0  0.43575  0.08047  0.63465  1.0000
  C   C191      1.0  0.37573  0.07714  0.53198  1.0000
  C   C192      1.0  0.31917  0.36493  0.64016  1.0000
  C   C193      1.0  0.44037  0.07577  0.65949  1.0000
  N   N18       1.0  0.32412  0.34333  0.61525  1.0000
  C   C194      1.0  0.34825  0.00607  0.90287  1.0000
  H   H311      1.0  0.27911  0.32835  0.59066  1.0000
  H   H312      1.0  0.45239  0.29760  0.81663  1.0000
  C   C195      1.0  0.32399  0.36819  0.58988  1.0000
  H   H313      1.0  0.46498  0.18271  0.83537  1.0000
  H   H314      1.0  0.39826  0.06678  0.54296  1.0000
  C   C196      1.0  0.42891  0.04433  0.66828  1.0000
  Fe  Fe42      1.0  0.26725  0.31463  0.67271  1.0000
  H   H315      1.0  0.38702  0.15007  0.53924  1.0000
  H   H316      1.0  0.35101  0.22578  0.68923  1.0000
  C   C197      1.0  0.43462  0.03842  0.70041  1.0000
  S   S80       1.0  0.30606  0.27613  0.68475  1.0000
  S   S81       1.0  0.26764  0.37655  0.67318  1.0000
  H   H317      1.0  0.35286  0.30544  0.64814  1.0000
  S   S82       1.0  0.47170  0.18947  0.74798  1.0000
  H   H318      1.0  0.35716  0.30891  0.61121  1.0000
  Fe  Fe43      1.0  0.47896  0.24980  0.74398  1.0000
  S   S83       1.0  0.44489  0.29250  0.74223  1.0000
  H   H319      1.0  0.37055  0.08966  0.55143  1.0000
  C   C198      1.0  0.34464  0.28149  0.70147  1.0000
  C   C199      1.0  0.35878  0.31454  0.71544  1.0000
  C   C200      1.0  0.38937  0.31746  0.72751  1.0000
  C   C201      1.0  0.40630  0.28751  0.72583  1.0000
  C   C202      1.0  0.39217  0.25448  0.71191  1.0000
  C   C203      1.0  0.36161  0.25152  0.69995  1.0000
  H   H320      1.0  0.34623  0.33776  0.71727  1.0000
  H   H321      1.0  0.40002  0.34310  0.73841  1.0000
  H   H322      1.0  0.40475  0.23114  0.71034  1.0000
  C   C204      1.0  0.44231  0.24308  0.85136  1.0000
  C   C205      1.0  0.46806  0.27465  0.82413  1.0000
  H   H323      1.0  0.48417  0.20673  0.81567  1.0000
  C   C206      1.0  0.39206  0.13581  0.52039  1.0000
  H   H324      1.0  0.48583  0.28257  0.84727  1.0000
  C   C207      1.0  0.48016  0.47294  0.53057  1.0000
  S   S84       1.0  0.42142  0.99911  0.71274  1.0000
  C   C208      1.0  0.45205  0.06373  0.72360  1.0000
  C   C209      1.0  0.46340  0.09506  0.71480  1.0000
  H   H325      1.0  0.28078  0.02305  0.52571  1.0000
  H   H326      1.0  0.36673  0.00388  0.92648  1.0000
  H   H327      1.0  0.45678  0.05921  0.74851  1.0000
  H   H328      1.0  0.43729  0.22875  0.77580  1.0000
  C   C210      1.0  0.45745  0.10140  0.68274  1.0000
  N   N19       1.0  0.45371  0.23969  0.82622  1.0000
  C   C211      1.0  0.48635  0.45103  0.50825  1.0000
  H   H329      1.0  0.37054  0.34512  0.64087  1.0000
  H   H330      1.0  0.43124  0.21719  0.85347  1.0000
  N   N20       1.0  0.37245  0.10382  0.50668  1.0000
  C   C212      1.0  0.35241  0.32496  0.62941  1.0000
  C   C213      1.0  0.42949  0.23133  0.79532  1.0000
  H   H331      1.0  0.33547  0.12878  0.51093  1.0000
  H   H332      1.0  0.35745  0.00765  0.88440  1.0000
  H   H333      1.0  0.39012  0.15635  0.50175  1.0000
  H   H334      1.0  0.41315  0.25355  0.78842  1.0000
  S   S85       1.0  0.24073  0.39372  0.57817  1.0000
  H   H335      1.0  0.48277  0.43921  0.98758  1.0000
  H   H336      1.0  0.46145  0.46613  0.53568  1.0000
  H   H337      1.0  0.36094  0.05289  0.52244  1.0000
  H   H338      1.0  0.29145  0.00382  0.86400  1.0000
  H   H339      1.0  0.48584  0.00548  0.70259  1.0000
  H   H340      1.0  0.47780  0.27259  0.80617  1.0000
  S   S86       1.0  0.42853  0.94992  0.21782  1.0000
  H   H341      1.0  0.48011  0.59944  0.22705  1.0000
  Fe  Fe44      1.0  0.27612  0.62595  0.17507  1.0000
  C   C214      1.0  0.30010  0.95647  0.31411  1.0000
  S   S87       1.0  0.32129  0.63297  0.17367  1.0000
  H   H342      1.0  0.38155  0.95306  0.05636  1.0000
  H   H343      1.0  0.43444  0.81917  0.25208  1.0000
  C   C215      1.0  0.39540  0.81691  0.19166  1.0000
  H   H344      1.0  0.38663  0.80655  0.16653  1.0000
  H   H345      1.0  0.26577  0.59620  0.02358  1.0000
  H   H346      1.0  0.28600  0.91291  0.35308  1.0000
  C   C216      1.0  0.33549  0.96080  0.03377  1.0000
  C   C217      1.0  0.31098  0.59460  0.08015  1.0000
  S   S88       1.0  0.44552  0.68291  0.27880  1.0000
  H   H347      1.0  0.28324  0.64310  0.10235  1.0000
  N   N21       1.0  0.28002  0.96488  0.32967  1.0000
  C   C218      1.0  0.41083  0.67099  0.24880  1.0000
  C   C219      1.0  0.38764  0.66379  0.25794  1.0000
  C   C220      1.0  0.35996  0.65306  0.23527  1.0000
  C   C221      1.0  0.35520  0.64875  0.20312  1.0000
  C   C222      1.0  0.37839  0.65609  0.19395  1.0000
  C   C223      1.0  0.40599  0.66729  0.21655  1.0000
  H   H348      1.0  0.39110  0.66633  0.28281  1.0000
  H   H349      1.0  0.34246  0.64738  0.24280  1.0000
  H   H350      1.0  0.37504  0.65270  0.16918  1.0000
  H   H351      1.0  0.42359  0.67225  0.20908  1.0000
  C   C224      1.0  0.36173  0.94545  0.03636  1.0000
  C   C225      1.0  0.44765  0.91149  0.21323  1.0000
  C   C226      1.0  0.44779  0.90106  0.18373  1.0000
  C   C227      1.0  0.46262  0.86933  0.18115  1.0000
  H   H352      1.0  0.45212  0.58843  0.02963  1.0000
  C   C228      1.0  0.36242  0.92054  0.01273  1.0000
  C   C229      1.0  0.46289  0.89060  0.24012  1.0000
  H   H353      1.0  0.43615  0.91707  0.16285  1.0000
  H   H354      1.0  0.41465  0.83468  0.19510  1.0000
  H   H355      1.0  0.27356  0.65039  0.06055  1.0000
  H   H356      1.0  0.43230  0.74090  0.22701  1.0000
  H   H357      1.0  0.37533  0.58238  0.48279  1.0000
  H   H358      1.0  0.24348  0.97225  0.28521  1.0000
  C   C230      1.0  0.37712  0.76341  0.20911  1.0000
  C   C231      1.0  0.47743  0.84805  0.20802  1.0000
  Fe  Fe45      1.0  0.48610  0.71078  0.27735  1.0000
  C   C232      1.0  0.27064  0.63147  0.07799  1.0000
  H   H359      1.0  0.43017  0.62751  0.01229  1.0000
  H   H360      1.0  0.28878  0.57970  0.12302  1.0000
  S   S89       1.0  0.25614  0.64126  0.21000  1.0000
  H   H361      1.0  0.39868  0.81870  0.25191  1.0000
  H   H362      1.0  0.31874  0.94003  0.32978  1.0000
  H   H363      1.0  0.28896  0.94079  0.29134  1.0000
  S   S90       1.0  0.25099  0.57189  0.16076  1.0000
  H   H364      1.0  0.26794  0.55046  0.03890  1.0000
  H   H365      1.0  0.46320  0.89876  0.26311  1.0000
  H   H366      1.0  0.31869  0.56660  0.07778  1.0000
  H   H367      1.0  0.38220  0.74054  0.22636  1.0000
  C   C233      1.0  0.42536  0.76363  0.20967  1.0000
  H   H368      1.0  0.35967  0.77977  0.21195  1.0000
  C   C234      1.0  0.27560  0.56990  0.09822  1.0000
  N   N22       1.0  0.40315  0.78637  0.21442  1.0000
  H   H369      1.0  0.37883  0.83490  0.19462  1.0000
  H   H370      1.0  0.47723  0.63776  0.25057  1.0000
  H   H371      1.0  0.25256  0.56941  0.09524  1.0000
  H   H372      1.0  0.36807  0.75075  0.18475  1.0000
  H   H373      1.0  0.44505  0.78026  0.21293  1.0000
  C   C235      1.0  0.26833  0.93027  0.33681  1.0000
  C   C236      1.0  0.30998  0.95056  0.00743  1.0000
  H   H374      1.0  0.41723  0.75123  0.18525  1.0000
  C   C237      1.0  0.41488  0.80151  0.24736  1.0000
  H   H375      1.0  0.42133  0.77918  0.26520  1.0000
  C   C238      1.0  0.29578  0.98575  0.35968  1.0000
  N   N23       1.0  0.27992  0.59383  0.07456  1.0000
  H   H376      1.0  0.32454  0.60529  0.10463  1.0000
  C   C239      1.0  0.26247  0.57941  0.04207  1.0000
  H   H377      1.0  0.38292  0.90919  0.01487  1.0000
  H   H378      1.0  0.25319  0.93578  0.34870  1.0000
  C   C240      1.0  0.45997  0.57726  0.27082  1.0000
  H   H379      1.0  0.46231  0.86100  0.15820  1.0000
  H   H380      1.0  0.30922  0.98209  0.30836  1.0000
  H   H381      1.0  0.44715  0.60185  0.27151  1.0000
  H   H382      1.0  0.45923  0.55819  0.28934  1.0000
  H   H383      1.0  0.28169  0.54103  0.09594  1.0000
  H   H384      1.0  0.25621  0.91380  0.31471  1.0000
  H   H385      1.0  0.47025  0.54940  0.99718  1.0000
  H   H386      1.0  0.28953  0.96212  0.00520  1.0000
  C   C241      1.0  0.47785  0.85919  0.23757  1.0000
  H   H387      1.0  0.31516  0.61262  0.06289  1.0000
  H   H388      1.0  0.44856  0.56347  0.24716  1.0000
  C   C242      1.0  0.25585  0.98707  0.30815  1.0000
  H   H389      1.0  0.46863  0.65164  0.99613  1.0000
  H   H390      1.0  0.24036  0.99415  0.31920  1.0000
  Fe  Fe46      1.0  0.40741  0.99091  0.17883  1.0000
  S   S91       1.0  0.49000  0.77225  0.28236  1.0000
  H   H391      1.0  0.24724  0.63183  0.07395  1.0000
  C   C243      1.0  0.43563  0.59922  0.00712  1.0000
  H   H392      1.0  0.48365  0.97244  0.26786  1.0000
  H   H393      1.0  0.31404  0.96991  0.37677  1.0000
  H   H394      1.0  0.42656  0.58850  0.48873  1.0000
  S   S92       1.0  0.24277  0.65669  0.13499  1.0000
  S   S93       1.0  0.35903  0.99423  0.15336  1.0000
  H   H395      1.0  0.41571  0.58173  0.00042  1.0000
  S   S94       1.0  0.33349  0.99378  0.06198  1.0000
  H   H396      1.0  0.28124  0.99282  0.37195  1.0000
  H   H397      1.0  0.34839  0.97150  0.48193  1.0000
  H   H398      1.0  0.48981  0.84377  0.25857  1.0000
  C   C244      1.0  0.48999  0.61279  0.25108  1.0000
  N   N24       1.0  0.49014  0.58764  0.27627  1.0000
  C   C245      1.0  0.33391  0.98336  0.49166  1.0000
  H   H399      1.0  0.43564  0.54759  0.51223  1.0000
  H   H400      1.0  0.43173  0.61494  0.93238  1.0000
  Fe  Fe47      1.0  0.34976  0.93930  0.60973  1.0000
  S   S95       1.0  0.39837  0.94621  0.62866  1.0000
  H   H401      1.0  0.26496  0.86163  0.57984  1.0000
  Fe  Fe48      1.0  0.39994  0.88621  0.64165  1.0000
  H   H402      1.0  0.31174  0.97889  0.84565  1.0000
  S   S96       1.0  0.35145  0.87828  0.61877  1.0000
  S   S97       1.0  0.34752  0.95400  0.65675  1.0000
  S   S98       1.0  0.43297  0.68040  0.60595  1.0000
  H   H403      1.0  0.38898  0.72919  0.60883  1.0000
  S   S99       1.0  0.47633  0.59981  0.90639  1.0000
  C   C246      1.0  0.45971  0.78668  0.63058  1.0000
  H   H404      1.0  0.45865  0.94838  0.70241  1.0000
  C   C247      1.0  0.43470  0.80393  0.63024  1.0000
  C   C248      1.0  0.38347  0.57176  0.50748  1.0000
  C   C249      1.0  0.33514  0.97154  0.52143  1.0000
  C   C250      1.0  0.43386  0.72803  0.61518  1.0000
  C   C251      1.0  0.40881  0.74514  0.61497  1.0000
  C   C252      1.0  0.40922  0.78294  0.62256  1.0000
  C   C253      1.0  0.45358  0.56135  0.97537  1.0000
  H   H405      1.0  0.45679  0.75621  0.72445  1.0000
  H   H406      1.0  0.38981  0.79590  0.62218  1.0000
  C   C254      1.0  0.30377  0.97828  0.86519  1.0000
  H   H407      1.0  0.40282  0.64047  0.50507  1.0000
  H   H408      1.0  0.40383  0.59704  0.94371  1.0000
  N   N25       1.0  0.41228  0.58769  0.52740  1.0000
  H   H409      1.0  0.47804  0.64939  0.70100  1.0000
  Fe  Fe49      1.0  0.24764  0.82379  0.86277  1.0000
  H   H410      1.0  0.30409  0.99843  0.92214  1.0000
  H   H411      1.0  0.29327  0.87076  0.61823  1.0000
  Fe  Fe50      1.0  0.48268  0.66026  0.91840  1.0000
  H   H412      1.0  0.44110  0.66442  0.68400  1.0000
  C   C255      1.0  0.31576  0.98541  0.53373  1.0000
  H   H413      1.0  0.32865  0.91593  0.89297  1.0000
  H   H414      1.0  0.47945  0.80271  0.63627  1.0000
  S   S100      1.0  0.31388  0.96807  0.56906  1.0000
  H   H415      1.0  0.35033  0.95070  0.53427  1.0000
  C   C256      1.0  0.45933  0.74899  0.62313  1.0000
  S   S101      1.0  0.43669  0.85153  0.63979  1.0000
  H   H416      1.0  0.43167  0.64109  0.54399  1.0000
  H   H417      1.0  0.30142  0.94916  0.91821  1.0000
  H   H418      1.0  0.29028  0.92487  0.65054  1.0000
  N   N26       1.0  0.25686  0.90647  0.60622  1.0000
  H   H419      1.0  0.41846  0.64272  0.95593  1.0000
  H   H420      1.0  0.47995  0.98854  0.75156  1.0000
  N   N27       1.0  0.47112  0.70221  0.71823  1.0000
  H   H421      1.0  0.36175  0.93612  0.92039  1.0000
  C   C257      1.0  0.31061  0.92523  0.98404  1.0000
  Fe  Fe51      1.0  0.30339  0.78797  0.86531  1.0000
  S   S102      1.0  0.32800  0.84118  0.87584  1.0000
  S   S103      1.0  0.32285  0.73603  0.85478  1.0000
  Fe  Fe52      1.0  0.28840  0.86454  0.83827  1.0000
  S   S104      1.0  0.29932  0.90681  0.80830  1.0000
  Fe  Fe53      1.0  0.30707  0.85411  0.91013  1.0000
  S   S105      1.0  0.33970  0.88047  0.95653  1.0000
  S   S106      1.0  0.26454  0.81016  0.82497  1.0000
  S   S107      1.0  0.28554  0.79805  0.90258  1.0000
  H   H422      1.0  0.45528  0.58940  0.52781  1.0000
  S   S108      1.0  0.45433  0.69581  0.93495  1.0000
  H   H423      1.0  0.48015  0.66306  0.75562  1.0000
  H   H424      1.0  0.29471  0.82379  0.72015  1.0000
  H   H425      1.0  0.36585  0.76491  0.91477  1.0000
  C   C258      1.0  0.33694  0.91026  0.98643  1.0000
  C   C259      1.0  0.42215  0.57282  0.55985  1.0000
  H   H426      1.0  0.25873  0.87053  0.64392  1.0000
  S   S109      1.0  0.40077  0.89738  0.69042  1.0000
  H   H427      1.0  0.35189  0.93940  0.87791  1.0000
  N   N28       1.0  0.32791  0.97448  0.89669  1.0000
  H   H428      1.0  0.40722  0.58003  0.57159  1.0000
  H   H429      1.0  0.39505  0.63649  0.54014  1.0000
  H   H430      1.0  0.44320  0.67724  0.73821  1.0000
  H   H431      1.0  0.47085  0.70763  0.76509  1.0000
  S   S110      1.0  0.26846  0.88072  0.87298  1.0000
  H   H432      1.0  0.29078  0.91747  0.96411  1.0000
  C   C260      1.0  0.30563  0.89391  0.77408  1.0000
  C   C261      1.0  0.32044  0.91845  0.76202  1.0000
  C   C262      1.0  0.32642  0.90874  0.73530  1.0000
  C   C263      1.0  0.31721  0.87455  0.72007  1.0000
  C   C264      1.0  0.30211  0.85020  0.73190  1.0000
  C   C265      1.0  0.29653  0.85968  0.75891  1.0000
  H   H433      1.0  0.32753  0.94503  0.77353  1.0000
  H   H434      1.0  0.33801  0.92780  0.72642  1.0000
  C   C266      1.0  0.35927  0.72475  0.87746  1.0000
  C   C267      1.0  0.37229  0.69698  0.86626  1.0000
  C   C268      1.0  0.40162  0.68823  0.88325  1.0000
  C   C269      1.0  0.41794  0.70688  0.91181  1.0000
  C   C270      1.0  0.40484  0.73444  0.92308  1.0000
  C   C271      1.0  0.37568  0.74356  0.90588  1.0000
  H   H435      1.0  0.35966  0.68229  0.84428  1.0000
  H   H436      1.0  0.41145  0.66681  0.87445  1.0000
  H   H437      1.0  0.41732  0.74887  0.94526  1.0000
  N   N29       1.0  0.37310  0.80541  0.81564  1.0000
  C   C272      1.0  0.38926  0.79251  0.79669  1.0000
  C   C273      1.0  0.34416  0.78733  0.80350  1.0000
  C   C274      1.0  0.36977  0.84568  0.81286  1.0000
  C   C275      1.0  0.38921  0.79606  0.84943  1.0000
  H   H438      1.0  0.39194  0.76215  0.79813  1.0000
  H   H439      1.0  0.41128  0.80545  0.80532  1.0000
  H   H440      1.0  0.37771  0.79933  0.77105  1.0000
  H   H441      1.0  0.33097  0.79714  0.81663  1.0000
  H   H442      1.0  0.33167  0.79284  0.77782  1.0000
  H   H443      1.0  0.34579  0.75696  0.80631  1.0000
  H   H444      1.0  0.35641  0.85617  0.82558  1.0000
  H   H445      1.0  0.35889  0.85374  0.78752  1.0000
  H   H446      1.0  0.39111  0.86037  0.82295  1.0000
  H   H447      1.0  0.37697  0.80383  0.86417  1.0000
  H   H448      1.0  0.41076  0.81022  0.85985  1.0000
  H   H449      1.0  0.39312  0.76602  0.85222  1.0000
  C   C276      1.0  0.43325  0.57795  0.51331  1.0000
  H   H450      1.0  0.25925  0.95380  0.63594  1.0000
  S   S111      1.0  0.32383  0.86115  0.68616  1.0000
  H   H451      1.0  0.28853  0.90100  0.58578  1.0000
  H   H452      1.0  0.44395  0.58399  0.57518  1.0000
  Fe  Fe54      1.0  0.47608  0.65234  0.61806  1.0000
  C   C277      1.0  0.46604  0.68696  0.74544  1.0000
  H   H453      1.0  0.24544  0.94037  0.56503  1.0000
  H   H454      1.0  0.47864  0.73644  0.62289  1.0000
  C   C278      1.0  0.31632  0.97326  0.92176  1.0000
  C   C279      1.0  0.45245  0.73435  0.70581  1.0000
  H   H455      1.0  0.38427  0.54125  0.50580  1.0000
  S   S112      1.0  0.48196  0.59113  0.82161  1.0000
  H   H456      1.0  0.28489  0.84066  0.76777  1.0000
  H   H457      1.0  0.36717  0.57849  0.51753  1.0000
  H   H458      1.0  0.42406  0.54235  0.55966  1.0000
  H   H459      1.0  0.28817  0.95466  0.85967  1.0000
  H   H460      1.0  0.33405  0.97060  0.94585  1.0000
  C   C280      1.0  0.24249  0.88301  0.62200  1.0000
  S   S113      1.0  0.48871  0.52996  0.57438  1.0000
  C   C281      1.0  0.27676  0.88398  0.59708  1.0000
  Fe  Fe55      1.0  0.39590  0.95647  0.67593  1.0000
  Fe  Fe56      1.0  0.35224  0.89397  0.66710  1.0000
  C   C282      1.0  0.41031  0.62814  0.52909  1.0000
  C   C283      1.0  0.47939  0.93324  0.71133  1.0000
  C   C284      1.0  0.42411  0.61400  0.95214  1.0000
  H   H461      1.0  0.46755  0.57052  0.75610  1.0000
  H   H462      1.0  0.46259  0.56049  0.95670  1.0000
  C   C285      1.0  0.27349  0.93620  0.62848  1.0000
  H   H463      1.0  0.43413  0.54287  0.96728  1.0000
  H   H464      1.0  0.47689  0.91014  0.72579  1.0000
  H   H465      1.0  0.42903  0.72656  0.69679  1.0000
  H   H466      1.0  0.45613  0.74683  0.68558  1.0000
  H   H467      1.0  0.46762  0.68466  0.67191  1.0000
  C   C286      1.0  0.46414  0.67387  0.69274  1.0000
  H   H468      1.0  0.48192  0.92115  0.69009  1.0000
  H   H469      1.0  0.28475  0.95436  0.61735  1.0000
  S   S114      1.0  0.48302  0.59613  0.63937  1.0000
  C   C287      1.0  0.34337  0.94011  0.89698  1.0000
  H   H470      1.0  0.48150  0.62343  0.97248  1.0000
  N   N30       1.0  0.44654  0.59929  0.98149  1.0000
  C   C288      1.0  0.47298  0.62266  0.99144  1.0000
  C   C289      1.0  0.48780  0.58596  0.76424  1.0000
  Fe  Fe57      1.0  0.69892  0.14708  0.15268  1.0000
  S   S115      1.0  0.69059  0.08749  0.15859  1.0000
  S   S116      1.0  0.65721  0.17705  0.12494  1.0000
  Fe  Fe58      1.0  0.55596  0.32729  0.14678  1.0000
  S   S117      1.0  0.52692  0.31695  0.09536  1.0000
  S   S118      1.0  0.60398  0.31472  0.16832  1.0000
  Fe  Fe59      1.0  0.50866  0.36358  0.16212  1.0000
  H   H471      1.0  0.60050  0.10806  0.16549  1.0000
  C   C290      1.0  0.69438  0.05386  0.04873  1.0000
  Fe  Fe60      1.0  0.51286  0.37573  0.09621  1.0000
  C   C291      1.0  0.53566  0.47742  0.05325  1.0000
  S   S119      1.0  0.52401  0.30547  0.16593  1.0000
  S   S120      1.0  0.54333  0.38666  0.14739  1.0000
  C   C292      1.0  0.51425  0.45185  0.03497  1.0000
  N   N31       1.0  0.51254  0.00414  0.25333  1.0000
  H   H472      1.0  0.67005  0.03459  0.31950  1.0000
  H   H473      1.0  0.55562  0.33297  0.29751  1.0000
  C   C293      1.0  0.59667  0.29798  0.38253  1.0000
  C   C294      1.0  0.50181  0.37581  0.23734  1.0000
  H   H474      1.0  0.55895  0.34771  0.05907  1.0000
  C   C295      1.0  0.52701  0.35589  0.25299  1.0000
  H   H475      1.0  0.60318  0.38729  0.04017  1.0000
  S   S121      1.0  0.50557  0.41091  0.05146  1.0000
  H   H476      1.0  0.58975  0.32675  0.05540  1.0000
  H   H477      1.0  0.67884  0.12413  0.21532  1.0000
  H   H478      1.0  0.62513  0.13350  0.15339  1.0000
  H   H479      1.0  0.71516  0.13204  0.27798  1.0000
  N   N32       1.0  0.63430  0.13763  0.20346  1.0000
  C   C296      1.0  0.70271  0.07490  0.27451  1.0000
  C   C297      1.0  0.69006  0.04756  0.28663  1.0000
  H   H480      1.0  0.59759  0.21058  0.40811  1.0000
  C   C298      1.0  0.64292  0.21500  0.13802  1.0000
  C   C299      1.0  0.61361  0.22357  0.12117  1.0000
  C   C300      1.0  0.60122  0.25351  0.13065  1.0000
  C   C301      1.0  0.61823  0.27557  0.15677  1.0000
  C   C302      1.0  0.64753  0.26700  0.17369  1.0000
  C   C303      1.0  0.65983  0.23667  0.16451  1.0000
  H   H481      1.0  0.60039  0.20686  0.10067  1.0000
  H   H482      1.0  0.57859  0.25966  0.11754  1.0000
  H   H483      1.0  0.66084  0.28403  0.19390  1.0000
  H   H484      1.0  0.68247  0.23049  0.17753  1.0000
  C   C304      1.0  0.70486  0.11090  0.28647  1.0000
  S   S122      1.0  0.67872  0.00658  0.48415  1.0000
  H   H485      1.0  0.63364  0.34833  0.12185  1.0000
  H   H486      1.0  0.54541  0.04010  0.24992  1.0000
  C   C305      1.0  0.67957  0.05598  0.31031  1.0000
  H   H487      1.0  0.62731  0.24265  0.41808  1.0000
  C   C306      1.0  0.51907  0.35846  0.30257  1.0000
  C   C307      1.0  0.53572  0.34764  0.28549  1.0000
  C   C308      1.0  0.68192  0.09188  0.32248  1.0000
  C   C309      1.0  0.66491  0.14859  0.21210  1.0000
  Fe  Fe61      1.0  0.72558  0.09485  0.20764  1.0000
  H   H488      1.0  0.60932  0.10579  0.22327  1.0000
  H   H489      1.0  0.58457  0.32285  0.09186  1.0000
  H   H490      1.0  0.66748  0.16544  0.19324  1.0000
  H   H491      1.0  0.54008  0.34742  0.24021  1.0000
  H   H492      1.0  0.62439  0.18739  0.22271  1.0000
  C   C310      1.0  0.63214  0.11427  0.22869  1.0000
  H   H493      1.0  0.60847  0.42670  0.06617  1.0000
  H   H494      1.0  0.60131  0.42099  0.11635  1.0000
  H   H495      1.0  0.64495  0.08876  0.23148  1.0000
  H   H496      1.0  0.50382  0.21558  0.14795  1.0000
  H   H497      1.0  0.67370  0.16497  0.23473  1.0000
  C   C311      1.0  0.62358  0.11674  0.17291  1.0000
  H   H498      1.0  0.56580  0.40132  0.09504  1.0000
  H   H499      1.0  0.63902  0.35258  0.08546  1.0000
  H   H500      1.0  0.49450  0.01625  0.28786  1.0000
  H   H501      1.0  0.64071  0.12883  0.25229  1.0000
  H   H502      1.0  0.57265  0.40797  0.04474  1.0000
  H   H503      1.0  0.59211  0.37724  0.12763  1.0000
  C   C312      1.0  0.70854  0.02391  0.06688  1.0000
  H   H504      1.0  0.50236  0.15556  0.17277  1.0000
  C   C313      1.0  0.61673  0.17087  0.20013  1.0000
  C   C314      1.0  0.68278  0.05131  0.01518  1.0000
  H   H505      1.0  0.63652  0.09157  0.17464  1.0000
  S   S123      1.0  0.72552  0.02659  0.10914  1.0000
  H   H506      1.0  0.61799  0.18903  0.18129  1.0000
  H   H507      1.0  0.59345  0.16371  0.19350  1.0000
  N   N33       1.0  0.59954  0.37604  0.08452  1.0000
  C   C315      1.0  0.63046  0.36691  0.10150  1.0000
  C   C316      1.0  0.58243  0.34184  0.07213  1.0000
  C   C317      1.0  0.59587  0.40057  0.05771  1.0000
  C   C318      1.0  0.58924  0.39475  0.10685  1.0000
  H   H508      1.0  0.64409  0.39200  0.11144  1.0000
  H   H509      1.0  0.68845  0.01958  0.27772  1.0000
  S   S124      1.0  0.59875  0.01260  0.41195  1.0000
  H   H510      1.0  0.69265  0.07917  0.06051  1.0000
  S   S125      1.0  0.71544  0.06237  0.24463  1.0000
  S   S126      1.0  0.73152  0.13420  0.13180  1.0000
  H   H511      1.0  0.54738  0.47302  0.07846  1.0000
  C   C319      1.0  0.69454  0.11928  0.31033  1.0000
  C   C320      1.0  0.49350  0.37766  0.28674  1.0000
  N   N34       1.0  0.58821  0.25862  0.37920  1.0000
  H   H512      1.0  0.59744  0.25267  0.42902  1.0000
  Fe  Fe62      1.0  0.60593  0.00019  0.36734  1.0000
  Fe  Fe63      1.0  0.72559  0.07523  0.14140  1.0000
  S   S127      1.0  0.65455  0.00658  0.38987  1.0000
  H   H513      1.0  0.62055  0.30182  0.39080  1.0000
  H   H514      1.0  0.69674  0.14705  0.31982  1.0000
  H   H515      1.0  0.58966  0.31241  0.39987  1.0000
  H   H516      1.0  0.54437  0.26939  0.34703  1.0000
  H   H517      1.0  0.54929  0.22579  0.36647  1.0000
  H   H518      1.0  0.58498  0.25386  0.33099  1.0000
  Fe  Fe64      1.0  0.64698  0.06594  0.37584  1.0000
  S   S128      1.0  0.59899  0.05816  0.35047  1.0000
  S   S129      1.0  0.66949  0.10389  0.35271  1.0000
  Fe  Fe65      1.0  0.59561  0.07180  0.39685  1.0000
  S   S130      1.0  0.55665  0.10777  0.38971  1.0000
  S   S131      1.0  0.64343  0.08350  0.42178  1.0000
  Fe  Fe66      1.0  0.52027  0.29924  0.43587  1.0000
  S   S132      1.0  0.55204  0.25573  0.46340  1.0000
  S   S133      1.0  0.53202  0.34869  0.34384  1.0000
  S   S134      1.0  0.52046  0.43170  0.47432  1.0000
  Fe  Fe67      1.0  0.50911  0.34823  0.37828  1.0000
  H   H519      1.0  0.58634  0.31230  0.35944  1.0000
  S   S135      1.0  0.53984  0.35258  0.42980  1.0000
  C   C321      1.0  0.55654  0.25510  0.36975  1.0000
  H   H520      1.0  0.54989  0.26750  0.38818  1.0000
  C   C322      1.0  0.55274  0.21359  0.44385  1.0000
  C   C323      1.0  0.57697  0.19080  0.45648  1.0000
  C   C324      1.0  0.57869  0.15823  0.44025  1.0000
  C   C325      1.0  0.55589  0.14794  0.41157  1.0000
  C   C326      1.0  0.53136  0.17020  0.39953  1.0000
  C   C327      1.0  0.52983  0.20291  0.41546  1.0000
  C   C328      1.0  0.68481  0.01873  0.99933  1.0000
  H   H521      1.0  0.59757  0.14107  0.44993  1.0000
  H   H522      1.0  0.51351  0.16219  0.37757  1.0000
  H   H523      1.0  0.51081  0.21968  0.40584  1.0000
  H   H524      1.0  0.61999  0.24315  0.36094  1.0000
  Fe  Fe68      1.0  0.50466  0.38087  0.44029  1.0000
  C   C329      1.0  0.60334  0.24039  0.40997  1.0000
  S   S136      1.0  0.73255  0.15562  0.20266  1.0000
  C   C330      1.0  0.59622  0.24095  0.35460  1.0000
  Fe  Fe69      1.0  0.64717  0.02299  0.43404  1.0000
  S   S137      1.0  0.49131  0.29334  0.38424  1.0000
  H   H525      1.0  0.59025  0.21112  0.35174  1.0000
  H   H526      1.0  0.53043  0.05526  0.27775  1.0000
  Fe  Fe70      1.0  0.49373  0.29979  0.11448  1.0000
  C   C331      1.0  0.49929  0.45867  0.00217  1.0000
  H   H527      1.0  0.59470  0.19864  0.47860  1.0000
  H   H528      1.0  0.55537  0.01809  0.28757  1.0000
  C   C332      1.0  0.53698  0.03060  0.26770  1.0000
  H   H529      1.0  0.67215  0.07482  0.00136  1.0000
  H   H530      1.0  0.49594  0.03150  0.20817  1.0000
  H   H531      1.0  0.55780  0.41156  0.53905  1.0000
  H   H532      1.0  0.51121  0.37611  0.51439  1.0000
  H   H533      1.0  0.58676  0.32447  0.58036  1.0000
  C   C333      1.0  0.56275  0.32681  0.57114  1.0000
  H   H534      1.0  0.51343  0.36584  0.55351  1.0000
  N   N35       1.0  0.55196  0.35406  0.54553  1.0000
  H   H535      1.0  0.55951  0.40036  0.57781  1.0000
  H   H536      1.0  0.54711  0.49622  0.51221  1.0000
  H   H537      1.0  0.54965  0.31546  0.50842  1.0000
  H   H538      1.0  0.52447  0.00740  0.72360  1.0000
  C   C334      1.0  0.55968  0.34260  0.51878  1.0000
  S   S138      1.0  0.67030  0.01775  0.95700  1.0000
  H   H539      1.0  0.64770  0.00932  0.65005  1.0000
  C   C335      1.0  0.63485  0.15390  0.85289  1.0000
  H   H540      1.0  0.55713  0.33445  0.59165  1.0000
  C   C336      1.0  0.60217  0.20014  0.82183  1.0000
  H   H541      1.0  0.55217  0.36289  0.49926  1.0000
  H   H542      1.0  0.58354  0.34011  0.52642  1.0000
  C   C337      1.0  0.52008  0.35636  0.53419  1.0000
  C   C338      1.0  0.51056  0.45911  0.50135  1.0000
  C   C339      1.0  0.56528  0.39048  0.55794  1.0000
  H   H543      1.0  0.55326  0.29896  0.56242  1.0000
  H   H544      1.0  0.58934  0.38978  0.56691  1.0000
  H   H545      1.0  0.64526  0.17357  0.87322  1.0000
  H   H546      1.0  0.64065  0.20595  0.79432  1.0000
  H   H547      1.0  0.59172  0.13127  0.79824  1.0000
  S   S139      1.0  0.70489  0.31957  0.84934  1.0000
  Fe  Fe71      1.0  0.54110  0.23879  0.74600  1.0000
  S   S140      1.0  0.52403  0.25030  0.78383  1.0000
  S   S141      1.0  0.58383  0.25886  0.74370  1.0000
  H   H548      1.0  0.65833  0.21384  0.83644  1.0000
  Fe  Fe72      1.0  0.51782  0.18900  0.78376  1.0000
  S   S142      1.0  0.53362  0.15712  0.82942  1.0000
  S   S143      1.0  0.53704  0.17745  0.74816  1.0000
  C   C340      1.0  0.67164  0.30222  0.81948  1.0000
  C   C341      1.0  0.66903  0.29101  0.78903  1.0000
  C   C342      1.0  0.64200  0.27817  0.76618  1.0000
  C   C343      1.0  0.61726  0.27595  0.77344  1.0000
  C   C344      1.0  0.61993  0.28686  0.80397  1.0000
  C   C345      1.0  0.64690  0.29989  0.82674  1.0000
  H   H549      1.0  0.68773  0.29271  0.78295  1.0000
  H   H550      1.0  0.64027  0.26996  0.74266  1.0000
  H   H551      1.0  0.60112  0.28598  0.80988  1.0000
  H   H552      1.0  0.64854  0.30874  0.85009  1.0000
  C   C346      1.0  0.61033  0.14587  0.79586  1.0000
  C   C347      1.0  0.56721  0.04418  0.81572  1.0000
  C   C348      1.0  0.57518  0.05921  0.84646  1.0000
  C   C349      1.0  0.56453  0.09368  0.85076  1.0000
  C   C350      1.0  0.54607  0.11325  0.82437  1.0000
  C   C351      1.0  0.53817  0.09805  0.79382  1.0000
  C   C352      1.0  0.54878  0.06384  0.78951  1.0000
  H   H553      1.0  0.58944  0.04426  0.86686  1.0000
  H   H554      1.0  0.57072  0.10521  0.87452  1.0000
  H   H555      1.0  0.52358  0.11244  0.77340  1.0000
  H   H556      1.0  0.54257  0.05264  0.76568  1.0000
  H   H557      1.0  0.60192  0.15940  0.77225  1.0000
  H   H558      1.0  0.62601  0.12468  0.79550  1.0000
  H   H559      1.0  0.61177  0.22161  0.84079  1.0000
  H   H560      1.0  0.50931  0.32925  0.52507  1.0000
  H   H561      1.0  0.58383  0.18683  0.82562  1.0000
  H   H562      1.0  0.65119  0.13296  0.85392  1.0000
  H   H563      1.0  0.61692  0.13934  0.85679  1.0000
  H   H564      1.0  0.66547  0.17273  0.81868  1.0000
  H   H565      1.0  0.59289  0.21433  0.79863  1.0000
  C   C353      1.0  0.64820  0.19212  0.81776  1.0000
  N   N36       1.0  0.62393  0.17300  0.82210  1.0000
  C   C354      1.0  0.52829  0.48956  0.51716  1.0000
  S   S144      1.0  0.49655  0.24294  0.70584  1.0000
  H   H566      1.0  0.66655  0.00956  0.59341  1.0000
  S   S145      1.0  0.57932  0.00087  0.80879  1.0000
  C   C355      1.0  0.50539  0.49030  0.98792  1.0000
  H   H567      1.0  0.68089  0.02895  0.65061  1.0000
  H   H568      1.0  0.49361  0.21494  0.85719  1.0000
  C   C356      1.0  0.67052  0.00309  0.65403  1.0000
  H   H569      1.0  0.49366  0.49465  0.96269  1.0000
  Fe  Fe73      1.0  0.49146  0.18233  0.71210  1.0000
  H   H570      1.0  0.50490  0.58811  0.32736  1.0000
  H   H571      1.0  0.65837  0.91421  0.99954  1.0000
  C   C357      1.0  0.66862  0.64211  0.31220  1.0000
  S   S146      1.0  0.58115  0.95874  0.32850  1.0000
  Fe  Fe74      1.0  0.53558  0.76391  0.31730  1.0000
  S   S147      1.0  0.55542  0.76493  0.28118  1.0000
  H   H572      1.0  0.64212  0.77907  0.36843  1.0000
  Fe  Fe75      1.0  0.54795  0.70386  0.27840  1.0000
  S   S148      1.0  0.58148  0.66180  0.27824  1.0000
  H   H573      1.0  0.62456  0.82060  0.37233  1.0000
  H   H574      1.0  0.62960  0.55536  0.00066  1.0000
  C   C358      1.0  0.71055  0.99126  0.05108  1.0000
  H   H575      1.0  0.64916  0.95046  0.03976  1.0000
  C   C359      1.0  0.61976  0.66558  0.30062  1.0000
  H   H576      1.0  0.62517  0.86318  0.29905  1.0000
  H   H577      1.0  0.55843  0.52835  0.05355  1.0000
  H   H578      1.0  0.70108  0.96365  0.00569  1.0000
  H   H579      1.0  0.62900  0.61956  0.27617  1.0000
  H   H580      1.0  0.72175  0.96806  0.06492  1.0000
  H   H581      1.0  0.67165  0.71446  0.36106  1.0000
  H   H582      1.0  0.52687  0.61508  0.31240  1.0000
  C   C360      1.0  0.55541  0.89093  0.31507  1.0000
  H   H583      1.0  0.52927  0.56133  0.27928  1.0000
  H   H584      1.0  0.54634  0.89954  0.29055  1.0000
  C   C361      1.0  0.50208  0.99248  0.27785  1.0000
  H   H585      1.0  0.58919  0.91059  0.01196  1.0000
  H   H586      1.0  0.53003  0.97916  0.22204  1.0000
  C   C362      1.0  0.56212  0.84327  0.35385  1.0000
  H   H587      1.0  0.66888  0.60022  0.42198  1.0000
  C   C363      1.0  0.66244  0.69389  0.34233  1.0000
  H   H588      1.0  0.68244  0.62279  0.30700  1.0000
  H   H589      1.0  0.62020  0.77877  0.29606  1.0000
  H   H590      1.0  0.66805  0.55821  0.36249  1.0000
  C   C364      1.0  0.63824  0.64039  0.29468  1.0000
  C   C365      1.0  0.55012  0.85503  0.32236  1.0000
  Fe  Fe76      1.0  0.50925  0.76875  0.24583  1.0000
  N   N37       1.0  0.63829  0.81981  0.33330  1.0000
  H   H591      1.0  0.61438  0.97089  0.03063  1.0000
  H   H592      1.0  0.65699  0.77104  0.32276  1.0000
  H   H593      1.0  0.53699  0.83633  0.30350  1.0000
  S   S149      1.0  0.53039  0.70255  0.31658  1.0000
  H   H594      1.0  0.67159  0.60703  0.36973  1.0000
  H   H595      1.0  0.71120  0.63261  0.41843  1.0000
  C   C366      1.0  0.68079  0.57399  0.42475  1.0000
  C   C367      1.0  0.61776  0.84850  0.31576  1.0000
  H   H596      1.0  0.54055  0.95796  0.26018  1.0000
  C   C368      1.0  0.52234  0.97159  0.24090  1.0000
  C   C369      1.0  0.63025  0.96282  0.02041  1.0000
  H   H597      1.0  0.73706  0.60716  0.40914  1.0000
  C   C370      1.0  0.63212  0.69243  0.32459  1.0000
  H   H598      1.0  0.64924  0.58790  0.03185  1.0000
  H   H599      1.0  0.66440  0.55135  0.41521  1.0000
  H   H600      1.0  0.49222  0.63141  0.30920  1.0000
  H   H601      1.0  0.70081  0.51620  0.40234  1.0000
  C   C371      1.0  0.64340  0.58079  0.00626  1.0000
  H   H602      1.0  0.49065  0.61219  0.01321  1.0000
  S   S150      1.0  0.55748  0.79730  0.36247  1.0000
  S   S151      1.0  0.50308  0.70735  0.23874  1.0000
  C   C372      1.0  0.68094  0.66886  0.33626  1.0000
  C   C373      1.0  0.64128  0.79279  0.31039  1.0000
  H   H603      1.0  0.61825  0.71174  0.32973  1.0000
  H   H604      1.0  0.65249  0.65357  0.01895  1.0000
  C   C374      1.0  0.52679  0.51586  0.00619  1.0000
  H   H605      1.0  0.66527  0.85768  0.36977  1.0000
  H   H606      1.0  0.69840  0.58313  0.36062  1.0000
  C   C375      1.0  0.57285  0.91529  0.33922  1.0000
  C   C376      1.0  0.62727  0.80100  0.35483  1.0000
  H   H607      1.0  0.67577  0.85170  0.33680  1.0000
  H   H608      1.0  0.73169  0.53987  0.40062  1.0000
  H   H609      1.0  0.72898  0.53446  0.43812  1.0000
  S   S152      1.0  0.71896  0.67187  0.36021  1.0000
  H   H610      1.0  0.62374  0.88922  0.02168  1.0000
  H   H611      1.0  0.49640  0.53943  0.25210  1.0000
  C   C377      1.0  0.58451  0.90384  0.37086  1.0000
  C   C378      1.0  0.57909  0.86782  0.37817  1.0000
  H   H612      1.0  0.73547  0.60177  0.44722  1.0000
  H   H613      1.0  0.59803  0.92255  0.38960  1.0000
  H   H614      1.0  0.58839  0.85885  0.40259  1.0000
  H   H615      1.0  0.61533  0.86957  0.33237  1.0000
  H   H616      1.0  0.59581  0.83663  0.30154  1.0000
  C   C379      1.0  0.71610  0.53983  0.41243  1.0000
  C   C380      1.0  0.68391  0.58100  0.37374  1.0000
  H   H617      1.0  0.68295  0.81628  0.36589  1.0000
  N   N38       1.0  0.70068  0.57505  0.40808  1.0000
  H   H618      1.0  0.60564  0.78787  0.34138  1.0000
  C   C381      1.0  0.66685  0.83708  0.35228  1.0000
  H   H619      1.0  0.63826  0.98854  0.01341  1.0000
  H   H620      1.0  0.64907  0.80613  0.29340  1.0000
  H   H621      1.0  0.50450  0.95078  0.23043  1.0000
  C   C382      1.0  0.72197  0.60549  0.42143  1.0000
  H   H622      1.0  0.63570  0.94881  0.47956  1.0000
  H   H623      1.0  0.60554  0.62635  0.01516  1.0000
  C   C383      1.0  0.50646  0.55432  0.27547  1.0000
  S   S153      1.0  0.49419  0.80698  0.20395  1.0000
  C   C384      1.0  0.69872  0.98861  0.01749  1.0000
  H   H624      1.0  0.50719  0.53474  0.29429  1.0000
  H   H625      1.0  0.66379  0.57408  0.00334  1.0000
  C   C385      1.0  0.54187  0.50896  0.03896  1.0000
  C   C386      1.0  0.60600  0.90384  0.00270  1.0000
  C   C387      1.0  0.50419  0.60632  0.30770  1.0000
  H   H626      1.0  0.51954  0.97898  0.29807  1.0000
  H   H627      1.0  0.69285  0.56958  0.45074  1.0000
  H   H628      1.0  0.51240  0.62203  0.25490  1.0000
  H   H629      1.0  0.66583  0.69339  0.75266  1.0000
  H   H630      1.0  0.63026  0.90623  0.96076  1.0000
  H   H631      1.0  0.72229  0.93251  0.58038  1.0000
  H   H632      1.0  0.72290  0.85135  0.76617  1.0000
  N   N39       1.0  0.63057  0.77968  0.55982  1.0000
  Fe  Fe77      1.0  0.53744  0.65711  0.62029  1.0000
  H   H633      1.0  0.55046  0.95475  0.75439  1.0000
  C   C388      1.0  0.70323  0.93606  0.55869  1.0000
  C   C389      1.0  0.70257  0.96468  0.53786  1.0000
  C   C390      1.0  0.52199  0.51160  0.53933  1.0000
  C   C391      1.0  0.61394  0.74485  0.55573  1.0000
  H   H634      1.0  0.61293  0.65386  0.62886  1.0000
  H   H635      1.0  0.71493  0.95859  0.66367  1.0000
  H   H636      1.0  0.63646  0.89872  0.51636  1.0000
  S   S154      1.0  0.54934  0.60115  0.64182  1.0000
  S   S155      1.0  0.67816  0.87668  0.57724  1.0000
  H   H637      1.0  0.61563  0.73410  0.57907  1.0000
  C   C392      1.0  0.65509  0.91695  0.52248  1.0000
  C   C393      1.0  0.61012  0.74633  0.63853  1.0000
  H   H638      1.0  0.71341  0.99089  0.63358  1.0000
  C   C394      1.0  0.62849  0.79252  0.52844  1.0000
  H   H639      1.0  0.63511  0.94396  0.63378  1.0000
  H   H640      1.0  0.67457  0.79916  0.58366  1.0000
  H   H641      1.0  0.64081  0.81887  0.53084  1.0000
  H   H642      1.0  0.58607  0.59454  0.98329  1.0000
  C   C395      1.0  0.61857  0.80784  0.57458  1.0000
  C   C396      1.0  0.66132  0.77362  0.58058  1.0000
  H   H643      1.0  0.59532  0.81286  0.55968  1.0000
  C   C397      1.0  0.63997  0.75468  0.65245  1.0000
  H   H644      1.0  0.62011  0.79938  0.59844  1.0000
  C   C398      1.0  0.67940  0.91209  0.55118  1.0000
  C   C399      1.0  0.50578  0.98868  0.71027  1.0000
  C   C400      1.0  0.65022  0.69023  0.64990  1.0000
  H   H645      1.0  0.71309  0.84031  0.81455  1.0000
  H   H646      1.0  0.62206  0.72312  0.54416  1.0000
  H   H647      1.0  0.58272  0.93699  0.94610  1.0000
  H   H648      1.0  0.66392  0.76477  0.60475  1.0000
  N   N40       1.0  0.61709  0.93721  0.99287  1.0000
  H   H649      1.0  0.53636  0.62920  0.83057  1.0000
  C   C401      1.0  0.62036  0.68186  0.63603  1.0000
  C   C402      1.0  0.59292  0.95546  0.96742  1.0000
  H   H650      1.0  0.53593  0.53479  0.55111  1.0000
  H   H651      1.0  0.67100  0.75207  0.57054  1.0000
  Fe  Fe78      1.0  0.71010  0.85876  0.62648  1.0000
  S   S156      1.0  0.56302  0.70153  0.60804  1.0000
  C   C403      1.0  0.60024  0.70998  0.63004  1.0000
  H   H652      1.0  0.66575  0.66848  0.65380  1.0000
  H   H653      1.0  0.59460  0.76820  0.63380  1.0000
  S   S157      1.0  0.51763  0.67541  0.65399  1.0000
  C   C404      1.0  0.49787  0.50343  0.54633  1.0000
  C   C405      1.0  0.67830  0.96954  0.50910  1.0000
  H   H654      1.0  0.70428  0.94344  0.62293  1.0000
  C   C406      1.0  0.66010  0.72672  0.65762  1.0000
  Fe  Fe79      1.0  0.71429  0.79403  0.67084  1.0000
  C   C407      1.0  0.65454  0.94539  0.50151  1.0000
  H   H655      1.0  0.50829  0.97883  0.68839  1.0000
  S   S158      1.0  0.68736  0.84459  0.65864  1.0000
  H   H656      1.0  0.64739  0.78277  0.65888  1.0000
  C   C408      1.0  0.70250  0.96632  0.63842  1.0000
  H   H657      1.0  0.59047  0.74848  0.54087  1.0000
  H   H658      1.0  0.60607  0.72340  0.74130  1.0000
  H   H659      1.0  0.59223  0.68287  0.75299  1.0000
  Fe  Fe80      1.0  0.65526  0.97172  0.91901  1.0000
  S   S159      1.0  0.60679  0.96479  0.89756  1.0000
  Fe  Fe81      1.0  0.66125  0.91805  0.86919  1.0000
  S   S160      1.0  0.61308  0.90775  0.84529  1.0000
  S   S161      1.0  0.69019  0.88511  0.85089  1.0000
  Fe  Fe82      1.0  0.60995  0.96890  0.85043  1.0000
  Fe  Fe83      1.0  0.61438  0.90422  0.89487  1.0000
  S   S162      1.0  0.58430  0.86885  0.90992  1.0000
  S   S163      1.0  0.65797  0.97962  0.87123  1.0000
  S   S164      1.0  0.66298  0.91066  0.91923  1.0000
  S   S165      1.0  0.54605  0.62061  0.72780  1.0000
  S   S166      1.0  0.52663  0.65335  0.95777  1.0000
  H   H660      1.0  0.60530  0.65137  0.68253  1.0000
  S   S167      1.0  0.54303  0.60099  0.91009  1.0000
  S   S168      1.0  0.49482  0.63805  0.58235  1.0000
  Fe  Fe84      1.0  0.52118  0.59293  0.94460  1.0000
  N   N41       1.0  0.62195  0.67244  0.73069  1.0000
  Fe  Fe85      1.0  0.54426  0.66196  0.92043  1.0000
  S   S169      1.0  0.58517  0.69495  0.92739  1.0000
  H   H661      1.0  0.57876  0.65645  0.69909  1.0000
  Fe  Fe86      1.0  0.52613  0.61848  0.67336  1.0000
  H   H662      1.0  0.60558  0.79740  0.51210  1.0000
  C   C409      1.0  0.62913  0.63548  0.74445  1.0000
  C   C410      1.0  0.52653  0.61887  0.80625  1.0000
  H   H663      1.0  0.64308  0.71736  0.71769  1.0000
  H   H664      1.0  0.60664  0.57572  0.94459  1.0000
  H   H665      1.0  0.65884  0.91671  0.62186  1.0000
  C   C411      1.0  0.58450  0.82021  0.91287  1.0000
  C   C412      1.0  0.56063  0.80226  0.91549  1.0000
  C   C413      1.0  0.56025  0.76387  0.91911  1.0000
  C   C414      1.0  0.58405  0.74305  0.92080  1.0000
  C   C415      1.0  0.60798  0.76098  0.91825  1.0000
  C   C416      1.0  0.60812  0.79933  0.91401  1.0000
  H   H666      1.0  0.54231  0.81814  0.91477  1.0000
  H   H667      1.0  0.54176  0.75051  0.92120  1.0000
  H   H668      1.0  0.62651  0.74517  0.91956  1.0000
  H   H669      1.0  0.62668  0.81277  0.91215  1.0000
  C   C417      1.0  0.69560  0.89393  0.81544  1.0000
  C   C418      1.0  0.70787  0.86652  0.80289  1.0000
  Fe  Fe87      1.0  0.49864  0.61256  0.87295  1.0000
  H   H670      1.0  0.63663  0.61731  0.72955  1.0000
  H   H671      1.0  0.50808  0.73481  0.74823  1.0000
  S   S170      1.0  0.73426  0.80544  0.63568  1.0000
  H   H672      1.0  0.69064  0.96084  0.76203  1.0000
  H   H673      1.0  0.64658  0.63687  0.76887  1.0000
  H   H674      1.0  0.56078  0.63983  0.79354  1.0000
  C   C419      1.0  0.50145  0.59229  0.74303  1.0000
  C   C420      1.0  0.63918  0.92666  0.98071  1.0000
  C   C421      1.0  0.61183  0.69536  0.75107  1.0000
  H   H675      1.0  0.63051  0.83452  0.57785  1.0000
  C   C422      1.0  0.50024  0.59917  0.79596  1.0000
  N   N42       1.0  0.50412  0.95774  0.73014  1.0000
  C   C423      1.0  0.59870  0.66908  0.69843  1.0000
  C   C424      1.0  0.71348  0.87275  0.77545  1.0000
  S   S171      1.0  0.71610  0.91673  0.72736  1.0000
  H   H676      1.0  0.63753  0.77214  0.51664  1.0000
  H   H677      1.0  0.72112  0.98308  0.54388  1.0000
  C   C425      1.0  0.64793  0.68976  0.72870  1.0000
  N   N43       1.0  0.62810  0.61121  0.98547  1.0000
  Fe  Fe88      1.0  0.50501  0.58280  0.60558  1.0000
  H   H678      1.0  0.65676  0.96254  0.58185  1.0000
  H   H679      1.0  0.62881  0.69850  0.77568  1.0000
  H   H680      1.0  0.60988  0.62167  0.74616  1.0000
  C   C426      1.0  0.52785  0.61176  0.75342  1.0000
  H   H681      1.0  0.65634  0.67285  0.71384  1.0000
  C   C427      1.0  0.54031  0.62490  0.78514  1.0000
  C   C428      1.0  0.50005  0.97225  0.75843  1.0000
  C   C429      1.0  0.68904  0.92778  0.80020  1.0000
  C   C430      1.0  0.70746  0.90685  0.76063  1.0000
  H   H682      1.0  0.60934  0.62303  0.93545  1.0000
  H   H683      1.0  0.59595  0.88412  0.98220  1.0000
  Fe  Fe89      1.0  0.72525  0.87175  0.69785  1.0000
  H   H684      1.0  0.67979  0.94919  0.80971  1.0000
  C   C431      1.0  0.69525  0.93430  0.77316  1.0000
  H   H685      1.0  0.49858  0.94980  0.77401  1.0000
  H   H686      1.0  0.59272  0.69634  0.68710  1.0000
  C   C432      1.0  0.53132  0.93687  0.74059  1.0000
  S   S172      1.0  0.69760  0.73645  0.67288  1.0000
  S   S173      1.0  0.50090  0.67365  0.88201  1.0000
  H   H687      1.0  0.57568  0.96359  0.97559  1.0000
  H   H688      1.0  0.50645  0.72523  0.70881  1.0000
  C   C433      1.0  0.50191  0.71360  0.72882  1.0000
  H   H689      1.0  0.60059  0.98079  0.95945  1.0000
  H   H690      1.0  0.51835  0.99074  0.77317  1.0000
  H   H691      1.0  0.53495  0.92504  0.71994  1.0000
  H   H692      1.0  0.58935  0.64210  0.97507  1.0000
  N   N44       1.0  0.67187  0.97345  0.63227  1.0000
  H   H693      1.0  0.51654  0.68985  0.73805  1.0000
  H   H694      1.0  0.66959  0.93025  0.66294  1.0000
  H   H695      1.0  0.64698  0.95086  0.97156  1.0000
  C   C434      1.0  0.62094  0.60067  0.95181  1.0000
  C   C435      1.0  0.65821  0.93962  0.63795  1.0000
  H   H696      1.0  0.53114  0.91392  0.75637  1.0000
  H   H697      1.0  0.64078  0.59483  0.94747  1.0000
  H   H698      1.0  0.63589  0.66798  0.97840  1.0000
  H   H699      1.0  0.49177  0.58154  0.71885  1.0000
  S   S174      1.0  0.53564  0.55674  0.98973  1.0000
  C   C436      1.0  0.65641  0.98460  0.59881  1.0000
  H   H700      1.0  0.63328  0.99068  0.59332  1.0000
  C   C437      1.0  0.60111  0.61883  0.98997  1.0000
  H   H701      1.0  0.66746  0.63991  0.99069  1.0000
  C   C438      1.0  0.64687  0.64456  0.99381  1.0000
  H   H702      1.0  0.68192  0.99525  0.67947  1.0000
  Fe  Fe90      1.0  0.76528  0.13761  0.18243  1.0000
  S   S175      1.0  0.76057  0.07758  0.19112  1.0000
  S   S176      1.0  0.80701  0.16553  0.18316  1.0000
  H   H703      1.0  0.85451  0.26640  0.19937  1.0000
  H   H704      1.0  0.92273  0.24174  0.00274  1.0000
  C   C439      1.0  0.88348  0.32996  0.20163  1.0000
  S   S177      1.0  0.98126  0.26251  0.27397  1.0000
  H   H705      1.0  0.86797  0.37652  0.03259  1.0000
  C   C440      1.0  0.86846  0.27733  0.22357  1.0000
  C   C441      1.0  0.97348  0.35116  0.23130  1.0000
  C   C442      1.0  0.91130  0.27445  0.21214  1.0000
  H   H706      1.0  0.85463  0.29451  0.23204  1.0000
  S   S178      1.0  0.94293  0.16583  0.27326  1.0000
  H   H707      1.0  0.89845  0.26256  0.18801  1.0000
  H   H708      1.0  0.85731  0.19187  0.17447  1.0000
  S   S179      1.0  0.93366  0.44898  0.22042  1.0000
  H   H709      1.0  0.87248  0.42825  0.07042  1.0000
  C   C443      1.0  0.96740  0.33923  0.20010  1.0000
  C   C444      1.0  0.95109  0.36163  0.17464  1.0000
  C   C445      1.0  0.94074  0.39565  0.18040  1.0000
  C   C446      1.0  0.94656  0.40720  0.21167  1.0000
  C   C447      1.0  0.96295  0.38485  0.23704  1.0000
  H   H710      1.0  0.93086  0.32805  0.25653  1.0000
  H   H711      1.0  0.94631  0.35256  0.15042  1.0000
  H   H712      1.0  0.92811  0.41274  0.16067  1.0000
  H   H713      1.0  0.87013  0.34892  0.20931  1.0000
  C   C448      1.0  0.91146  0.31237  0.25586  1.0000
  H   H714      1.0  0.89896  0.33105  0.26496  1.0000
  C   C449      1.0  0.84469  0.16404  0.20846  1.0000
  C   C450      1.0  0.85501  0.14825  0.23861  1.0000
  C   C451      1.0  0.88505  0.14904  0.25804  1.0000
  C   C452      1.0  0.90522  0.16543  0.24764  1.0000
  C   C453      1.0  0.89494  0.18027  0.21712  1.0000
  C   C454      1.0  0.86491  0.17996  0.19787  1.0000
  H   H715      1.0  0.83985  0.13584  0.24717  1.0000
  H   H716      1.0  0.89266  0.13705  0.28142  1.0000
  H   H717      1.0  0.91018  0.19137  0.20810  1.0000
  H   H718      1.0  0.76576  0.04810  0.07438  1.0000
  C   C455      1.0  0.84252  0.46263  0.03486  1.0000
  C   C456      1.0  0.85833  0.43054  0.04552  1.0000
  N   N45       1.0  0.89363  0.29856  0.22329  1.0000
  H   H719      1.0  0.82325  0.13295  0.13127  1.0000
  C   C457      1.0  0.79632  0.07038  0.13482  1.0000
  H   H720      1.0  0.97331  0.08517  0.25669  1.0000
  H   H721      1.0  0.87550  0.25322  0.23951  1.0000
  H   H722      1.0  0.77813  0.08235  0.13944  1.0000
  H   H723      1.0  0.90207  0.34643  0.20097  1.0000
  H   H724      1.0  0.91943  0.28939  0.27288  1.0000
  N   N46       1.0  0.79788  0.08592  0.10584  1.0000
  H   H725      1.0  0.79241  0.04008  0.13244  1.0000
  C   C458      1.0  0.82201  0.06896  0.10009  1.0000
  H   H726      1.0  0.77042  0.08959  0.05589  1.0000
  C   C459      1.0  0.80285  0.12610  0.11028  1.0000
  Fe  Fe91      1.0  0.90931  0.48949  0.18222  1.0000
  H   H727      1.0  0.75159  0.09030  0.08208  1.0000
  H   H728      1.0  0.80424  0.13891  0.08897  1.0000
  H   H729      1.0  0.90240  0.28605  0.03075  1.0000
  H   H730      1.0  0.84312  0.07425  0.12052  1.0000
  H   H731      1.0  0.86962  0.25869  0.01886  1.0000
  C   C460      1.0  0.77028  0.07820  0.07829  1.0000
  H   H732      1.0  0.93002  0.28968  0.21077  1.0000
  C   C461      1.0  0.85571  0.40116  0.02393  1.0000
  H   H733      1.0  0.92027  0.25135  0.22868  1.0000
  Fe  Fe92      1.0  0.98038  0.20079  0.27111  1.0000
  H   H734      1.0  0.78498  0.13967  0.11472  1.0000
  H   H735      1.0  0.87013  0.32058  0.17677  1.0000
  H   H736      1.0  0.86785  0.30644  0.00905  1.0000
  H   H737      1.0  0.82378  0.07999  0.07832  1.0000
  H   H738      1.0  0.81648  0.07625  0.15637  1.0000
  C   C462      1.0  0.88067  0.28099  0.01128  1.0000
  S   S180      1.0  0.86064  0.49151  0.15621  1.0000
  H   H739      1.0  0.96759  0.39361  0.26131  1.0000
  S   S181      1.0  0.97863  0.29562  0.19254  1.0000
  H   H740      1.0  0.81884  0.03861  0.09673  1.0000
  C   C463      1.0  0.82427  0.46490  0.00228  1.0000
  H   H741      1.0  0.98634  0.33448  0.25109  1.0000
  Fe  Fe93      1.0  0.88325  0.43682  0.61525  1.0000
  S   S182      1.0  0.93020  0.44356  0.64860  1.0000
  S   S183      1.0  0.87655  0.44952  0.56377  1.0000
  H   H742      1.0  0.88880  0.28519  0.54760  1.0000
  H   H743      1.0  0.88481  0.32784  0.96814  1.0000
  H   H744      1.0  0.81185  0.48947  0.99365  1.0000
  H   H745      1.0  0.94156  0.38172  0.58467  1.0000
  H   H746      1.0  0.85427  0.25833  0.93242  1.0000
  C   C464      1.0  0.92793  0.32935  0.53806  1.0000
  S   S184      1.0  0.86651  0.46109  0.65041  1.0000
  S   S185      1.0  0.88055  0.37833  0.63018  1.0000
  H   H747      1.0  0.89437  0.30355  0.58627  1.0000
  S   S186      1.0  0.96054  0.18591  0.62450  1.0000
  H   H748      1.0  0.87065  0.28442  0.75368  1.0000
  N   N47       1.0  0.91393  0.33559  0.56063  1.0000
  H   H749      1.0  0.95463  0.33763  0.60154  1.0000
  C   C465      1.0  0.85296  0.48000  0.53535  1.0000
  C   C466      1.0  0.96296  0.23069  0.64125  1.0000
  C   C467      1.0  0.93731  0.24834  0.63847  1.0000
  C   C468      1.0  0.93797  0.28486  0.64944  1.0000
  H   H750      1.0  0.89018  0.21415  0.99204  1.0000
  C   C469      1.0  0.88832  0.35895  0.54572  1.0000
  H   H751      1.0  0.91677  0.23368  0.62761  1.0000
  N   N48       1.0  0.88300  0.27143  0.98087  1.0000
  C   C470      1.0  0.93478  0.35415  0.58980  1.0000
  H   H752      1.0  0.92522  0.35846  0.60769  1.0000
  H   H753      1.0  0.87177  0.34562  0.52400  1.0000
  C   C471      1.0  0.90473  0.29990  0.56895  1.0000
  C   C472      1.0  0.90019  0.23773  0.98463  1.0000
  H   H754      1.0  0.93526  0.35575  0.53141  1.0000
  C   C473      1.0  0.82164  0.43552  0.98068  1.0000
  Fe  Fe94      1.0  0.92652  0.38676  0.66537  1.0000
  H   H755      1.0  0.91808  0.29805  0.64723  1.0000
  C   C474      1.0  0.96434  0.30418  0.66315  1.0000
  H   H756      1.0  0.94728  0.31164  0.54862  1.0000
  C   C475      1.0  0.85855  0.29939  0.76578  1.0000
  Fe  Fe95      1.0  0.80899  0.28714  0.86700  1.0000
  S   S187      1.0  0.83645  0.33798  0.88364  1.0000
  S   S188      1.0  0.82702  0.23134  0.86257  1.0000
  Fe  Fe96      1.0  0.80177  0.36415  0.84161  1.0000
  S   S189      1.0  0.82111  0.40111  0.81468  1.0000
  Fe  Fe97      1.0  0.80976  0.35228  0.91172  1.0000
  S   S190      1.0  0.83488  0.36499  0.96546  1.0000
  S   S191      1.0  0.77532  0.31212  0.82339  1.0000
  S   S192      1.0  0.78458  0.29859  0.89786  1.0000
  C   C476      1.0  0.82990  0.49713  0.53957  1.0000
  S   S193      1.0  0.96088  0.19761  0.93168  1.0000
  C   C477      1.0  0.89745  0.30212  0.97170  1.0000
  H   H757      1.0  0.85589  0.33288  0.81769  1.0000
  C   C478      1.0  0.85719  0.48639  0.50716  1.0000
  H   H758      1.0  0.79309  0.34659  0.70652  1.0000
  H   H759      1.0  0.89985  0.29593  0.94906  1.0000
  H   H760      1.0  0.84214  0.24185  0.96183  1.0000
  S   S194      1.0  0.96603  0.35096  0.67525  1.0000
  S   S195      1.0  0.91382  0.40744  0.70442  1.0000
  H   H761      1.0  0.86048  0.22726  0.77790  1.0000
  H   H762      1.0  0.87764  0.36504  0.56241  1.0000
  H   H763      1.0  0.84003  0.28975  0.95274  1.0000
  S   S196      1.0  0.97639  0.08741  0.81957  1.0000
  C   C479      1.0  0.82413  0.39314  0.77763  1.0000
  C   C480      1.0  0.84584  0.41209  0.77143  1.0000
  C   C481      1.0  0.84890  0.40708  0.74227  1.0000
  C   C482      1.0  0.82993  0.38343  0.71866  1.0000
  C   C483      1.0  0.80804  0.36469  0.72472  1.0000
  C   C484      1.0  0.80528  0.36923  0.75413  1.0000
  H   H764      1.0  0.86037  0.43090  0.78930  1.0000
  H   H765      1.0  0.86574  0.42186  0.73793  1.0000
  H   H766      1.0  0.85879  0.16498  0.86683  1.0000
  C   C485      1.0  0.86459  0.22273  0.87925  1.0000
  C   C486      1.0  0.88486  0.25088  0.89371  1.0000
  C   C487      1.0  0.91448  0.24291  0.90861  1.0000
  C   C488      1.0  0.92416  0.20686  0.90866  1.0000
  C   C489      1.0  0.90408  0.17895  0.89280  1.0000
  C   C490      1.0  0.87433  0.18689  0.87824  1.0000
  H   H767      1.0  0.87769  0.27869  0.89384  1.0000
  H   H768      1.0  0.93002  0.26462  0.92061  1.0000
  H   H769      1.0  0.91134  0.15104  0.89283  1.0000
  H   H770      1.0  0.80737  0.43771  0.95580  1.0000
  H   H771      1.0  0.82609  0.24466  0.77497  1.0000
  S   S197      1.0  0.77667  0.38254  0.87091  1.0000
  Fe  Fe98      1.0  0.91340  0.46355  0.68437  1.0000
  H   H772      1.0  0.83536  0.29949  0.74897  1.0000
  H   H773      1.0  0.82336  0.30657  0.79663  1.0000
  C   C491      1.0  0.89329  0.28112  0.81724  1.0000
  H   H774      1.0  0.85236  0.23085  0.81270  1.0000
  H   H775      1.0  0.90554  0.26483  0.80608  1.0000
  H   H776      1.0  0.90319  0.30923  0.82261  1.0000
  H   H777      1.0  0.84845  0.29181  0.83466  1.0000
  H   H778      1.0  0.89439  0.38591  0.53866  1.0000
  H   H779      1.0  0.96960  0.46121  0.77183  1.0000
  H   H780      1.0  0.86644  0.32852  0.76938  1.0000
  N   N49       1.0  0.86212  0.28237  0.79627  1.0000
  C   C492      1.0  0.84975  0.24461  0.79012  1.0000
  H   H781      1.0  0.78814  0.35497  0.75828  1.0000
  Fe  Fe99      1.0  0.86792  0.40325  0.66850  1.0000
  S   S198      1.0  0.83307  0.37601  0.68161  1.0000
  H   H782      1.0  0.95900  0.10042  0.75283  1.0000
  H   H783      1.0  0.89675  0.26815  0.84035  1.0000
  C   C493      1.0  0.84684  0.30436  0.81201  1.0000
  H   H784      1.0  0.92354  0.28145  0.57999  1.0000
  H   H785      1.0  0.90179  0.22936  0.96187  1.0000
  C   C494      1.0  0.85363  0.26502  0.95591  1.0000
  Fe  Fe100     1.0  0.75248  0.32776  0.85549  1.0000
  Fe  Fe101     1.0  0.98592  0.15105  0.92133  1.0000
  S   S199      1.0  0.97619  0.09097  0.90775  1.0000
  C   C495      1.0  0.83730  0.40333  0.99137  1.0000
  C   C496      1.0  0.97986  0.08726  0.76100  1.0000
  H   H786      1.0  0.97892  0.45191  0.72300  1.0000
  H   H787      1.0  0.91277  0.31546  0.51573  1.0000
  H   H788      1.0  0.91949  0.30806  0.99023  1.0000
  H   H789      1.0  0.87486  0.47314  0.50355  1.0000
  H   H790      1.0  0.98107  0.01426  0.98191  1.0000
  H   H791      1.0  0.98170  0.08741  0.71448  1.0000
  H   H792      1.0  0.98498  0.41730  0.78579  1.0000
  H   H793      1.0  0.82627  0.49234  0.56103  1.0000
  S   S200      1.0  0.98774  0.08504  0.63073  1.0000
  C   C497      1.0  0.99008  0.28634  0.66650  1.0000
  C   C498      1.0  0.98943  0.24974  0.65567  1.0000
  H   H794      1.0  0.85594  0.52446  0.23905  1.0000
  Fe  Fe102     1.0  0.98958  0.80115  0.11896  1.0000
  H   H795      1.0  0.87740  0.57723  0.33846  1.0000
  C   C499      1.0  0.90894  0.87862  0.41211  1.0000
  Fe  Fe103     1.0  0.91950  0.56351  0.15714  1.0000
  S   S201      1.0  0.87191  0.57091  0.12970  1.0000
  S   S202      1.0  0.95695  0.60121  0.15984  1.0000
  Fe  Fe104     1.0  0.86616  0.55062  0.17337  1.0000
  S   S203      1.0  0.83802  0.58377  0.19274  1.0000
  H   H796      1.0  0.95335  0.73226  0.22623  1.0000
  H   H797      1.0  0.92578  0.71058  0.45100  1.0000
  S   S204      1.0  0.91404  0.54737  0.20161  1.0000
  Fe  Fe105     1.0  0.87054  0.51114  0.11467  1.0000
  H   H798      1.0  0.79710  0.61198  0.27195  1.0000
  S   S205      1.0  0.94940  0.76640  0.11228  1.0000
  H   H799      1.0  0.96319  0.85686  0.44638  1.0000
  H   H800      1.0  0.89213  0.89970  0.40140  1.0000
  H   H801      1.0  0.97146  0.51793  0.26127  1.0000
  H   H802      1.0  0.86090  0.64848  0.36299  1.0000
  C   C500      1.0  0.98951  0.97371  0.01890  1.0000
  C   C501      1.0  0.95403  0.64702  0.14627  1.0000
  C   C502      1.0  0.92746  0.66498  0.13353  1.0000
  C   C503      1.0  0.92630  0.70143  0.12295  1.0000
  C   C504      1.0  0.95163  0.72025  0.12506  1.0000
  C   C505      1.0  0.97813  0.70223  0.13782  1.0000
  C   C506      1.0  0.97929  0.66586  0.14835  1.0000
  H   H803      1.0  0.90788  0.65094  0.13209  1.0000
  H   H804      1.0  0.90570  0.71519  0.11323  1.0000
  H   H805      1.0  0.91363  0.66134  0.38468  1.0000
  C   C507      1.0  0.94046  0.79247  0.19008  1.0000
  C   C508      1.0  0.82108  0.56177  0.28325  1.0000
  C   C509      1.0  0.83767  0.53724  0.27363  1.0000
  C   C510      1.0  0.84331  0.54373  0.24624  1.0000
  C   C511      1.0  0.83210  0.57471  0.22786  1.0000
  C   C512      1.0  0.81560  0.59936  0.23755  1.0000
  C   C513      1.0  0.81017  0.59304  0.26513  1.0000
  S   S206      1.0  0.84486  0.50080  0.06087  1.0000
  H   H806      1.0  0.93495  0.77839  0.16657  1.0000
  H   H807      1.0  0.80671  0.62332  0.22343  1.0000
  C   C514      1.0  0.83855  0.50936  0.48336  1.0000
  N   N50       1.0  0.96938  0.78181  0.21327  1.0000
  H   H808      1.0  0.89803  0.63772  0.02566  1.0000
  N   N51       1.0  0.89292  0.58786  0.04783  1.0000
  H   H809      1.0  0.91575  0.58670  0.35440  1.0000
  H   H810      1.0  0.88105  0.61115  0.47122  1.0000
  N   N52       1.0  0.88909  0.63443  0.33964  1.0000
  C   C515      1.0  0.88179  0.56591  0.01781  1.0000
  H   H811      1.0  0.89815  0.54006  0.07648  1.0000
  C   C516      1.0  0.98794  0.52311  0.25110  1.0000
  H   H812      1.0  0.92243  0.87750  0.39782  1.0000
  C   C517      1.0  0.91085  0.61908  0.04514  1.0000
  H   H813      1.0  0.91979  0.63581  0.06768  1.0000
  H   H814      1.0  0.85441  0.57911  0.05673  1.0000
  H   H815      1.0  0.89494  0.59705  0.37767  1.0000
  H   H816      1.0  0.84294  0.62806  0.32410  1.0000
  S   S207      1.0  0.81479  0.55190  0.31803  1.0000
  C   C518      1.0  0.89463  0.59723  0.35318  1.0000
  H   H817      1.0  0.85413  0.61963  0.03469  1.0000
  C   C519      1.0  0.86092  0.64708  0.33867  1.0000
  N   N53       1.0  0.92680  0.88700  0.44610  1.0000
  C   C520      1.0  0.91232  0.66013  0.35978  1.0000
  H   H818      1.0  0.90931  0.62412  0.30677  1.0000
  S   S208      1.0  0.79543  0.64964  0.34883  1.0000
  H   H819      1.0  0.84609  0.51286  0.28734  1.0000
  C   C521      1.0  0.87125  0.59635  0.48582  1.0000
  S   S209      1.0  0.97812  0.87850  0.39058  1.0000
  H   H820      1.0  0.91885  0.57964  0.09743  1.0000
  H   H821      1.0  0.96251  0.86334  0.48476  1.0000
  H   H822      1.0  0.93812  0.83032  0.45674  1.0000
  C   C522      1.0  0.88831  0.63326  0.30696  1.0000
  C   C523      1.0  0.94189  0.92286  0.44915  1.0000
  H   H823      1.0  0.96685  0.97019  0.01461  1.0000
  H   H824      1.0  0.93394  0.65181  0.36085  1.0000
  C   C524      1.0  0.81521  0.52597  0.48735  1.0000
  Fe  Fe106     1.0  0.79555  0.58157  0.41532  1.0000
  S   S210      1.0  0.79155  0.64258  0.41811  1.0000
  S   S211      1.0  0.79078  0.55486  0.45804  1.0000
  Fe  Fe107     1.0  0.82678  0.64748  0.40017  1.0000
  H   H825      1.0  0.89635  0.86171  0.46224  1.0000
  S   S212      1.0  0.83291  0.58667  0.40058  1.0000
  C   C525      1.0  0.96991  0.74155  0.21733  1.0000
  Fe  Fe108     1.0  0.96944  0.81773  0.38963  1.0000
  S   S213      1.0  0.92197  0.80052  0.36998  1.0000
  H   H826      1.0  0.88357  0.66071  0.29574  1.0000
  C   C526      1.0  0.91080  0.56434  0.07426  1.0000
  H   H827      1.0  0.90846  0.68866  0.35059  1.0000
  H   H828      1.0  0.92315  0.78524  0.19850  1.0000
  H   H829      1.0  0.98759  0.77887  0.17805  1.0000
  C   C527      1.0  0.86825  0.60200  0.05427  1.0000
  C   C528      1.0  0.88353  0.71144  0.41238  1.0000
  C   C529      1.0  0.86670  0.72732  0.38334  1.0000
  C   C530      1.0  0.87887  0.75451  0.37061  1.0000
  C   C531      1.0  0.90796  0.76578  0.38666  1.0000
  C   C532      1.0  0.92488  0.74972  0.41560  1.0000
  C   C533      1.0  0.91261  0.72278  0.42851  1.0000
  C   C534      1.0  0.94850  0.85801  0.45915  1.0000
  S   S214      1.0  0.76245  0.57716  0.36458  1.0000
  H   H830      1.0  0.94733  0.75820  0.42812  1.0000
  H   H831      1.0  0.87124  0.61375  0.29128  1.0000
  H   H832      1.0  0.85572  0.67490  0.32827  1.0000
  S   S215      1.0  0.86910  0.67721  0.42914  1.0000
  Fe  Fe109     1.0  0.80004  0.58798  0.34987  1.0000
  H   H833      1.0  0.92633  0.94548  0.43914  1.0000
  H   H834      1.0  0.95686  0.92247  0.43654  1.0000
  H   H835      1.0  0.93956  0.82258  0.18580  1.0000
  H   H836      1.0  0.92962  0.60943  0.04016  1.0000
  H   H837      1.0  0.84418  0.71910  0.37091  1.0000
  Fe  Fe110     1.0  0.75981  0.63888  0.36679  1.0000
  H   H838      1.0  0.86564  0.76703  0.34828  1.0000
  H   H839      1.0  0.87585  0.61870  0.07676  1.0000
  H   H840      1.0  0.89978  0.55438  0.01236  1.0000
  H   H841      1.0  0.89776  0.85133  0.40886  1.0000
  H   H842      1.0  0.93004  0.55384  0.07071  1.0000
  C   C535      1.0  0.97560  0.80056  0.24423  1.0000
  H   H843      1.0  0.95965  0.79255  0.25443  1.0000
  H   H844      1.0  0.86809  0.54221  0.01928  1.0000
  H   H845      1.0  0.89141  0.91011  0.45489  1.0000
  C   C536      1.0  0.90800  0.88840  0.46405  1.0000
  H   H846      1.0  0.97480  0.83097  0.24180  1.0000
  H   H847      1.0  0.84771  0.59246  0.47087  1.0000
  H   H848      1.0  0.96532  0.72666  0.19433  1.0000
  H   H849      1.0  0.87388  0.66984  0.49447  1.0000
  H   H850      1.0  0.92088  0.89456  0.48981  1.0000
  H   H851      1.0  0.95540  0.93005  0.47456  1.0000
  H   H852      1.0  0.88092  0.56856  0.49078  1.0000
  H   H853      1.0  0.84191  0.51355  0.46167  1.0000
  H   H854      1.0  0.83971  0.65205  0.49212  1.0000
  S   S216      1.0  0.91895  0.50503  0.13997  1.0000
  H   H855      1.0  0.97809  0.51333  0.22578  1.0000
  H   H856      1.0  0.86818  0.58267  0.99724  1.0000
  C   C537      1.0  0.86158  0.59688  0.53347  1.0000
  H   H857      1.0  0.83901  0.88638  0.74173  1.0000
  C   C538      1.0  0.84048  0.92555  0.79283  1.0000
  H   H858      1.0  0.83770  0.59458  0.51960  1.0000
  H   H859      1.0  0.83384  0.95263  0.78131  1.0000
  H   H860      1.0  0.81352  0.83801  0.77898  1.0000
  H   H861      1.0  0.94262  0.60331  0.64983  1.0000
  H   H862      1.0  0.85066  0.85304  0.79194  1.0000
  C   C539      1.0  0.79057  0.90490  0.77490  1.0000
  H   H863      1.0  0.86982  0.56836  0.53887  1.0000
  H   H864      1.0  0.80214  0.87115  0.72860  1.0000
  H   H865      1.0  0.92567  0.54249  0.66108  1.0000
  H   H866      1.0  0.79302  0.53236  0.51895  1.0000
  H   H867      1.0  0.86587  0.67001  0.52945  1.0000
  C   C540      1.0  0.90732  0.62048  0.53520  1.0000
  H   H868      1.0  0.85514  0.66847  0.72960  1.0000
  H   H869      1.0  0.91742  0.59305  0.54178  1.0000
  H   H870      1.0  0.86249  0.91978  0.79362  1.0000
  H   H871      1.0  0.92042  0.71569  0.72736  1.0000
  H   H872      1.0  0.97081  0.56445  0.76149  1.0000
  S   S217      1.0  0.75106  0.81995  0.71284  1.0000
  C   C541      1.0  0.94890  0.59467  0.67417  1.0000
  N   N54       1.0  0.81944  0.89612  0.77540  1.0000
  Fe  Fe111     1.0  0.76959  0.83467  0.67689  1.0000
  H   H873      1.0  0.79105  0.90768  0.79940  1.0000
  S   S218      1.0  0.74667  0.88910  0.66510  1.0000
  S   S219      1.0  0.81651  0.83090  0.68109  1.0000
  H   H874      1.0  0.85627  0.69441  0.69684  1.0000
  C   C542      1.0  0.97478  0.60638  0.73069  1.0000
  S   S220      1.0  0.93593  0.76787  0.78172  1.0000
  H   H875      1.0  0.84243  0.92852  0.81789  1.0000
  H   H876      1.0  0.78227  0.93112  0.76249  1.0000
  C   C543      1.0  0.96653  0.61789  0.69934  1.0000
  H   H877      1.0  0.91166  0.63615  0.55776  1.0000
  C   C544      1.0  0.96461  0.57272  0.73703  1.0000
  C   C545      1.0  0.93926  0.56035  0.68049  1.0000
  Fe  Fe112     1.0  0.97762  0.75070  0.77613  1.0000
  C   C546      1.0  0.84893  0.81133  0.70890  1.0000
  C   C547      1.0  0.85136  0.79885  0.73867  1.0000
  C   C548      1.0  0.87815  0.78582  0.76065  1.0000
  C   C549      1.0  0.90264  0.78422  0.75292  1.0000
  C   C550      1.0  0.89994  0.79571  0.72281  1.0000
  C   C551      1.0  0.87336  0.80952  0.70114  1.0000
  H   H878      1.0  0.83273  0.79956  0.74486  1.0000
  H   H879      1.0  0.87992  0.77678  0.78380  1.0000
  H   H880      1.0  0.91852  0.79480  0.71646  1.0000
  N   N55       1.0  0.89558  0.66607  0.72387  1.0000
  C   C552      1.0  0.88726  0.63215  0.70393  1.0000
  C   C553      1.0  0.91333  0.69006  0.71258  1.0000
  H   H881      1.0  0.92014  0.68135  0.77301  1.0000
  H   H882      1.0  0.87179  0.81916  0.67822  1.0000
  H   H883      1.0  0.87444  0.63838  0.67846  1.0000
  H   H884      1.0  0.87409  0.61314  0.71194  1.0000
  H   H885      1.0  0.77419  0.88309  0.76227  1.0000
  H   H886      1.0  0.93320  0.67596  0.71372  1.0000
  C   C554      1.0  0.91256  0.65630  0.75739  1.0000
  C   C555      1.0  0.86931  0.68582  0.72167  1.0000
  C   C556      1.0  0.81103  0.51973  0.51558  1.0000
  H   H887      1.0  0.81034  0.91927  0.72933  1.0000
  C   C557      1.0  0.94693  0.54955  0.71204  1.0000
  H   H888      1.0  0.89957  0.63910  0.76702  1.0000
  H   H889      1.0  0.90124  0.69826  0.68746  1.0000
  H   H890      1.0  0.93209  0.64031  0.75975  1.0000
  H   H891      1.0  0.86526  0.61096  0.55654  1.0000
  S   S221      1.0  0.93475  0.50776  0.72163  1.0000
  C   C558      1.0  0.82907  0.86074  0.79146  1.0000
  H   H892      1.0  0.90675  0.61682  0.70511  1.0000
  H   H893      1.0  0.87510  0.71120  0.73693  1.0000
  H   H894      1.0  0.91876  0.63516  0.52219  1.0000
  N   N56       1.0  0.87588  0.61689  0.51557  1.0000
  H   H895      1.0  0.83087  0.86195  0.81653  1.0000
  C   C559      1.0  0.81766  0.89321  0.74239  1.0000
  C   C560      1.0  0.86329  0.65383  0.50765  1.0000
  S   S222      1.0  0.97693  0.66188  0.69155  1.0000
  S   S223      1.0  0.98265  0.68956  0.77596  1.0000
  S   S224      1.0  0.98954  0.75946  0.73417  1.0000
  H   H896      1.0  0.98939  0.62311  0.75018  1.0000
