data_image0
_chemical_formula_structural       FeS2FeS2FeSFeS3HFeHSHSFeHFeS3FeS3FeHSC6HCH2NSC6H4CHCH2CHCH2CHC6H4NC4H12NCH2CH2SH4CHCH2FeHCH4FeH2C3H7C3HCH3FeSH3FeS2FeS2FeSFeS3HSHFeS2FeSFeS2FeSFeSH2SH2C5HCH3C6H4NHCSC2HC6H4C2H3C2HCH3CH4CH2NH2C2HNSHCH4C3H6FeH3NH4CH4C2H2CHFeH3CH4CHCHSH2CNC2H6C2HS2HS2H2SCHSH2C2H2CHNC10H4FeH2C2H3CH2NH4FeSHSHC5H2CH2SHS4HS2HC2H4C6H4CHFeCNH5CH4CH3CHC2FeH2C2HCHC2HCH5C2SCNH4FeSFeSHFeSFeS2HSFeS2FeSFeS2FeS2FeS2Fe2S3FeH6CHC6H5C2H2CHCH3C6H4C3H2C4NCH3C2H6NH2NHC3H2CH2CH3NSH2C2H2CH2C2HCHCHNH7CHCHSH2SHSH6CH4CH2CHNC3H3SCHCH6CHC2H3C2HCH3CHSC3H2FeSFeSCFeSFeS2FeSFeS2HFeS3FeSFeS2FeSFeS3CH2C3HC3H3CHCH2C6H4C2H2CH4C7H5C5H4CH4CSCH2FeC4FeCNS2CHNCHCSHCHCHC2H4FeNC3H10SH6CHC2H4CHSHCFeS2FeS2FeS2FeSFeS3HC6H5C3HC6H4C6H4CH2CH2CNCNHSH6CH4NHCHC2H2CSCH2C2H4NH15CHCH2CHC3SFeS2FeS2FeSFeS3HC2H3C6H4C6H4C6H7CH2CHCH7NCH3NC4H7SH3CH2SHSNH3CH2FeH4CH2CNFeS2FeS2FeSFeS3HCFeH2FeS2H4NHCH3SCHCH3C2H3C6H4C6H4NCH2CH5C2H2CH3C2HCHC2HCH2C4H5NSH2CSHNCH2SHC3HCHFeS2FeS2FeSFeS3CFeH3FeS2HCH6SH3S2HCH2C6H4C6H4C3HCH2CHCHC2H4CHNCH6CNH3CHC3H3C2HCNH2NCH5CHCHCH3CHCH2CH2CFeSHCH2NHCHCHFeSFeH2S2FeS2FeS2FeSFeS2FeSFeS3C2H3C6H4NHCHCH2C6H7CH3NC4H3CH3FeH4CH3SC3HNH2CH2SH3CHCH2CHCH2CH3C2HCH7SFeS2FeS2FeHSH2CS3FeS2FeS2Fe2S3CHCH3C2HCH6C7H4C6H6CNH2CH2C2H2CNC4H6FeHC3H5NHCH3SH5SH2CH3CHFeC4H2NH2SHSHFe2SCH2CSNS2FeS2FeS2FeSFeS3HC2H2C6H4C2HCH3C6H8C3H2CH2NH3CNC4H13CHCSCNH6CH8FeH4NC3HC2H2SCH2CHNHFeS2FeSH2CS2FeS2FeS2FeCFeS3C2H4C3H6C7H4C6H5SNH6CHCH2NC4H9NH10C2H2C2HCH3SHCNC3SHCFeH2CH7FeS2H2C3HFeS2FeS2FeSFeS3HC2SCHC2HC3HC2H4C6H4CH2CFeHSCH2CFeCH9NHNHCSCHC5HSCFeH2NCHSH7SHCHCSH4CH2SH5FeS2H2CHCFeS2FeS2FeSFeS3H2NHC6H4C2H3C6H4C2HCHCNH3CHCH2CNHC2H2C2SHC2FeHNC4H13CSH4CH3CN2SHSH2CH5SH2CHC2H3CH5CHFeCH6CHCFeH2CHCH4FeS2FeS2FeSFeS4C6H4C2H2C7H4CHC4HCH2NC3H3SC2H3NCNCH5CH4NH5CH5CH2SHCH3CHCH13NC2HCHNH3SC4HCHCSH2SFeS2FeS2FeSFeS4CHC2HC6H4C6H4C7H4NC4H12FeCH2NHCHCH2SHCH3CHCH8SFeSCFeSFeS2HSFeSFe2SFeS3H2FeS2FeS2HFeS3C6H6CH2C4HC6H4NH3SHC3HC6H3NH2CHCHCHCSNC4H12NC4H3SH12C2FeSHCHCHCFeC2H3CHCH2CSH2CFeSH3FeH2CH2FeS2HSFeSFeS2HSFeSCFeSFeS2H2FeS2FeS2HFeS3CHC2H2CH2C7H4C3HSHSH2C7H5C5H4NC4H12NC3H9NH4CFeHCH3CH2CH2C2H2CNHCHC2H3FeH6CS3C2HC3HCH2CHFeH2C2NH2NHCH4CH2CH4FeH2FeSCSCSC2H4SHC3HCH2C3HC2HSH2C5HNH2SCHNC4H13C2HC2HCH2FeHSNH4NCH2SH3CH3CFeCHCH2FeH2SFeSHS2CH5CH2C2HNH3CH2C6FeH3C5SH2CHCH4CH5FeCH2CH2NCH3CH3CH2CHC3H4NCH2CH2SH2CHSHNHSCHFeS2FeS2FeSFeS3FeS2HFeSFeS2FeSFeSFeS2H5C7H2C6H4CHCH2C2H5C6H4SC2HCHNC4H14CH3CNH4C2HSCH8SHCH2CNC5HFeNHFeHCH2FeCHCH10FeS2FeS2FeSFeS3FeSHCFeS2FeS2FeS2FeS5HC6H5C6H4CH2NCSFeC6H4C2H2C2FeH3CHSH6C2H2FeH2NC4H10CH2SH4CHC
_chemical_formula_sum              "Fe192 S384 H1536 C960 N96"
_cell_length_a       65.6997
_cell_length_b       65.7742
_cell_length_c       51.9706
_cell_angle_alpha    88.7814
_cell_angle_beta     88.8489
_cell_angle_gamma    89.2998

_space_group_name_H-M_alt    "P 1"
_space_group_IT_number       1

loop_
  _space_group_symop_operation_xyz
  'x, y, z'

loop_
  _atom_site_type_symbol
  _atom_site_label
  _atom_site_symmetry_multiplicity
  _atom_site_fract_x
  _atom_site_fract_y
  _atom_site_fract_z
  _atom_site_occupancy
  Fe  Fe1       1.0  0.11854  0.15717  0.15016  1.0000
  S   S1        1.0  0.12012  0.12844  0.12737  1.0000
  S   S2        1.0  0.14269  0.16125  0.18163  1.0000
  Fe  Fe2       1.0  0.07563  0.16737  0.12858  1.0000
  S   S3        1.0  0.07481  0.13830  0.10613  1.0000
  S   S4        1.0  0.04798  0.18702  0.11775  1.0000
  Fe  Fe3       1.0  0.08779  0.12276  0.14140  1.0000
  S   S5        1.0  0.08333  0.09095  0.16024  1.0000
  Fe  Fe4       1.0  0.10670  0.14645  0.09424  1.0000
  S   S6        1.0  0.11954  0.14770  0.05285  1.0000
  S   S7        1.0  0.08629  0.15118  0.16480  1.0000
  S   S8        1.0  0.10749  0.17578  0.11594  1.0000
  H   H1        1.0  0.31336  0.09378  0.34205  1.0000
  Fe  Fe5       1.0  0.30446  0.04169  0.34184  1.0000
  H   H2        1.0  0.31280  0.13903  0.21146  1.0000
  S   S9        1.0  0.28797  0.06470  0.31569  1.0000
  H   H3        1.0  0.08646  0.23128  0.07075  1.0000
  S   S10       1.0  0.28636  0.02378  0.37158  1.0000
  Fe  Fe6       1.0  0.30718  0.19132  0.22107  1.0000
  H   H4        1.0  0.24461  0.09942  0.39004  1.0000
  Fe  Fe7       1.0  0.25999  0.19598  0.22820  1.0000
  S   S11       1.0  0.26331  0.20662  0.26910  1.0000
  S   S12       1.0  0.23183  0.19756  0.20185  1.0000
  S   S13       1.0  0.30133  0.03907  0.43780  1.0000
  Fe  Fe8       1.0  0.28731  0.18170  0.27280  1.0000
  S   S14       1.0  0.29340  0.16140  0.30813  1.0000
  S   S15       1.0  0.28491  0.21677  0.21341  1.0000
  S   S16       1.0  0.28217  0.16979  0.23328  1.0000
  Fe  Fe9       1.0  0.00354  0.00643  0.22483  1.0000
  H   H5        1.0  0.25091  0.11029  0.42032  1.0000
  S   S17       1.0  0.00829  0.03620  0.20117  1.0000
  C   C1        1.0  0.29097  0.09142  0.31271  1.0000
  C   C2        1.0  0.30406  0.10206  0.32833  1.0000
  C   C3        1.0  0.30482  0.12348  0.32652  1.0000
  C   C4        1.0  0.29292  0.13442  0.30863  1.0000
  C   C5        1.0  0.28045  0.12372  0.29229  1.0000
  C   C6        1.0  0.27937  0.10235  0.29451  1.0000
  H   H6        1.0  0.28521  0.10286  0.43929  1.0000
  C   C7        1.0  0.31425  0.12642  0.22603  1.0000
  H   H7        1.0  0.27111  0.13193  0.27856  1.0000
  H   H8        1.0  0.26922  0.09425  0.28229  1.0000
  N   N1        1.0  0.08027  0.20390  0.05039  1.0000
  S   S18       1.0  0.00833  0.00174  0.26747  1.0000
  C   C8        1.0  0.06214  0.07624  0.17186  1.0000
  C   C9        1.0  0.04189  0.08261  0.16888  1.0000
  C   C10       1.0  0.02574  0.07021  0.17809  1.0000
  C   C11       1.0  0.02949  0.05134  0.19062  1.0000
  C   C12       1.0  0.04973  0.04501  0.19371  1.0000
  C   C13       1.0  0.06589  0.05733  0.18433  1.0000
  H   H9        1.0  0.03866  0.09705  0.15939  1.0000
  H   H10       1.0  0.01020  0.07537  0.17559  1.0000
  H   H11       1.0  0.05296  0.03056  0.20318  1.0000
  H   H12       1.0  0.08142  0.05213  0.18671  1.0000
  C   C14       1.0  0.10731  0.14567  0.02268  1.0000
  H   H13       1.0  0.99972  0.01931  0.11907  1.0000
  C   C15       1.0  0.08705  0.13965  0.02084  1.0000
  H   H14       1.0  0.31401  0.11185  0.21555  1.0000
  H   H15       1.0  0.07845  0.13565  0.03815  1.0000
  C   C16       1.0  0.03961  0.21172  0.12647  1.0000
  H   H16       1.0  0.99892  0.00142  0.17309  1.0000
  C   C17       1.0  0.11829  0.15053  0.99985  1.0000
  H   H17       1.0  0.32099  0.11154  0.27369  1.0000
  H   H18       1.0  0.27633  0.11302  0.36980  1.0000
  C   C18       1.0  0.06937  0.18461  0.05513  1.0000
  H   H19       1.0  0.06054  0.21538  0.15729  1.0000
  C   C19       1.0  0.16778  0.17104  0.18635  1.0000
  C   C20       1.0  0.17752  0.16683  0.20988  1.0000
  C   C21       1.0  0.19718  0.17434  0.21480  1.0000
  C   C22       1.0  0.20739  0.18652  0.19637  1.0000
  C   C23       1.0  0.19761  0.19080  0.17289  1.0000
  C   C24       1.0  0.17811  0.18300  0.16781  1.0000
  H   H20       1.0  0.16976  0.15777  0.22455  1.0000
  H   H21       1.0  0.20427  0.17096  0.23302  1.0000
  H   H22       1.0  0.20524  0.20015  0.15840  1.0000
  H   H23       1.0  0.17098  0.18647  0.14963  1.0000
  N   N2        1.0  0.13900  0.09927  0.19676  1.0000
  C   C25       1.0  0.14453  0.08964  0.22163  1.0000
  C   C26       1.0  0.12160  0.11338  0.20085  1.0000
  C   C27       1.0  0.13323  0.08342  0.17861  1.0000
  C   C28       1.0  0.15659  0.11065  0.18599  1.0000
  H   H24       1.0  0.15763  0.07890  0.21930  1.0000
  H   H25       1.0  0.13153  0.08097  0.23025  1.0000
  H   H26       1.0  0.14891  0.10126  0.23572  1.0000
  H   H27       1.0  0.11707  0.12092  0.18251  1.0000
  H   H28       1.0  0.10790  0.10531  0.20860  1.0000
  H   H29       1.0  0.12539  0.12571  0.21423  1.0000
  H   H30       1.0  0.12883  0.09023  0.15968  1.0000
  H   H31       1.0  0.11984  0.07467  0.18599  1.0000
  H   H32       1.0  0.14594  0.07246  0.17499  1.0000
  H   H33       1.0  0.15281  0.11842  0.16740  1.0000
  H   H34       1.0  0.16996  0.10052  0.18238  1.0000
  H   H35       1.0  0.16136  0.12276  0.19918  1.0000
  N   N3        1.0  0.27491  0.09263  0.40268  1.0000
  C   C29       1.0  0.28385  0.11024  0.38861  1.0000
  H   H36       1.0  0.29324  0.07105  0.38191  1.0000
  H   H37       1.0  0.30037  0.10770  0.38449  1.0000
  C   C30       1.0  0.02355  0.22089  0.11277  1.0000
  H   H38       1.0  0.24849  0.23844  0.19509  1.0000
  H   H39       1.0  0.05309  0.18732  0.06054  1.0000
  S   S19       1.0  0.31339  0.20222  0.26086  1.0000
  H   H40       1.0  0.07301  0.20541  0.01027  1.0000
  H   H41       1.0  0.23249  0.22948  0.23758  1.0000
  H   H42       1.0  0.27093  0.06065  0.39713  1.0000
  H   H43       1.0  0.07624  0.17559  0.07116  1.0000
  C   C31       1.0  0.07789  0.13875  0.99654  1.0000
  H   H44       1.0  0.28229  0.12441  0.39982  1.0000
  C   C32       1.0  0.28566  0.08915  0.42714  1.0000
  H   H45       1.0  0.06184  0.22056  0.07761  1.0000
  H   H46       1.0  0.10421  0.18961  0.02811  1.0000
  Fe  Fe10      1.0  0.28915  0.22648  0.25444  1.0000
  H   H47       1.0  0.08402  0.20882  0.09080  1.0000
  C   C33       1.0  0.07148  0.21469  0.02792  1.0000
  H   H48       1.0  0.30195  0.08487  0.42366  1.0000
  H   H49       1.0  0.06986  0.17495  0.03785  1.0000
  H   H50       1.0  0.28481  0.04042  0.48923  1.0000
  H   H51       1.0  0.99763  0.03354  0.14804  1.0000
  Fe  Fe11      1.0  0.31256  0.02887  0.39803  1.0000
  H   H52       1.0  0.07926  0.22940  0.02389  1.0000
  H   H53       1.0  0.05499  0.21805  0.03119  1.0000
  C   C34       1.0  0.04818  0.22224  0.14659  1.0000
  C   C35       1.0  0.01600  0.24032  0.11919  1.0000
  C   C36       1.0  0.31315  0.03623  0.46827  1.0000
  H   H54       1.0  0.06219  0.13411  0.99543  1.0000
  H   H55       1.0  0.11084  0.21362  0.04143  1.0000
  H   H56       1.0  0.01688  0.21290  0.09711  1.0000
  H   H57       1.0  0.24591  0.08353  0.41853  1.0000
  H   H58       1.0  0.30043  0.12691  0.23879  1.0000
  H   H59       1.0  0.26894  0.07616  0.36821  1.0000
  H   H60       1.0  0.27881  0.07640  0.43868  1.0000
  C   C37       1.0  0.27702  0.07435  0.38678  1.0000
  C   C38       1.0  0.25310  0.09668  0.40816  1.0000
  C   C39       1.0  0.07810  0.21675  0.07331  1.0000
  H   H61       1.0  0.10919  0.19122  0.06163  1.0000
  C   C40       1.0  0.10206  0.19948  0.04514  1.0000
  H   H62       1.0  0.31464  0.13163  0.33909  1.0000
  H   H63       1.0  0.13401  0.15510  0.00097  1.0000
  H   H64       1.0  0.21127  0.23865  0.20053  1.0000
  Fe  Fe12      1.0  0.30362  0.99630  0.35826  1.0000
  S   S20       1.0  0.31991  0.01360  0.32601  1.0000
  H   H65       1.0  0.99815  0.23138  0.17512  1.0000
  H   H66       1.0  0.31898  0.14924  0.26719  1.0000
  H   H67       1.0  0.15288  0.99320  0.33071  1.0000
  Fe  Fe13      1.0  0.08269  0.12422  0.85121  1.0000
  S   S21       1.0  0.09339  0.15087  0.82649  1.0000
  S   S22       1.0  0.07647  0.09087  0.84087  1.0000
  Fe  Fe14      1.0  0.08630  0.14795  0.90153  1.0000
  S   S23       1.0  0.09678  0.17655  0.88086  1.0000
  S   S24       1.0  0.07632  0.14213  0.94369  1.0000
  Fe  Fe15      1.0  0.07292  0.17023  0.85190  1.0000
  S   S25       1.0  0.05298  0.19425  0.83210  1.0000
  Fe  Fe16      1.0  0.11706  0.15623  0.85633  1.0000
  S   S26       1.0  0.15006  0.16738  0.84999  1.0000
  S   S27       1.0  0.06057  0.14325  0.87411  1.0000
  S   S28       1.0  0.10820  0.12802  0.87942  1.0000
  H   H68       1.0  0.12176  0.18453  0.81234  1.0000
  S   S29       1.0  0.29283  0.03237  0.59571  1.0000
  H   H69       1.0  0.30163  0.19854  0.62679  1.0000
  Fe  Fe17      1.0  0.30161  0.04631  0.63307  1.0000
  S   S30       1.0  0.28091  0.06960  0.65309  1.0000
  S   S31       1.0  0.30329  0.01610  0.65411  1.0000
  Fe  Fe18      1.0  0.28179  0.22357  0.73328  1.0000
  S   S32       1.0  0.27239  0.21293  0.77377  1.0000
  Fe  Fe19      1.0  0.28691  0.17931  0.71497  1.0000
  S   S33       1.0  0.27776  0.16602  0.75337  1.0000
  S   S34       1.0  0.29968  0.16178  0.68059  1.0000
  Fe  Fe20      1.0  0.25265  0.18976  0.75490  1.0000
  S   S35       1.0  0.21869  0.18121  0.76090  1.0000
  Fe  Fe21      1.0  0.29817  0.18979  0.76969  1.0000
  S   S36       1.0  0.26072  0.20158  0.71478  1.0000
  H   H70       1.0  0.08279  0.05847  0.71568  1.0000
  H   H71       1.0  0.25880  0.00559  0.64867  1.0000
  S   S37       1.0  0.00582  0.04478  0.78166  1.0000
  H   H72       1.0  0.30985  0.13501  0.77363  1.0000
  H   H73       1.0  0.21709  0.03826  0.67502  1.0000
  C   C41       1.0  0.04928  0.22508  0.86786  1.0000
  C   C42       1.0  0.28701  0.09493  0.66127  1.0000
  C   C43       1.0  0.27426  0.10532  0.67881  1.0000
  C   C44       1.0  0.27803  0.12567  0.68514  1.0000
  C   C45       1.0  0.29443  0.13601  0.67361  1.0000
  H   H74       1.0  0.08223  0.06356  0.88741  1.0000
  C   C46       1.0  0.30366  0.10514  0.65015  1.0000
  H   H75       1.0  0.26130  0.09762  0.68750  1.0000
  H   H76       1.0  0.26803  0.13344  0.69862  1.0000
  H   H77       1.0  0.08204  0.05340  0.74978  1.0000
  C   C47       1.0  0.05634  0.07842  0.82482  1.0000
  C   C48       1.0  0.04010  0.08905  0.81355  1.0000
  C   C49       1.0  0.02475  0.07846  0.80082  1.0000
  C   C50       1.0  0.02528  0.05709  0.79912  1.0000
  C   C51       1.0  0.04139  0.04644  0.81068  1.0000
  C   C52       1.0  0.05682  0.05703  0.82327  1.0000
  H   H78       1.0  0.03938  0.10546  0.81455  1.0000
  H   H79       1.0  0.01236  0.08695  0.79211  1.0000
  H   H80       1.0  0.04187  0.03001  0.81013  1.0000
  H   H81       1.0  0.06919  0.04856  0.83199  1.0000
  N   N4        1.0  0.23361  0.02611  0.64258  1.0000
  H   H82       1.0  0.06615  0.00891  0.74570  1.0000
  C   C53       1.0  0.04150  0.21618  0.84597  1.0000
  S   S38       1.0  0.32048  0.17470  0.79780  1.0000
  C   C54       1.0  0.09245  0.09121  0.94014  1.0000
  C   C55       1.0  0.07982  0.04646  0.73065  1.0000
  H   H83       1.0  0.08343  0.09818  0.95614  1.0000
  C   C56       1.0  0.16903  0.17051  0.82488  1.0000
  C   C57       1.0  0.16522  0.16679  0.79898  1.0000
  C   C58       1.0  0.18056  0.17017  0.77986  1.0000
  C   C59       1.0  0.20002  0.17718  0.78619  1.0000
  C   C60       1.0  0.20380  0.18091  0.81209  1.0000
  C   C61       1.0  0.18841  0.17768  0.83118  1.0000
  H   H84       1.0  0.15052  0.16120  0.79363  1.0000
  H   H85       1.0  0.17739  0.16718  0.75996  1.0000
  H   H86       1.0  0.21858  0.18633  0.81742  1.0000
  H   H87       1.0  0.19163  0.18070  0.85107  1.0000
  C   C62       1.0  0.10913  0.14959  0.97552  1.0000
  C   C63       1.0  0.08883  0.14373  0.97372  1.0000
  H   H88       1.0  0.14353  0.22031  0.78667  1.0000
  H   H89       1.0  0.11782  0.15341  0.95821  1.0000
  H   H90       1.0  0.32066  0.22774  0.66473  1.0000
  C   C64       1.0  0.21882  0.00983  0.63824  1.0000
  C   C65       1.0  0.22346  0.04320  0.65593  1.0000
  H   H91       1.0  0.29136  0.21791  0.60563  1.0000
  C   C66       1.0  0.27128  0.21848  0.65118  1.0000
  H   H92       1.0  0.04545  0.06192  0.75146  1.0000
  H   H93       1.0  0.32129  0.11010  0.77617  1.0000
  H   H94       1.0  0.06780  0.01674  0.69969  1.0000
  C   C67       1.0  0.09179  0.07151  0.90144  1.0000
  H   H95       1.0  0.25341  0.04565  0.62015  1.0000
  H   H96       1.0  0.31353  0.09740  0.63652  1.0000
  H   H97       1.0  0.11555  0.19616  0.78198  1.0000
  H   H98       1.0  0.07219  0.10728  0.90026  1.0000
  C   C68       1.0  0.30982  0.03717  0.51537  1.0000
  H   H99       1.0  0.05415  0.08748  0.89740  1.0000
  H   H100      1.0  0.11795  0.23198  0.84950  1.0000
  N   N5        1.0  0.07922  0.08043  0.92235  1.0000
  H   H101      1.0  0.21249  0.00352  0.65672  1.0000
  H   H102      1.0  0.09623  0.19362  0.80679  1.0000
  C   C69       1.0  0.11265  0.19694  0.80309  1.0000
  C   C70       1.0  0.30722  0.12562  0.65611  1.0000
  H   H103      1.0  0.09789  0.21395  0.84602  1.0000
  N   N6        1.0  0.11807  0.21696  0.81312  1.0000
  S   S39       1.0  0.30861  0.20192  0.73093  1.0000
  H   H104      1.0  0.10790  0.23325  0.77936  1.0000
  C   C71       1.0  0.10545  0.23294  0.80062  1.0000
  H   H105      1.0  0.05809  0.05575  0.92364  1.0000
  H   H106      1.0  0.31995  0.13345  0.64709  1.0000
  H   H107      1.0  0.22995  0.03979  0.60494  1.0000
  H   H108      1.0  0.01877  0.21892  0.81669  1.0000
  C   C72       1.0  0.04396  0.05482  0.73234  1.0000
  C   C73       1.0  0.05594  0.02231  0.74879  1.0000
  C   C74       1.0  0.06823  0.06412  0.93658  1.0000
  H   H109      1.0  0.12362  0.20525  0.85126  1.0000
  H   H110      1.0  0.10404  0.08085  0.94883  1.0000
  H   H111      1.0  0.30030  0.03873  0.53245  1.0000
  H   H112      1.0  0.05474  0.10233  0.92630  1.0000
  H   H113      1.0  0.05874  0.04093  0.68733  1.0000
  H   H114      1.0  0.04004  0.01671  0.74898  1.0000
  Fe  Fe22      1.0  0.29614  0.00207  0.61636  1.0000
  H   H115      1.0  0.02808  0.04913  0.73149  1.0000
  H   H116      1.0  0.24451  0.01167  0.67731  1.0000
  H   H117      1.0  0.26416  0.22663  0.66774  1.0000
  N   N7        1.0  0.05908  0.03824  0.72868  1.0000
  H   H118      1.0  0.06216  0.21810  0.87738  1.0000
  H   H119      1.0  0.14453  0.23585  0.81471  1.0000
  H   H120      1.0  0.10021  0.08346  0.89024  1.0000
  H   H121      1.0  0.24982  0.02091  0.60694  1.0000
  C   C75       1.0  0.25029  0.01799  0.65858  1.0000
  H   H122      1.0  0.04567  0.06705  0.71739  1.0000
  H   H123      1.0  0.14972  0.20907  0.81726  1.0000
  H   H124      1.0  0.05880  0.02814  0.76826  1.0000
  H   H125      1.0  0.23441  0.05568  0.65931  1.0000
  C   C76       1.0  0.02484  0.22561  0.83372  1.0000
  C   C77       1.0  0.24204  0.03345  0.61755  1.0000
  H   H126      1.0  0.10321  0.06042  0.90903  1.0000
  H   H127      1.0  0.05854  0.07043  0.95240  1.0000
  C   C78       1.0  0.05666  0.02936  0.70304  1.0000
  H   H128      1.0  0.20590  0.01543  0.62644  1.0000
  Fe  Fe23      1.0  0.99812  0.01351  0.76508  1.0000
  H   H129      1.0  0.26115  0.22085  0.63448  1.0000
  H   H130      1.0  0.07899  0.05288  0.94532  1.0000
  H   H131      1.0  0.26139  0.03007  0.66285  1.0000
  C   C79       1.0  0.13989  0.22078  0.80766  1.0000
  H   H132      1.0  0.09160  0.03429  0.72829  1.0000
  H   H133      1.0  0.21082  0.04981  0.64441  1.0000
  H   H134      1.0  0.10070  0.10387  0.93010  1.0000
  H   H135      1.0  0.04126  0.02277  0.70110  1.0000
  C   C80       1.0  0.06433  0.09494  0.91116  1.0000
  H   H136      1.0  0.27145  0.20192  0.65628  1.0000
  C   C81       1.0  0.11420  0.21706  0.84123  1.0000
  H   H137      1.0  0.29857  0.22921  0.68541  1.0000
  S   S40       1.0  0.00081  0.01226  0.72181  1.0000
  H   H138      1.0  0.08889  0.23032  0.80451  1.0000
  H   H139      1.0  0.30628  0.20526  0.67238  1.0000
  C   C82       1.0  0.30499  0.22186  0.66794  1.0000
  N   N8        1.0  0.29205  0.22595  0.64547  1.0000
  C   C83       1.0  0.32111  0.12224  0.72653  1.0000
  C   C84       1.0  0.30075  0.21529  0.62299  1.0000
  H   H140      1.0  0.01215  0.22699  0.93652  1.0000
  H   H141      1.0  0.30619  0.13048  0.72688  1.0000
  H   H142      1.0  0.31646  0.22056  0.61828  1.0000
  H   H143      1.0  0.31793  0.10573  0.72901  1.0000
  H   H144      1.0  0.22612  0.99693  0.62781  1.0000
  H   H145      1.0  0.32386  0.16046  0.74314  1.0000
  C   C85       1.0  0.32455  0.12642  0.77220  1.0000
  C   C86       1.0  0.30107  0.03815  0.49079  1.0000
  H   H146      1.0  0.30020  0.33201  0.28720  1.0000
  S   S41       1.0  0.31067  0.37868  0.37992  1.0000
  S   S42       1.0  0.99799  0.45942  0.26165  1.0000
  H   H147      1.0  0.29634  0.33631  0.38772  1.0000
  S   S43       1.0  0.29655  0.43747  0.36028  1.0000
  S   S44       1.0  0.28902  0.26158  0.25940  1.0000
  H   H148      1.0  0.31727  0.28903  0.41772  1.0000
  H   H149      1.0  0.28810  0.30546  0.25793  1.0000
  S   S45       1.0  0.20432  0.46738  0.34584  1.0000
  C   C87       1.0  0.31249  0.31065  0.31487  1.0000
  H   H150      1.0  0.19871  0.25797  0.21908  1.0000
  S   S46       1.0  0.01382  0.27408  0.15057  1.0000
  H   H151      1.0  0.24819  0.26431  0.18364  1.0000
  H   H152      1.0  0.29320  0.33498  0.44680  1.0000
  C   C88       1.0  0.30268  0.31611  0.29201  1.0000
  C   C89       1.0  0.30860  0.27459  0.30388  1.0000
  H   H153      1.0  0.21043  0.26440  0.18841  1.0000
  H   H154      1.0  0.29882  0.29782  0.44111  1.0000
  C   C90       1.0  0.23212  0.28052  0.22653  1.0000
  H   H155      1.0  0.31999  0.33791  0.45217  1.0000
  N   N9        1.0  0.23144  0.25897  0.21911  1.0000
  C   C91       1.0  0.02419  0.25063  0.13977  1.0000
  C   C92       1.0  0.29859  0.28001  0.28113  1.0000
  C   C93       1.0  0.24868  0.25453  0.20133  1.0000
  C   C94       1.0  0.29577  0.30093  0.27539  1.0000
  C   C95       1.0  0.27048  0.44473  0.35742  1.0000
  C   C96       1.0  0.25611  0.43236  0.34611  1.0000
  C   C97       1.0  0.23587  0.43942  0.34310  1.0000
  C   C98       1.0  0.22967  0.45875  0.35165  1.0000
  C   C99       1.0  0.24395  0.47093  0.36342  1.0000
  C   C100      1.0  0.26424  0.46403  0.36599  1.0000
  H   H156      1.0  0.26066  0.41753  0.33933  1.0000
  H   H157      1.0  0.22497  0.42985  0.33399  1.0000
  H   H158      1.0  0.09745  0.48094  0.27810  1.0000
  H   H159      1.0  0.24749  0.24838  0.25254  1.0000
  Fe  Fe24      1.0  0.31600  0.40832  0.35815  1.0000
  H   H160      1.0  0.30785  0.35280  0.42772  1.0000
  H   H161      1.0  0.28177  0.31853  0.40695  1.0000
  C   C101      1.0  0.31367  0.30139  0.43146  1.0000
  C   C102      1.0  0.29711  0.32145  0.39834  1.0000
  H   H162      1.0  0.23110  0.29091  0.20941  1.0000
  H   H163      1.0  0.21937  0.28442  0.24003  1.0000
  H   H164      1.0  0.31098  0.25866  0.30872  1.0000
  C   C103      1.0  0.30822  0.33741  0.43705  1.0000
  H   H165      1.0  0.24451  0.48070  0.26818  1.0000
  H   H166      1.0  0.27520  0.47369  0.37484  1.0000
  N   N10       1.0  0.31297  0.32144  0.41814  1.0000
  H   H167      1.0  0.30033  0.30969  0.38363  1.0000
  H   H168      1.0  0.04684  0.24940  0.16924  1.0000
  H   H169      1.0  0.23942  0.48567  0.37052  1.0000
  H   H170      1.0  0.23834  0.47494  0.30130  1.0000
  Fe  Fe25      1.0  0.02017  0.48543  0.26299  1.0000
  S   S47       1.0  0.05429  0.48283  0.27123  1.0000
  H   H171      1.0  0.26199  0.48692  0.29303  1.0000
  S   S48       1.0  0.32153  0.32908  0.33695  1.0000
  H   H172      1.0  0.24664  0.28384  0.23635  1.0000
  C   C104      1.0  0.24559  0.48643  0.28807  1.0000
  C   C105      1.0  0.31544  0.28976  0.32055  1.0000
  C   C106      1.0  0.04039  0.24154  0.15329  1.0000
  C   C107      1.0  0.23298  0.24585  0.24244  1.0000
  C   C108      1.0  0.09113  0.49016  0.29338  1.0000
  H   H173      1.0  0.26357  0.25708  0.21061  1.0000
  H   H174      1.0  0.00375  0.24722  0.10834  1.0000
  C   C109      1.0  0.21209  0.25489  0.20622  1.0000
  H   H175      1.0  0.22027  0.24879  0.25636  1.0000
  H   H176      1.0  0.32306  0.28519  0.33804  1.0000
  S   S49       1.0  0.30531  0.37771  0.61610  1.0000
  H   H177      1.0  0.28819  0.32488  0.67699  1.0000
  S   S50       1.0  0.29149  0.42596  0.66305  1.0000
  S   S51       1.0  0.27982  0.25713  0.71866  1.0000
  S   S52       1.0  0.01443  0.27630  0.87668  1.0000
  S   S53       1.0  0.00668  0.42553  0.76818  1.0000
  H   H178      1.0  0.20669  0.43532  0.64768  1.0000
  S   S54       1.0  0.21770  0.47214  0.60752  1.0000
  S   S55       1.0  0.02857  0.48309  0.75932  1.0000
  H   H179      1.0  0.32147  0.25801  0.69548  1.0000
  C   C110      1.0  0.16642  0.43732  0.68992  1.0000
  C   C111      1.0  0.22181  0.46825  0.52852  1.0000
  H   H180      1.0  0.01146  0.24871  0.95715  1.0000
  H   H181      1.0  0.18993  0.41514  0.65758  1.0000
  H   H182      1.0  0.15916  0.42280  0.68473  1.0000
  H   H183      1.0  0.19864  0.46201  0.69413  1.0000
  C   C112      1.0  0.27137  0.43913  0.64715  1.0000
  C   C113      1.0  0.26093  0.45504  0.65971  1.0000
  C   C114      1.0  0.24475  0.46566  0.64774  1.0000
  C   C115      1.0  0.23866  0.46026  0.62318  1.0000
  C   C116      1.0  0.24903  0.44430  0.61072  1.0000
  C   C117      1.0  0.26537  0.43389  0.62252  1.0000
  H   H184      1.0  0.26548  0.45924  0.67875  1.0000
  H   H185      1.0  0.16045  0.43463  0.63928  1.0000
  H   H186      1.0  0.24443  0.43990  0.59179  1.0000
  H   H187      1.0  0.27319  0.42166  0.61264  1.0000
  C   C118      1.0  0.31397  0.27236  0.69122  1.0000
  H   H188      1.0  0.17728  0.47590  0.68125  1.0000
  Fe  Fe26      1.0  0.31255  0.40310  0.64288  1.0000
  C   C119      1.0  0.29428  0.27606  0.70105  1.0000
  N   N11       1.0  0.17997  0.44499  0.66894  1.0000
  H   H189      1.0  0.00330  0.25082  0.83344  1.0000
  H   H190      1.0  0.15393  0.44847  0.69424  1.0000
  H   H191      1.0  0.19699  0.48570  0.56273  1.0000
  H   H192      1.0  0.20998  0.45966  0.51841  1.0000
  H   H193      1.0  0.27006  0.29841  0.70325  1.0000
  C   C120      1.0  0.02417  0.25292  0.86462  1.0000
  H   H194      1.0  0.00563  0.38241  0.77725  1.0000
  H   H195      1.0  0.28397  0.25640  0.65634  1.0000
  H   H196      1.0  0.17786  0.45417  0.62916  1.0000
  H   H197      1.0  0.22314  0.46146  0.54828  1.0000
  C   C121      1.0  0.16799  0.44871  0.64550  1.0000
  H   H198      1.0  0.28202  0.25176  0.62265  1.0000
  H   H199      1.0  0.04735  0.25052  0.89338  1.0000
  H   H200      1.0  0.30662  0.25455  0.63676  1.0000
  C   C122      1.0  0.18919  0.46422  0.67674  1.0000
  H   H201      1.0  0.32260  0.41780  0.70803  1.0000
  C   C123      1.0  0.29551  0.31035  0.68086  1.0000
  C   C124      1.0  0.31501  0.30647  0.67054  1.0000
  Fe  Fe27      1.0  0.00375  0.45958  0.75889  1.0000
  H   H202      1.0  0.19925  0.47057  0.66114  1.0000
  H   H203      1.0  0.20582  0.42687  0.68069  1.0000
  C   C125      1.0  0.99720  0.38938  0.79291  1.0000
  C   C126      1.0  0.01603  0.24372  0.84318  1.0000
  H   H204      1.0  0.23706  0.47799  0.65754  1.0000
  C   C127      1.0  0.28523  0.29523  0.69579  1.0000
  H   H205      1.0  0.17490  0.43451  0.70800  1.0000
  C   C128      1.0  0.19628  0.42988  0.66352  1.0000
  C   C129      1.0  0.00681  0.24304  0.93816  1.0000
  H   H206      1.0  0.15583  0.46043  0.64875  1.0000
  C   C130      1.0  0.04080  0.24346  0.87692  1.0000
  H   H207      1.0  0.23662  0.46566  0.51825  1.0000
  H   H208      1.0  0.31790  0.45547  0.70835  1.0000
  H   H209      1.0  0.01518  0.25210  0.92313  1.0000
  H   H210      1.0  0.18413  0.48586  0.53261  1.0000
  H   H211      1.0  0.10902  0.24828  0.80780  1.0000
  C   C131      1.0  0.29115  0.24810  0.63996  1.0000
  C   C132      1.0  0.32408  0.28732  0.67586  1.0000
  S   S56       1.0  0.99535  0.46692  0.71784  1.0000
  C   C133      1.0  0.99536  0.41070  0.79356  1.0000
  N   N12       1.0  0.21658  0.49015  0.52947  1.0000
  H   H212      1.0  0.10853  0.48841  0.71788  1.0000
  H   H213      1.0  0.07075  0.48865  0.72187  1.0000
  H   H214      1.0  0.32352  0.41769  0.50035  1.0000
  H   H215      1.0  0.99169  0.37622  0.94035  1.0000
  Fe  Fe28      1.0  0.02036  0.68518  0.13649  1.0000
  S   S57       1.0  0.04830  0.69062  0.11177  1.0000
  Fe  Fe29      1.0  0.02248  0.63893  0.12839  1.0000
  S   S58       1.0  0.05003  0.64201  0.10206  1.0000
  H   H216      1.0  0.12578  0.67691  0.04530  1.0000
  Fe  Fe30      1.0  0.06171  0.66319  0.13161  1.0000
  S   S59       1.0  0.09297  0.65668  0.14821  1.0000
  Fe  Fe31      1.0  0.03409  0.66913  0.08444  1.0000
  S   S60       1.0  0.03245  0.68221  0.04359  1.0000
  S   S61       1.0  0.03491  0.65904  0.15864  1.0000
  H   H217      1.0  0.08994  0.68332  0.20120  1.0000
  S   S62       1.0  0.20538  0.52534  0.36822  1.0000
  Fe  Fe32      1.0  0.14713  0.51987  0.35665  1.0000
  S   S63       1.0  0.16147  0.54934  0.36796  1.0000
  S   S64       1.0  0.11225  0.52152  0.35454  1.0000
  Fe  Fe33      1.0  0.18622  0.54218  0.33908  1.0000
  S   S65       1.0  0.20189  0.56176  0.30791  1.0000
  Fe  Fe34      1.0  0.17924  0.53008  0.39627  1.0000
  S   S66       1.0  0.18586  0.54288  0.43576  1.0000
  S   S67       1.0  0.17078  0.51398  0.32581  1.0000
  Fe  Fe35      1.0  0.23566  0.69633  0.22273  1.0000
  S   S68       1.0  0.22818  0.69778  0.26524  1.0000
  S   S69       1.0  0.27037  0.69681  0.21408  1.0000
  Fe  Fe36      1.0  0.19054  0.70380  0.21009  1.0000
  S   S70       1.0  0.18073  0.70627  0.25156  1.0000
  S   S71       1.0  0.16764  0.71169  0.17879  1.0000
  Fe  Fe37      1.0  0.20851  0.72528  0.25655  1.0000
  Fe  Fe38      1.0  0.20098  0.67871  0.25781  1.0000
  S   S72       1.0  0.18892  0.65753  0.28992  1.0000
  S   S73       1.0  0.21721  0.72486  0.21447  1.0000
  S   S74       1.0  0.20941  0.67503  0.21569  1.0000
  Fe  Fe39      1.0  0.18884  0.49750  0.35656  1.0000
  H   H218      1.0  0.04263  0.53139  0.21407  1.0000
  H   H219      1.0  0.11673  0.55550  0.39197  1.0000
  H   H220      1.0  0.09114  0.68741  0.06031  1.0000
  H   H221      1.0  0.04638  0.64099  0.03091  1.0000
  H   H222      1.0  0.18553  0.72062  0.36926  1.0000
  H   H223      1.0  0.02395  0.56412  0.14778  1.0000
  C   C134      1.0  0.24528  0.52144  0.27261  1.0000
  H   H224      1.0  0.19938  0.67017  0.34229  1.0000
  C   C135      1.0  0.19794  0.58837  0.30304  1.0000
  C   C136      1.0  0.18533  0.59974  0.31945  1.0000
  C   C137      1.0  0.18274  0.62085  0.31506  1.0000
  C   C138      1.0  0.19263  0.63084  0.29419  1.0000
  C   C139      1.0  0.20522  0.61947  0.27774  1.0000
  C   C140      1.0  0.20787  0.59836  0.28220  1.0000
  H   H225      1.0  0.17762  0.59229  0.33556  1.0000
  H   H226      1.0  0.17296  0.62947  0.32789  1.0000
  H   H227      1.0  0.21294  0.62692  0.26163  1.0000
  H   H228      1.0  0.21767  0.58974  0.26939  1.0000
  H   H229      1.0  0.00007  0.51745  0.15651  1.0000
  C   C141      1.0  0.17744  0.53568  0.46725  1.0000
  C   C142      1.0  0.16484  0.51898  0.47207  1.0000
  H   H230      1.0  0.06975  0.53455  0.21157  1.0000
  H   H231      1.0  0.16099  0.50917  0.45653  1.0000
  C   C143      1.0  0.00869  0.59094  0.16199  1.0000
  H   H232      1.0  0.07168  0.66874  0.06443  1.0000
  C   C144      1.0  0.18776  0.70607  0.32151  1.0000
  H   H233      1.0  0.10109  0.70805  0.19997  1.0000
  H   H234      1.0  0.12602  0.51376  0.43957  1.0000
  H   H235      1.0  0.05923  0.51524  0.23265  1.0000
  C   C145      1.0  0.11321  0.67262  0.15681  1.0000
  C   C146      1.0  0.12756  0.66504  0.17439  1.0000
  C   C147      1.0  0.14408  0.67695  0.18166  1.0000
  C   C148      1.0  0.14661  0.69649  0.17107  1.0000
  C   C149      1.0  0.13222  0.70410  0.15348  1.0000
  C   C150      1.0  0.11554  0.69226  0.14642  1.0000
  H   H236      1.0  0.12597  0.64981  0.18242  1.0000
  H   H237      1.0  0.15508  0.67087  0.19511  1.0000
  H   H238      1.0  0.13417  0.71916  0.14508  1.0000
  H   H239      1.0  0.10482  0.69816  0.13254  1.0000
  C   C151      1.0  0.01471  0.57032  0.16327  1.0000
  C   C152      1.0  0.03715  0.66972  0.01410  1.0000
  C   C153      1.0  0.04435  0.64964  0.01322  1.0000
  H   H240      1.0  0.08877  0.69893  0.22911  1.0000
  H   H241      1.0  0.25392  0.51428  0.32281  1.0000
  C   C154      1.0  0.29860  0.66465  0.15576  1.0000
  C   C155      1.0  0.28340  0.67302  0.17228  1.0000
  C   C156      1.0  0.28882  0.68519  0.19281  1.0000
  C   C157      1.0  0.30970  0.68872  0.19646  1.0000
  N   N13       1.0  0.05583  0.54573  0.24642  1.0000
  C   C158      1.0  0.03874  0.54037  0.26409  1.0000
  H   H242      1.0  0.26750  0.67011  0.16906  1.0000
  H   H243      1.0  0.08966  0.53378  0.41164  1.0000
  H   H244      1.0  0.11067  0.57446  0.41545  1.0000
  C   C159      1.0  0.07511  0.54488  0.26063  1.0000
  C   C160      1.0  0.19231  0.70510  0.36741  1.0000
  H   H245      1.0  0.08832  0.54923  0.24804  1.0000
  H   H246      1.0  0.08423  0.55254  0.43560  1.0000
  H   H247      1.0  0.25287  0.73083  0.24903  1.0000
  H   H248      1.0  0.19298  0.56049  0.48449  1.0000
  H   H249      1.0  0.09045  0.52681  0.44523  1.0000
  H   H250      1.0  0.20309  0.70266  0.38347  1.0000
  N   N14       1.0  0.23562  0.50659  0.29059  1.0000
  H   H251      1.0  0.01359  0.71673  0.07080  1.0000
  H   H252      1.0  0.03634  0.70123  0.20186  1.0000
  N   N15       1.0  0.11588  0.54437  0.43119  1.0000
  H   H253      1.0  0.05051  0.69519  0.23040  1.0000
  C   C161      1.0  0.00872  0.55766  0.18425  1.0000
  C   C162      1.0  0.05692  0.53112  0.22520  1.0000
  C   C163      1.0  0.21140  0.68196  0.34037  1.0000
  H   H254      1.0  0.08059  0.71816  0.16236  1.0000
  H   H255      1.0  0.06492  0.57100  0.22199  1.0000
  C   C164      1.0  0.06200  0.50531  0.31500  1.0000
  H   H256      1.0  0.20606  0.49380  0.29791  1.0000
  H   H257      1.0  0.11311  0.66714  0.08957  1.0000
  C   C165      1.0  0.07517  0.51383  0.33292  1.0000
  H   H258      1.0  0.05172  0.57792  0.25124  1.0000
  H   H259      1.0  0.05343  0.71499  0.16332  1.0000
  H   H260      1.0  0.07844  0.73892  0.20136  1.0000
  N   N16       1.0  0.06829  0.70809  0.19903  1.0000
  S   S75       1.0  0.00884  0.71442  0.15495  1.0000
  H   H261      1.0  0.99943  0.70801  0.02813  1.0000
  H   H262      1.0  0.14466  0.52978  0.42378  1.0000
  C   C166      1.0  0.05130  0.69546  0.20900  1.0000
  C   C167      1.0  0.18313  0.54760  0.48800  1.0000
  H   H263      1.0  0.12401  0.51996  0.40601  1.0000
  H   H264      1.0  0.01383  0.54202  0.18514  1.0000
  C   C168      1.0  0.12005  0.56061  0.41177  1.0000
  H   H265      1.0  0.31441  0.66294  0.04907  1.0000
  H   H266      1.0  0.31422  0.69803  0.21221  1.0000
  C   C169      1.0  0.08785  0.69925  0.20775  1.0000
  C   C170      1.0  0.09639  0.51054  0.33124  1.0000
  H   H267      1.0  0.29410  0.65532  0.14001  1.0000
  C   C171      1.0  0.09406  0.53917  0.43096  1.0000
  H   H268      1.0  0.13635  0.56513  0.41183  1.0000
  C   C172      1.0  0.31949  0.66808  0.15951  1.0000
  H   H269      1.0  0.13777  0.55546  0.45756  1.0000
  N   N17       1.0  0.20265  0.70272  0.34213  1.0000
  H   H270      1.0  0.23791  0.53677  0.27425  1.0000
  H   H271      1.0  0.09420  0.64792  0.09331  1.0000
  H   H272      1.0  0.18100  0.72168  0.32187  1.0000
  H   H273      1.0  0.99919  0.73294  0.09205  1.0000
  H   H274      1.0  0.23083  0.52898  0.31968  1.0000
  H   H275      1.0  0.05123  0.73604  0.20218  1.0000
  H   H276      1.0  0.04573  0.50781  0.31676  1.0000
  C   C173      1.0  0.21909  0.71780  0.33912  1.0000
  H   H277      1.0  0.06588  0.72921  0.23000  1.0000
  C   C174      1.0  0.99679  0.59879  0.18215  1.0000
  H   H278      1.0  0.17521  0.69483  0.32283  1.0000
  S   S76       1.0  0.01409  0.60538  0.13341  1.0000
  H   H279      1.0  0.22278  0.67881  0.35554  1.0000
  H   H280      1.0  0.07906  0.63263  0.05526  1.0000
  S   S77       1.0  0.99727  0.50700  0.28049  1.0000
  H   H281      1.0  0.07466  0.55519  0.27734  1.0000
  S   S78       1.0  0.00543  0.66482  0.10830  1.0000
  H   H282      1.0  0.26173  0.52319  0.27669  1.0000
  H   H283      1.0  0.06886  0.52289  0.34832  1.0000
  H   H284      1.0  0.07828  0.52926  0.26832  1.0000
  H   H285      1.0  0.19514  0.70430  0.30232  1.0000
  H   H286      1.0  0.11873  0.53942  0.47209  1.0000
  H   H287      1.0  0.03789  0.56766  0.22521  1.0000
  C   C175      1.0  0.05248  0.56650  0.23574  1.0000
  H   H288      1.0  0.22988  0.50307  0.33109  1.0000
  H   H289      1.0  0.04057  0.52466  0.27211  1.0000
  H   H290      1.0  0.03758  0.55081  0.28062  1.0000
  H   H291      1.0  0.22717  0.71636  0.32018  1.0000
  C   C176      1.0  0.21379  0.50497  0.28470  1.0000
  H   H292      1.0  0.11232  0.56512  0.46249  1.0000
  H   H293      1.0  0.32322  0.68498  0.03123  1.0000
  C   C177      1.0  0.06808  0.70864  0.17061  1.0000
  H   H294      1.0  0.10404  0.62495  0.04444  1.0000
  N   N18       1.0  0.10110  0.65657  0.05395  1.0000
  C   C178      1.0  0.08544  0.67287  0.05281  1.0000
  C   C179      1.0  0.11903  0.66270  0.03813  1.0000
  C   C180      1.0  0.09269  0.63764  0.04383  1.0000
  H   H295      1.0  0.05305  0.67943  0.20275  1.0000
  H   H296      1.0  0.08789  0.63974  0.02348  1.0000
  H   H297      1.0  0.13113  0.65070  0.03843  1.0000
  S   S79       1.0  0.01377  0.49542  0.22218  1.0000
  C   C181      1.0  0.99789  0.72116  0.07711  1.0000
  H   H298      1.0  0.12054  0.49596  0.30969  1.0000
  C   C182      1.0  0.10429  0.49870  0.31126  1.0000
  H   H299      1.0  0.21296  0.73366  0.33982  1.0000
  H   H300      1.0  0.17978  0.69396  0.37015  1.0000
  H   H301      1.0  0.21912  0.67959  0.32135  1.0000
  H   H302      1.0  0.02393  0.54107  0.25407  1.0000
  H   H303      1.0  0.27959  0.72974  0.25419  1.0000
  H   H304      1.0  0.24399  0.51674  0.25228  1.0000
  C   C183      1.0  0.23770  0.51356  0.31721  1.0000
  H   H305      1.0  0.07005  0.69312  0.16281  1.0000
  C   C184      1.0  0.12818  0.52616  0.42491  1.0000
  C   C185      1.0  0.06991  0.49335  0.29511  1.0000
  H   H306      1.0  0.20574  0.51988  0.28680  1.0000
  H   H307      1.0  0.11933  0.64115  0.08255  1.0000
  H   H308      1.0  0.23059  0.71589  0.35441  1.0000
  C   C186      1.0  0.06586  0.72900  0.20859  1.0000
  C   C187      1.0  0.12135  0.55142  0.45697  1.0000
  H   H309      1.0  0.21156  0.49988  0.26470  1.0000
  C   C188      1.0  0.10723  0.65306  0.08094  1.0000
  H   H310      1.0  0.02858  0.69614  0.99132  1.0000
  H   H311      1.0  0.08031  0.67583  0.03274  1.0000
  H   H312      1.0  0.28545  0.74057  0.20897  1.0000
  C   C189      1.0  0.99587  0.56524  0.20367  1.0000
  H   H313      1.0  0.11489  0.66553  0.01766  1.0000
  S   S80       1.0  0.16376  0.50094  0.38668  1.0000
  C   C190      1.0  0.26600  0.74004  0.25472  1.0000
  C   C191      1.0  0.03413  0.68060  0.99089  1.0000
  C   C192      1.0  0.32490  0.68020  0.18007  1.0000
  H   H314      1.0  0.32410  0.67888  0.08989  1.0000
  H   H315      1.0  0.99182  0.61453  0.18130  1.0000
  Fe  Fe40      1.0  0.01348  0.68393  0.87251  1.0000
  S   S81       1.0  0.04585  0.68589  0.88540  1.0000
  Fe  Fe41      1.0  0.02035  0.64171  0.84843  1.0000
  S   S82       1.0  0.05343  0.64065  0.85931  1.0000
  C   C193      1.0  0.00544  0.59499  0.81767  1.0000
  Fe  Fe42      1.0  0.04223  0.65312  0.89763  1.0000
  S   S83       1.0  0.05242  0.64010  0.93638  1.0000
  Fe  Fe43      1.0  0.05466  0.67363  0.84650  1.0000
  S   S84       1.0  0.07538  0.69032  0.81742  1.0000
  S   S85       1.0  0.02228  0.67389  0.83300  1.0000
  Fe  Fe44      1.0  0.16606  0.52484  0.58749  1.0000
  S   S86       1.0  0.15089  0.52283  0.54849  1.0000
  Fe  Fe45      1.0  0.18800  0.54418  0.63188  1.0000
  S   S87       1.0  0.18900  0.51461  0.65446  1.0000
  S   S88       1.0  0.20404  0.56888  0.65377  1.0000
  H   H316      1.0  0.02181  0.55117  0.84730  1.0000
  Fe  Fe46      1.0  0.15627  0.51155  0.64347  1.0000
  S   S89       1.0  0.00150  0.62148  0.82283  1.0000
  S   S90       1.0  0.19930  0.52935  0.59515  1.0000
  S   S91       1.0  0.15470  0.54186  0.62267  1.0000
  Fe  Fe47      1.0  0.20995  0.72317  0.72565  1.0000
  S   S92       1.0  0.21837  0.71527  0.76693  1.0000
  Fe  Fe48      1.0  0.19944  0.67906  0.71409  1.0000
  S   S93       1.0  0.20673  0.66783  0.75382  1.0000
  S   S94       1.0  0.18532  0.66166  0.68133  1.0000
  Fe  Fe49      1.0  0.19025  0.69574  0.76783  1.0000
  S   S95       1.0  0.17238  0.69162  0.80565  1.0000
  Fe  Fe50      1.0  0.23472  0.68761  0.75159  1.0000
  S   S96       1.0  0.26321  0.67179  0.76893  1.0000
  S   S97       1.0  0.18065  0.70576  0.72821  1.0000
  S   S98       1.0  0.22856  0.69669  0.71019  1.0000
  C   C194      1.0  0.13668  0.58299  0.70594  1.0000
  H   H317      1.0  0.21133  0.51527  0.50316  1.0000
  H   H318      1.0  0.22152  0.70370  0.86167  1.0000
  C   C195      1.0  0.16234  0.52732  0.51775  1.0000
  C   C196      1.0  0.17583  0.54332  0.51318  1.0000
  C   C197      1.0  0.99824  0.58638  0.79503  1.0000
  H   H319      1.0  0.17998  0.55291  0.52885  1.0000
  C   C198      1.0  0.22466  0.66694  0.81684  1.0000
  C   C199      1.0  0.31295  0.69778  0.80196  1.0000
  C   C200      1.0  0.21510  0.49872  0.50302  1.0000
  H   H320      1.0  0.22490  0.67727  0.79971  1.0000
  H   H321      1.0  0.31832  0.71291  0.80554  1.0000
  H   H322      1.0  0.17286  0.70525  0.67322  1.0000
  C   C201      1.0  0.03782  0.72976  0.82104  1.0000
  H   H323      1.0  0.12119  0.58869  0.71137  1.0000
  C   C202      1.0  0.04890  0.64073  0.98929  1.0000
  H   H324      1.0  0.16586  0.71120  0.61623  1.0000
  H   H325      1.0  0.20883  0.66119  0.81920  1.0000
  C   C203      1.0  0.19758  0.59429  0.66211  1.0000
  C   C204      1.0  0.20968  0.60416  0.67994  1.0000
  C   C205      1.0  0.20576  0.62454  0.68656  1.0000
  C   C206      1.0  0.18982  0.63545  0.67511  1.0000
  C   C207      1.0  0.17750  0.62552  0.65751  1.0000
  C   C208      1.0  0.18124  0.60500  0.65117  1.0000
  H   H326      1.0  0.22237  0.59605  0.68850  1.0000
  H   H327      1.0  0.21541  0.63194  0.70006  1.0000
  H   H328      1.0  0.16516  0.63382  0.64848  1.0000
  H   H329      1.0  0.17189  0.59769  0.63728  1.0000
  C   C209      1.0  0.04587  0.65163  0.96604  1.0000
  C   C210      1.0  0.03829  0.67157  0.96698  1.0000
  H   H330      1.0  0.20816  0.69642  0.65921  1.0000
  H   H331      1.0  0.03592  0.68013  0.94926  1.0000
  C   C211      1.0  0.06622  0.50029  0.68340  1.0000
  H   H332      1.0  0.21613  0.70552  0.82788  1.0000
  H   H333      1.0  0.23612  0.67126  0.87986  1.0000
  H   H334      1.0  0.02246  0.73445  0.81428  1.0000
  H   H335      1.0  0.23498  0.65389  0.81225  1.0000
  C   C212      1.0  0.15698  0.51510  0.49712  1.0000
  C   C213      1.0  0.10236  0.68911  0.81407  1.0000
  C   C214      1.0  0.11480  0.68213  0.83401  1.0000
  C   C215      1.0  0.13619  0.68283  0.83107  1.0000
  C   C216      1.0  0.14538  0.69013  0.80803  1.0000
  C   C217      1.0  0.13293  0.69678  0.78794  1.0000
  C   C218      1.0  0.11156  0.69647  0.79108  1.0000
  H   H336      1.0  0.10796  0.67651  0.85184  1.0000
  H   H337      1.0  0.14566  0.67768  0.84674  1.0000
  H   H338      1.0  0.13975  0.70250  0.77016  1.0000
  H   H339      1.0  0.10209  0.70194  0.77555  1.0000
  H   H340      1.0  0.25753  0.69408  0.85179  1.0000
  C   C219      1.0  0.00822  0.55235  0.80988  1.0000
  C   C220      1.0  0.29882  0.65901  0.79237  1.0000
  C   C221      1.0  0.28703  0.67596  0.78428  1.0000
  C   C222      1.0  0.29424  0.69541  0.78932  1.0000
  C   C223      1.0  0.32481  0.68082  0.80990  1.0000
  H   H341      1.0  0.14266  0.59294  0.68994  1.0000
  H   H342      1.0  0.29351  0.64386  0.78866  1.0000
  H   H343      1.0  0.28548  0.70864  0.78333  1.0000
  H   H344      1.0  0.26306  0.67316  0.83095  1.0000
  C   C224      1.0  0.21695  0.69485  0.84479  1.0000
  H   H345      1.0  0.19135  0.70476  0.60560  1.0000
  H   H346      1.0  0.24190  0.65052  0.85883  1.0000
  H   H347      1.0  0.05458  0.62524  0.98870  1.0000
  H   H348      1.0  0.07670  0.73604  0.83243  1.0000
  C   C225      1.0  0.07609  0.50689  0.66048  1.0000
  S   S99       1.0  0.13646  0.49946  0.67678  1.0000
  C   C226      1.0  0.10938  0.50010  0.67877  1.0000
  H   H349      1.0  0.16008  0.72686  0.65902  1.0000
  H   H350      1.0  0.21584  0.65723  0.86603  1.0000
  Fe  Fe51      1.0  0.19762  0.49965  0.61745  1.0000
  C   C227      1.0  0.23127  0.66357  0.86217  1.0000
  C   C228      1.0  0.23252  0.50089  0.54336  1.0000
  C   C229      1.0  0.17526  0.72065  0.66442  1.0000
  C   C230      1.0  0.09753  0.50686  0.65815  1.0000
  Fe  Fe52      1.0  0.01849  0.49201  0.71952  1.0000
  C   C231      1.0  0.06567  0.73657  0.84901  1.0000
  N   N19       1.0  0.23122  0.67777  0.83976  1.0000
  S   S100      1.0  0.03912  0.50025  0.68496  1.0000
  S   S101      1.0  0.00923  0.65189  0.88741  1.0000
  C   C232      1.0  0.18108  0.70591  0.62281  1.0000
  H   H351      1.0  0.14669  0.58511  0.72268  1.0000
  N   N20       1.0  0.18936  0.71973  0.64197  1.0000
  C   C233      1.0  0.20941  0.71193  0.65031  1.0000
  H   H352      1.0  0.06705  0.51192  0.64432  1.0000
  C   C234      1.0  0.01427  0.58215  0.83624  1.0000
  S   S102      1.0  0.16493  0.49448  0.60806  1.0000
  H   H353      1.0  0.10482  0.51181  0.64029  1.0000
  C   C235      1.0  0.25196  0.68569  0.83502  1.0000
  H   H354      1.0  0.25247  0.69623  0.81793  1.0000
  C   C236      1.0  0.99991  0.56524  0.79095  1.0000
  H   H355      1.0  0.17927  0.69022  0.63113  1.0000
  C   C237      1.0  0.01539  0.56097  0.83249  1.0000
  C   C238      1.0  0.19171  0.74037  0.63052  1.0000
  H   H356      1.0  0.01976  0.58846  0.85383  1.0000
  H   H357      1.0  0.16796  0.55659  0.70695  1.0000
  H   H358      1.0  0.23394  0.49487  0.56346  1.0000
  H   H359      1.0  0.06524  0.72087  0.85742  1.0000
  Fe  Fe53      1.0  0.00397  0.50505  0.77267  1.0000
  N   N21       1.0  0.13629  0.56145  0.69837  1.0000
  C   C239      1.0  0.12869  0.54869  0.72020  1.0000
  C   C240      1.0  0.12271  0.55931  0.67626  1.0000
  C   C241      1.0  0.15712  0.55475  0.69101  1.0000
  H   H360      1.0  0.11297  0.55328  0.72626  1.0000
  H   H361      1.0  0.13861  0.54976  0.73721  1.0000
  H   H362      1.0  0.12815  0.53235  0.71496  1.0000
  H   H363      1.0  0.20116  0.68935  0.84853  1.0000
  H   H364      1.0  0.12781  0.56890  0.65949  1.0000
  H   H365      1.0  0.10675  0.56381  0.68127  1.0000
  H   H366      1.0  0.12238  0.54327  0.66983  1.0000
  H   H367      1.0  0.16314  0.56376  0.67422  1.0000
  H   H368      1.0  0.15750  0.53846  0.68569  1.0000
  H   H369      1.0  0.03676  0.71393  0.82873  1.0000
  S   S103      1.0  0.00848  0.52536  0.80729  1.0000
  H   H370      1.0  0.18129  0.73057  0.67954  1.0000
  H   H371      1.0  0.22966  0.49685  0.49195  1.0000
  H   H372      1.0  0.22047  0.71092  0.63389  1.0000
  H   H373      1.0  0.14670  0.50256  0.50055  1.0000
  H   H374      1.0  0.02952  0.72769  0.87177  1.0000
  H   H375      1.0  0.21612  0.72199  0.66480  1.0000
  C   C242      1.0  0.09955  0.49366  0.70178  1.0000
  H   H376      1.0  0.24769  0.49920  0.53367  1.0000
  C   C243      1.0  0.31751  0.66138  0.80505  1.0000
  C   C244      1.0  0.07810  0.49378  0.70413  1.0000
  H   H377      1.0  0.22901  0.51746  0.54456  1.0000
  H   H378      1.0  0.04838  0.72921  0.80401  1.0000
  H   H379      1.0  0.99461  0.55892  0.77331  1.0000
  H   H380      1.0  0.20223  0.74029  0.61348  1.0000
  C   C245      1.0  0.19682  0.49278  0.54313  1.0000
  H   H381      1.0  0.19300  0.50913  0.54544  1.0000
  S   S104      1.0  0.99501  0.51513  0.73289  1.0000
  H   H382      1.0  0.20294  0.49125  0.49210  1.0000
  C   C246      1.0  0.14138  0.95851  0.35477  1.0000
  Fe  Fe54      1.0  0.01904  0.96973  0.25800  1.0000
  S   S105      1.0  0.04892  0.95158  0.26452  1.0000
  S   S106      1.0  0.01593  0.97554  0.21524  1.0000
  Fe  Fe55      1.0  0.18171  0.90709  0.35151  1.0000
  S   S107      1.0  0.15775  0.90962  0.38273  1.0000
  S   S108      1.0  0.19719  0.93791  0.34600  1.0000
  Fe  Fe56      1.0  0.16845  0.86327  0.33875  1.0000
  S   S109      1.0  0.14359  0.86381  0.36960  1.0000
  S   S110      1.0  0.17019  0.83734  0.30922  1.0000
  Fe  Fe57      1.0  0.13632  0.89573  0.35486  1.0000
  S   S111      1.0  0.10470  0.91140  0.35285  1.0000
  Fe  Fe58      1.0  0.16704  0.87807  0.39475  1.0000
  S   S112      1.0  0.17660  0.86858  0.43568  1.0000
  S   S113      1.0  0.15983  0.89464  0.32300  1.0000
  S   S114      1.0  0.19234  0.87593  0.36463  1.0000
  H   H383      1.0  0.02064  0.91725  0.19942  1.0000
  C   C247      1.0  0.18221  0.81312  0.30347  1.0000
  C   C248      1.0  0.19756  0.80493  0.31907  1.0000
  C   C249      1.0  0.20679  0.78594  0.31327  1.0000
  C   C250      1.0  0.20076  0.77468  0.29196  1.0000
  C   C251      1.0  0.18534  0.78278  0.27646  1.0000
  C   C252      1.0  0.17624  0.80185  0.28214  1.0000
  H   H384      1.0  0.20242  0.81333  0.33548  1.0000
  H   H385      1.0  0.21872  0.77999  0.32542  1.0000
  H   H386      1.0  0.18048  0.77448  0.25997  1.0000
  H   H387      1.0  0.16445  0.80795  0.26986  1.0000
  H   H388      1.0  0.25141  0.78447  0.22555  1.0000
  C   C253      1.0  0.16906  0.87702  0.46693  1.0000
  C   C254      1.0  0.15494  0.89284  0.47061  1.0000
  C   C255      1.0  0.02440  0.91911  0.22003  1.0000
  H   H389      1.0  0.14800  0.90020  0.45411  1.0000
  C   C256      1.0  0.06398  0.94041  0.28956  1.0000
  C   C257      1.0  0.05856  0.94159  0.31567  1.0000
  C   C258      1.0  0.07106  0.93240  0.33460  1.0000
  C   C259      1.0  0.08913  0.92185  0.32783  1.0000
  C   C260      1.0  0.09447  0.92056  0.30168  1.0000
  C   C261      1.0  0.08202  0.92981  0.28277  1.0000
  H   H390      1.0  0.04476  0.94961  0.32132  1.0000
  H   H391      1.0  0.06669  0.93352  0.35472  1.0000
  H   H392      1.0  0.10813  0.91232  0.29599  1.0000
  H   H393      1.0  0.08638  0.92867  0.26266  1.0000
  C   C262      1.0  0.26415  0.95741  0.35282  1.0000
  C   C263      1.0  0.24827  0.97178  0.35303  1.0000
  C   C264      1.0  0.22791  0.96549  0.35101  1.0000
  C   C265      1.0  0.22313  0.94480  0.34893  1.0000
  C   C266      1.0  0.23898  0.93040  0.34889  1.0000
  C   C267      1.0  0.25934  0.93669  0.35088  1.0000
  H   H394      1.0  0.10792  0.95968  0.32641  1.0000
  H   H395      1.0  0.21582  0.97680  0.35091  1.0000
  H   H396      1.0  0.23564  0.91448  0.34665  1.0000
  H   H397      1.0  0.27153  0.92548  0.35046  1.0000
  C   C268      1.0  0.22189  0.90710  0.45471  1.0000
  H   H398      1.0  0.23617  0.93673  0.40308  1.0000
  H   H399      1.0  0.28885  0.78308  0.23213  1.0000
  C   C269      1.0  0.23645  0.93068  0.42326  1.0000
  H   H400      1.0  0.22536  0.90214  0.38985  1.0000
  H   H401      1.0  0.23631  0.76249  0.23308  1.0000
  C   C270      1.0  0.17790  0.86770  0.48873  1.0000
  N   N22       1.0  0.26859  0.75783  0.23719  1.0000
  C   C271      1.0  0.20078  0.92244  0.42200  1.0000
  N   N23       1.0  0.01764  0.90158  0.23611  1.0000
  H   H402      1.0  0.25224  0.92509  0.42676  1.0000
  S   S115      1.0  0.29013  0.96446  0.35483  1.0000
  H   H403      1.0  0.24178  0.89110  0.41369  1.0000
  H   H404      1.0  0.15539  0.98286  0.29897  1.0000
  H   H405      1.0  0.11594  0.98522  0.33132  1.0000
  H   H406      1.0  0.18885  0.85545  0.48616  1.0000
  H   H407      1.0  0.01525  0.91926  0.27046  1.0000
  H   H408      1.0  0.25173  0.98775  0.35443  1.0000
  C   C272      1.0  0.15562  0.97897  0.31991  1.0000
  H   H409      1.0  0.01679  0.93334  0.22640  1.0000
  H   H410      1.0  0.27392  0.76372  0.19668  1.0000
  H   H411      1.0  0.16053  0.93911  0.31551  1.0000
  H   H412      1.0  0.28451  0.77497  0.26502  1.0000
  N   N24       1.0  0.14036  0.96337  0.32692  1.0000
  H   H413      1.0  0.21069  0.89471  0.45846  1.0000
  C   C273      1.0  0.02262  0.90507  0.26329  1.0000
  H   H414      1.0  0.11815  0.97435  0.29987  1.0000
  C   C274      1.0  0.14476  0.94483  0.31219  1.0000
  C   C275      1.0  0.27182  0.75078  0.21055  1.0000
  H   H415      1.0  0.02340  0.86939  0.23899  1.0000
  H   H416      1.0  0.03932  0.90687  0.26570  1.0000
  C   C276      1.0  0.25012  0.77089  0.23858  1.0000
  S   S116      1.0  0.21334  0.75089  0.28545  1.0000
  C   C277      1.0  0.22619  0.89731  0.41045  1.0000
  H   H417      1.0  0.19975  0.92786  0.40160  1.0000
  H   H418      1.0  0.19661  0.93543  0.43448  1.0000
  C   C278      1.0  0.11972  0.97106  0.32084  1.0000
  C   C279      1.0  0.02817  0.88294  0.22727  1.0000
  H   H419      1.0  0.13801  0.97210  0.36655  1.0000
  H   H420      1.0  0.23345  0.94374  0.43612  1.0000
  H   H421      1.0  0.04499  0.88426  0.22877  1.0000
  H   H422      1.0  0.99643  0.75645  0.15936  1.0000
  N   N25       1.0  0.22135  0.91440  0.42762  1.0000
  H   H423      1.0  0.02477  0.87992  0.20680  1.0000
  H   H424      1.0  0.04110  0.92152  0.22139  1.0000
  H   H425      1.0  0.18903  0.91054  0.42527  1.0000
  H   H426      1.0  0.21532  0.88458  0.41364  1.0000
  H   H427      1.0  0.14326  0.94759  0.29112  1.0000
  H   H428      1.0  0.30061  0.76004  0.24412  1.0000
  H   H429      1.0  0.23720  0.90093  0.45967  1.0000
  H   H430      1.0  0.01758  0.89228  0.27613  1.0000
  H   H431      1.0  0.25868  0.74179  0.20409  1.0000
  H   H432      1.0  0.21806  0.91951  0.46827  1.0000
  H   H433      1.0  0.24714  0.77633  0.25848  1.0000
  H   H434      1.0  0.26309  0.74467  0.27495  1.0000
  H   H435      1.0  0.17135  0.97346  0.32434  1.0000
  H   H436      1.0  0.15677  0.95271  0.36000  1.0000
  H   H437      1.0  0.13418  0.93239  0.31794  1.0000
  C   C280      1.0  0.28644  0.76951  0.24496  1.0000
  H   H438      1.0  0.13024  0.94656  0.36065  1.0000
  C   C281      1.0  0.99540  0.89928  0.23377  1.0000
  H   H439      1.0  0.00015  0.98677  0.14447  1.0000
  H   H440      1.0  0.99684  0.75908  0.05693  1.0000
  C   C282      1.0  0.99555  0.74652  0.04303  1.0000
  H   H441      1.0  0.01119  0.74268  0.03584  1.0000
  C   C283      1.0  0.02557  0.93003  0.75229  1.0000
  C   C284      1.0  0.14965  0.89907  0.49577  1.0000
  C   C285      1.0  0.01584  0.89863  0.77378  1.0000
  S   S117      1.0  0.04835  0.97570  0.71200  1.0000
  Fe  Fe59      1.0  0.16225  0.86146  0.63912  1.0000
  S   S118      1.0  0.13570  0.87218  0.61519  1.0000
  S   S119      1.0  0.16182  0.82912  0.65781  1.0000
  Fe  Fe60      1.0  0.17972  0.90440  0.63905  1.0000
  S   S120      1.0  0.15427  0.91819  0.61588  1.0000
  S   S121      1.0  0.20517  0.92113  0.65910  1.0000
  Fe  Fe61      1.0  0.13280  0.89946  0.64069  1.0000
  S   S122      1.0  0.09915  0.90724  0.65054  1.0000
  Fe  Fe62      1.0  0.15804  0.89047  0.59109  1.0000
  S   S123      1.0  0.15076  0.89813  0.54880  1.0000
  S   S124      1.0  0.15790  0.88763  0.66601  1.0000
  S   S125      1.0  0.18510  0.87773  0.61289  1.0000
  H   H442      1.0  0.22277  0.85393  0.65940  1.0000
  C   C286      1.0  0.15839  0.88964  0.51759  1.0000
  C   C287      1.0  0.17261  0.87392  0.51389  1.0000
  H   H443      1.0  0.06797  0.88086  0.58559  1.0000
  H   H444      1.0  0.17949  0.86649  0.53039  1.0000
  H   H445      1.0  0.06256  0.90394  0.54770  1.0000
  C   C288      1.0  0.17689  0.80824  0.67010  1.0000
  C   C289      1.0  0.19804  0.80692  0.66636  1.0000
  C   C290      1.0  0.20922  0.79031  0.67692  1.0000
  C   C291      1.0  0.19951  0.77460  0.69122  1.0000
  C   C292      1.0  0.17833  0.77574  0.69463  1.0000
  C   C293      1.0  0.16717  0.79241  0.68416  1.0000
  H   H446      1.0  0.20580  0.81855  0.65510  1.0000
  H   H447      1.0  0.22554  0.78954  0.67384  1.0000
  H   H448      1.0  0.17054  0.76392  0.70558  1.0000
  H   H449      1.0  0.15083  0.79313  0.68718  1.0000
  C   C294      1.0  0.06210  0.95618  0.69526  1.0000
  C   C295      1.0  0.08347  0.95736  0.69305  1.0000
  C   C296      1.0  0.09509  0.94254  0.67972  1.0000
  C   C297      1.0  0.08547  0.92627  0.66824  1.0000
  C   C298      1.0  0.06407  0.92508  0.67044  1.0000
  C   C299      1.0  0.05246  0.93989  0.68383  1.0000
  H   H450      1.0  0.09117  0.96988  0.70169  1.0000
  H   H451      1.0  0.11147  0.94377  0.67822  1.0000
  H   H452      1.0  0.05639  0.91268  0.66152  1.0000
  H   H453      1.0  0.03604  0.93893  0.68482  1.0000
  C   C300      1.0  0.25296  0.96382  0.62110  1.0000
  C   C301      1.0  0.25246  0.96033  0.64777  1.0000
  C   C302      1.0  0.23769  0.94731  0.65910  1.0000
  C   C303      1.0  0.22326  0.93766  0.64396  1.0000
  C   C304      1.0  0.22370  0.94128  0.61735  1.0000
  C   C305      1.0  0.23846  0.95425  0.60604  1.0000
  H   H454      1.0  0.26356  0.96745  0.65962  1.0000
  H   H455      1.0  0.23753  0.94460  0.67970  1.0000
  H   H456      1.0  0.21275  0.93399  0.60542  1.0000
  H   H457      1.0  0.23868  0.95685  0.58540  1.0000
  H   H458      1.0  0.08865  0.87622  0.54543  1.0000
  H   H459      1.0  0.09095  0.88259  0.60353  1.0000
  H   H460      1.0  0.07228  0.90250  0.60539  1.0000
  C   C306      1.0  0.07446  0.91399  0.55527  1.0000
  H   H461      1.0  0.00540  0.90689  0.78724  1.0000
  H   H462      1.0  0.24676  0.86775  0.69096  1.0000
  C   C307      1.0  0.09975  0.88711  0.55299  1.0000
  H   H463      1.0  0.23265  0.89131  0.69138  1.0000
  C   C308      1.0  0.07973  0.89155  0.59199  1.0000
  H   H464      1.0  0.02658  0.93886  0.73381  1.0000
  H   H465      1.0  0.19588  0.85499  0.66621  1.0000
  H   H466      1.0  0.10761  0.89462  0.53620  1.0000
  H   H467      1.0  0.11160  0.87810  0.56340  1.0000
  H   H468      1.0  0.08163  0.92222  0.53854  1.0000
  H   H469      1.0  0.06669  0.92553  0.56754  1.0000
  H   H470      1.0  0.20967  0.87796  0.65970  1.0000
  N   N26       1.0  0.08978  0.90219  0.56994  1.0000
  C   C309      1.0  0.10521  0.91616  0.57954  1.0000
  H   H471      1.0  0.11698  0.90771  0.59057  1.0000
  H   H472      1.0  0.11332  0.92435  0.56349  1.0000
  H   H473      1.0  0.09835  0.92759  0.59274  1.0000
  N   N27       1.0  0.21448  0.86457  0.69712  1.0000
  C   C310      1.0  0.19749  0.87583  0.70957  1.0000
  C   C311      1.0  0.21619  0.84402  0.70907  1.0000
  C   C312      1.0  0.23363  0.87574  0.70031  1.0000
  C   C313      1.0  0.21054  0.86275  0.66940  1.0000
  H   H474      1.0  0.19560  0.89133  0.70077  1.0000
  H   H475      1.0  0.20002  0.87770  0.73047  1.0000
  H   H476      1.0  0.18280  0.86777  0.70756  1.0000
  H   H477      1.0  0.22857  0.83489  0.69981  1.0000
  H   H478      1.0  0.21940  0.84475  0.72996  1.0000
  H   H479      1.0  0.20180  0.83541  0.70715  1.0000
  H   H480      1.0  0.23714  0.87751  0.72099  1.0000
  S   S126      1.0  0.01411  0.98347  0.77097  1.0000
  H   H481      1.0  0.03086  0.89723  0.78321  1.0000
  H   H482      1.0  0.99784  0.91914  0.71797  1.0000
  H   H483      1.0  0.03133  0.77002  0.82347  1.0000
  C   C314      1.0  0.03153  0.89806  0.73133  1.0000
  H   H484      1.0  0.05208  0.77519  0.84428  1.0000
  H   H485      1.0  0.03304  0.90578  0.71213  1.0000
  S   S127      1.0  0.21464  0.75390  0.70377  1.0000
  H   H486      1.0  0.00962  0.88309  0.77183  1.0000
  S   S128      1.0  0.27075  0.98039  0.60546  1.0000
  N   N28       1.0  0.01754  0.90942  0.74858  1.0000
  H   H487      1.0  0.02603  0.88238  0.72822  1.0000
  H   H488      1.0  0.05712  0.76505  0.81288  1.0000
  H   H489      1.0  0.04709  0.89680  0.73937  1.0000
  C   C315      1.0  0.04652  0.76439  0.82987  1.0000
  H   H490      1.0  0.04108  0.92951  0.76051  1.0000
  H   H491      1.0  0.13868  0.91129  0.49831  1.0000
  Fe  Fe63      1.0  0.01576  0.98147  0.72779  1.0000
  H   H492      1.0  0.01563  0.93881  0.76571  1.0000
  H   H493      1.0  0.19806  0.75099  0.64467  1.0000
  H   H494      1.0  0.17684  0.74689  0.62432  1.0000
  H   H495      1.0  0.03616  0.75332  0.87866  1.0000
  C   C316      1.0  0.99720  0.91100  0.73696  1.0000
  H   H496      1.0  0.01543  0.74840  0.85773  1.0000
  H   H497      1.0  0.07196  0.74663  0.86375  1.0000
  C   C317      1.0  0.03101  0.74327  0.86320  1.0000
  N   N29       1.0  0.04526  0.74351  0.84080  1.0000
  Fe  Fe64      1.0  0.47093  0.13809  0.12319  1.0000
  S   S129      1.0  0.44102  0.15299  0.11225  1.0000
  S   S130      1.0  0.47005  0.10343  0.12776  1.0000
  Fe  Fe65      1.0  0.49247  0.17947  0.12595  1.0000
  S   S131      1.0  0.46366  0.19670  0.11727  1.0000
  S   S132      1.0  0.52428  0.19319  0.12634  1.0000
  Fe  Fe66      1.0  0.44759  0.17440  0.14405  1.0000
  S   S133      1.0  0.42629  0.18154  0.17826  1.0000
  Fe  Fe67      1.0  0.45970  0.17371  0.08604  1.0000
  S   S134      1.0  0.45367  0.18818  0.04624  1.0000
  S   S135      1.0  0.47708  0.15901  0.15551  1.0000
  S   S136      1.0  0.48889  0.15698  0.09418  1.0000
  H   H498      1.0  0.45978  0.12140  0.17843  1.0000
  C   C318      1.0  0.45209  0.18815  0.99324  1.0000
  Fe  Fe68      1.0  0.34410  0.01941  0.35494  1.0000
  H   H499      1.0  0.41223  0.14048  0.20885  1.0000
  H   H500      1.0  0.56470  0.00733  0.23414  1.0000
  Fe  Fe69      1.0  0.49875  0.01221  0.22528  1.0000
  S   S137      1.0  0.48687  0.00656  0.26574  1.0000
  S   S138      1.0  0.50752  0.04507  0.21529  1.0000
  H   H501      1.0  0.34369  0.03197  0.45352  1.0000
  H   H502      1.0  0.57163  0.06264  0.24344  1.0000
  H   H503      1.0  0.54453  0.05984  0.24192  1.0000
  H   H504      1.0  0.49657  0.19170  0.05151  1.0000
  N   N30       1.0  0.42861  0.11655  0.18966  1.0000
  H   H505      1.0  0.57619  0.03003  0.22105  1.0000
  C   C319      1.0  0.55815  0.05600  0.25367  1.0000
  H   H506      1.0  0.39876  0.11692  0.20717  1.0000
  H   H507      1.0  0.41932  0.11925  0.22930  1.0000
  H   H508      1.0  0.44138  0.08854  0.17580  1.0000
  S   S139      1.0  0.32945  0.04862  0.36895  1.0000
  C   C320      1.0  0.35091  0.12760  0.22327  1.0000
  H   H509      1.0  0.43678  0.08879  0.20987  1.0000
  C   C321      1.0  0.33418  0.03335  0.47064  1.0000
  H   H510      1.0  0.56213  0.21388  0.11882  1.0000
  H   H511      1.0  0.43170  0.11764  0.14841  1.0000
  H   H512      1.0  0.48626  0.22260  0.02699  1.0000
  C   C322      1.0  0.45536  0.17634  0.01576  1.0000
  C   C323      1.0  0.45977  0.15561  0.01342  1.0000
  H   H513      1.0  0.59279  0.03472  0.26316  1.0000
  H   H514      1.0  0.46231  0.14631  0.03052  1.0000
  H   H515      1.0  0.54022  0.03222  0.29054  1.0000
  C   C324      1.0  0.39925  0.18112  0.18088  1.0000
  C   C325      1.0  0.38968  0.18778  0.20374  1.0000
  C   C326      1.0  0.36829  0.18751  0.20688  1.0000
  C   C327      1.0  0.35621  0.18038  0.18721  1.0000
  C   C328      1.0  0.36580  0.17335  0.16457  1.0000
  C   C329      1.0  0.38717  0.17381  0.16132  1.0000
  H   H516      1.0  0.39888  0.19344  0.21901  1.0000
  H   H517      1.0  0.36117  0.19291  0.22444  1.0000
  H   H518      1.0  0.35661  0.16776  0.14925  1.0000
  H   H519      1.0  0.39426  0.16867  0.14361  1.0000
  C   C330      1.0  0.48079  0.08754  0.15224  1.0000
  C   C331      1.0  0.47553  0.06685  0.15356  1.0000
  C   C332      1.0  0.48328  0.05373  0.17294  1.0000
  C   C333      1.0  0.49664  0.06110  0.19108  1.0000
  C   C334      1.0  0.50188  0.08180  0.18979  1.0000
  C   C335      1.0  0.49394  0.09498  0.17058  1.0000
  H   H520      1.0  0.46541  0.06090  0.13945  1.0000
  H   H521      1.0  0.47917  0.03784  0.17358  1.0000
  H   H522      1.0  0.51226  0.08767  0.20363  1.0000
  H   H523      1.0  0.49826  0.11080  0.16973  1.0000
  N   N31       1.0  0.56046  0.03376  0.25742  1.0000
  C   C336      1.0  0.57865  0.02909  0.27290  1.0000
  H   H524      1.0  0.51199  0.22595  0.01529  1.0000
  H   H525      1.0  0.35009  0.14000  0.20834  1.0000
  C   C337      1.0  0.54221  0.02575  0.27103  1.0000
  H   H526      1.0  0.57745  0.03609  0.29218  1.0000
  H   H527      1.0  0.33440  0.09629  0.25068  1.0000
  H   H528      1.0  0.58060  0.01237  0.27620  1.0000
  H   H529      1.0  0.36529  0.12957  0.23381  1.0000
  H   H530      1.0  0.34820  0.11226  0.27179  1.0000
  C   C338      1.0  0.33427  0.11135  0.26006  1.0000
  C   C339      1.0  0.42578  0.00682  0.29795  1.0000
  H   H531      1.0  0.47886  0.22032  0.07331  1.0000
  H   H532      1.0  0.35186  0.11292  0.21303  1.0000
  C   C340      1.0  0.55182  0.22420  0.12864  1.0000
  H   H533      1.0  0.40594  0.11645  0.16029  1.0000
  H   H534      1.0  0.52812  0.02930  0.26020  1.0000
  H   H535      1.0  0.41992  0.02657  0.33005  1.0000
  C   C341      1.0  0.39297  0.00997  0.32112  1.0000
  C   C342      1.0  0.56274  0.02413  0.23206  1.0000
  H   H536      1.0  0.54323  0.00897  0.27355  1.0000
  C   C343      1.0  0.41404  0.12357  0.20969  1.0000
  H   H537      1.0  0.51707  0.19267  0.07354  1.0000
  C   C344      1.0  0.41350  0.01548  0.31755  1.0000
  C   C345      1.0  0.51880  0.23140  0.14787  1.0000
  H   H538      1.0  0.44146  0.01135  0.29545  1.0000
  C   C346      1.0  0.44864  0.12577  0.19378  1.0000
  H   H539      1.0  0.55614  0.06377  0.27238  1.0000
  H   H540      1.0  0.52228  0.19467  0.03966  1.0000
  C   C347      1.0  0.43068  0.09414  0.19104  1.0000
  C   C348      1.0  0.53190  0.21794  0.13499  1.0000
  C   C349      1.0  0.51132  0.19919  0.05511  1.0000
  C   C350      1.0  0.42115  0.12286  0.16403  1.0000
  H   H541      1.0  0.41983  0.13971  0.16213  1.0000
  H   H542      1.0  0.44752  0.14269  0.19361  1.0000
  H   H543      1.0  0.45515  0.12080  0.21251  1.0000
  H   H544      1.0  0.41585  0.08660  0.18826  1.0000
  H   H545      1.0  0.50347  0.22679  0.15302  1.0000
  N   N32       1.0  0.50888  0.22153  0.05625  1.0000
  S   S140      1.0  0.37855  0.02073  0.34694  1.0000
  H   H546      1.0  0.54910  0.02708  0.22003  1.0000
  H   H547      1.0  0.33226  0.16099  0.24057  1.0000
  C   C351      1.0  0.50122  0.22946  0.03141  1.0000
  S   S141      1.0  0.32925  0.17883  0.19041  1.0000
  H   H548      1.0  0.44863  0.20420  0.99484  1.0000
  N   N33       1.0  0.33303  0.12829  0.24095  1.0000
  C   C352      1.0  0.33264  0.14786  0.25441  1.0000
  H   H549      1.0  0.34624  0.14961  0.26655  1.0000
  H   H550      1.0  0.49918  0.22060  0.09598  1.0000
  S   S142      1.0  0.32904  0.00022  0.38641  1.0000
  H   H551      1.0  0.54025  0.22743  0.04618  1.0000
  C   C353      1.0  0.49413  0.22671  0.07699  1.0000
  C   C354      1.0  0.52875  0.23071  0.06157  1.0000
  C   C355      1.0  0.38484  0.99569  0.30474  1.0000
  H   H552      1.0  0.53497  0.22462  0.08000  1.0000
  C   C356      1.0  0.41775  0.99221  0.28192  1.0000
  H   H553      1.0  0.36911  0.99123  0.30727  1.0000
  Fe  Fe70      1.0  0.43264  0.18134  0.85265  1.0000
  S   S143      1.0  0.45690  0.17496  0.82266  1.0000
  S   S144      1.0  0.40472  0.20147  0.84525  1.0000
  Fe  Fe71      1.0  0.45547  0.15795  0.89471  1.0000
  S   S145      1.0  0.48063  0.14879  0.86709  1.0000
  S   S146      1.0  0.45771  0.14617  0.93626  1.0000
  Fe  Fe72      1.0  0.47944  0.18158  0.85349  1.0000
  S   S147      1.0  0.51084  0.19608  0.84868  1.0000
  Fe  Fe73      1.0  0.45628  0.14274  0.83863  1.0000
  S   S148      1.0  0.45272  0.11771  0.80908  1.0000
  S   S149      1.0  0.45530  0.19081  0.88232  1.0000
  S   S150      1.0  0.43093  0.14907  0.86742  1.0000
  C   C357      1.0  0.50833  0.99241  0.83993  1.0000
  Fe  Fe74      1.0  0.33637  0.01522  0.64138  1.0000
  H   H554      1.0  0.38200  0.05637  0.55782  1.0000
  H   H555      1.0  0.46364  0.13062  0.98745  1.0000
  H   H556      1.0  0.50512  0.15078  0.91435  1.0000
  Fe  Fe75      1.0  0.49289  0.00805  0.76006  1.0000
  S   S151      1.0  0.50168  0.01293  0.71814  1.0000
  S   S152      1.0  0.49322  0.02953  0.79418  1.0000
  H   H557      1.0  0.45018  0.18854  0.95164  1.0000
  C   C358      1.0  0.41589  0.04149  0.58009  1.0000
  H   H558      1.0  0.41798  0.17069  0.92236  1.0000
  H   H559      1.0  0.38859  0.16706  0.87884  1.0000
  H   H560      1.0  0.37776  0.20173  0.89060  1.0000
  H   H561      1.0  0.51428  0.99404  0.81979  1.0000
  H   H562      1.0  0.50411  0.16312  0.95886  1.0000
  H   H563      1.0  0.38021  0.04276  0.62840  1.0000
  S   S153      1.0  0.34281  0.03517  0.54825  1.0000
  H   H564      1.0  0.38391  0.01950  0.56455  1.0000
  H   H565      1.0  0.53144  0.16427  0.95840  1.0000
  H   H566      1.0  0.42534  0.02900  0.58866  1.0000
  S   S154      1.0  0.35980  0.00936  0.67288  1.0000
  S   S155      1.0  0.33495  0.04631  0.62250  1.0000
  H   H567      1.0  0.36704  0.05843  0.58664  1.0000
  C   C359      1.0  0.38366  0.16174  0.89844  1.0000
  H   H568      1.0  0.63318  0.01781  0.62285  1.0000
  H   H569      1.0  0.65122  0.99449  0.68416  1.0000
  C   C360      1.0  0.46471  0.09349  0.80513  1.0000
  C   C361      1.0  0.47776  0.08489  0.82344  1.0000
  C   C362      1.0  0.48641  0.06538  0.81968  1.0000
  C   C363      1.0  0.48230  0.05430  0.79750  1.0000
  C   C364      1.0  0.46937  0.06295  0.77911  1.0000
  C   C365      1.0  0.46059  0.08237  0.78299  1.0000
  H   H570      1.0  0.48106  0.09321  0.84056  1.0000
  H   H571      1.0  0.49640  0.05888  0.83403  1.0000
  H   H572      1.0  0.46603  0.05465  0.76199  1.0000
  H   H573      1.0  0.45053  0.08886  0.76870  1.0000
  C   C366      1.0  0.38239  0.19384  0.82938  1.0000
  C   C367      1.0  0.37785  0.17333  0.82624  1.0000
  C   C368      1.0  0.35897  0.16781  0.81619  1.0000
  C   C369      1.0  0.34471  0.18267  0.80818  1.0000
  C   C370      1.0  0.34958  0.20320  0.81036  1.0000
  C   C371      1.0  0.36819  0.20872  0.82128  1.0000
  H   H574      1.0  0.38867  0.16169  0.83211  1.0000
  H   H575      1.0  0.35537  0.15189  0.81489  1.0000
  H   H576      1.0  0.33872  0.21482  0.80454  1.0000
  H   H577      1.0  0.37152  0.22464  0.82362  1.0000
  C   C372      1.0  0.39560  0.04416  0.61916  1.0000
  C   C373      1.0  0.45698  0.15846  0.96645  1.0000
  C   C374      1.0  0.45293  0.17930  0.96870  1.0000
  H   H578      1.0  0.61772  0.01151  0.67798  1.0000
  C   C375      1.0  0.50463  0.23621  0.86351  1.0000
  H   H579      1.0  0.53487  0.19718  0.89916  1.0000
  H   H580      1.0  0.36203  0.12040  0.72686  1.0000
  C   C376      1.0  0.65653  0.04024  0.65330  1.0000
  H   H581      1.0  0.41041  0.19574  0.93221  1.0000
  C   C377      1.0  0.51734  0.17302  0.95373  1.0000
  H   H582      1.0  0.51810  0.16520  0.88930  1.0000
  C   C378      1.0  0.64291  0.00934  0.63679  1.0000
  C   C379      1.0  0.37345  0.19570  0.91017  1.0000
  H   H583      1.0  0.61611  0.03480  0.65956  1.0000
  H   H584      1.0  0.53244  0.15206  0.91360  1.0000
  H   H585      1.0  0.38909  0.01271  0.71266  1.0000
  H   H586      1.0  0.37513  0.20833  0.92384  1.0000
  C   C380      1.0  0.53888  0.22672  0.85045  1.0000
  H   H587      1.0  0.50380  0.00800  0.84599  1.0000
  N   N34       1.0  0.38620  0.17788  0.91744  1.0000
  C   C381      1.0  0.35412  0.11831  0.74586  1.0000
  H   H588      1.0  0.36458  0.12362  0.76087  1.0000
  H   H589      1.0  0.39293  0.14796  0.90334  1.0000
  H   H590      1.0  0.40556  0.03254  0.62859  1.0000
  H   H591      1.0  0.49645  0.20434  0.93307  1.0000
  H   H592      1.0  0.41274  0.19027  0.89864  1.0000
  H   H593      1.0  0.34549  0.15459  0.72302  1.0000
  C   C382      1.0  0.38636  0.00367  0.67326  1.0000
  N   N35       1.0  0.64603  0.02109  0.66029  1.0000
  H   H594      1.0  0.38867  0.99265  0.63474  1.0000
  H   H595      1.0  0.38953  0.15685  0.94935  1.0000
  H   H596      1.0  0.48451  0.18096  0.92492  1.0000
  C   C383      1.0  0.49805  0.19063  0.92102  1.0000
  H   H597      1.0  0.54938  0.18449  0.92371  1.0000
  C   C384      1.0  0.39711  0.00681  0.69598  1.0000
  C   C385      1.0  0.53468  0.19246  0.91993  1.0000
  C   C386      1.0  0.38298  0.05813  0.57904  1.0000
  H   H598      1.0  0.38970  0.07323  0.58259  1.0000
  H   H599      1.0  0.36749  0.15709  0.89722  1.0000
  H   H600      1.0  0.38159  0.18202  0.95808  1.0000
  C   C387      1.0  0.51825  0.16102  0.91020  1.0000
  C   C388      1.0  0.40779  0.18389  0.91772  1.0000
  H   H601      1.0  0.53418  0.20663  0.93127  1.0000
  C   C389      1.0  0.37996  0.17017  0.94330  1.0000
  N   N36       1.0  0.51711  0.17929  0.92625  1.0000
  H   H602      1.0  0.36380  0.16527  0.94375  1.0000
  H   H603      1.0  0.41591  0.03943  0.55887  1.0000
  N   N37       1.0  0.39494  0.04139  0.59101  1.0000
  C   C390      1.0  0.51835  0.22143  0.85452  1.0000
  H   H604      1.0  0.51643  0.18641  0.96644  1.0000
  H   H605      1.0  0.35704  0.19174  0.90969  1.0000
  H   H606      1.0  0.49752  0.19589  0.90057  1.0000
  H   H607      1.0  0.54963  0.21542  0.84349  1.0000
  H   H608      1.0  0.64755  0.04969  0.63949  1.0000
  C   C391      1.0  0.33831  0.15152  0.74226  1.0000
  H   H609      1.0  0.63535  0.99461  0.64134  1.0000
  C   C392      1.0  0.34300  0.03284  0.49523  1.0000
  H   H610      1.0  0.34840  0.15769  0.75713  1.0000
  C   C393      1.0  0.41819  0.00262  0.69727  1.0000
  H   H611      1.0  0.48880  0.23239  0.86670  1.0000
  H   H612      1.0  0.42360  0.05608  0.58383  1.0000
  H   H613      1.0  0.40159  0.05933  0.62395  1.0000
  C   C394      1.0  0.39689  0.99579  0.65197  1.0000
  H   H614      1.0  0.39425  0.00870  0.59365  1.0000
  C   C395      1.0  0.38535  0.02175  0.58563  1.0000
  H   H615      1.0  0.42623  0.00537  0.71481  1.0000
  H   H616      1.0  0.36967  0.02096  0.59408  1.0000
  C   C396      1.0  0.62607  0.02569  0.67264  1.0000
  H   H617      1.0  0.62780  0.03444  0.69055  1.0000
  H   H618      1.0  0.35186  0.10170  0.74916  1.0000
  C   C397      1.0  0.42881  0.99518  0.67580  1.0000
  Fe  Fe76      1.0  0.32621  0.02955  0.58677  1.0000
  S   S156      1.0  0.32944  0.99839  0.60524  1.0000
  H   H619      1.0  0.33419  0.13190  0.78793  1.0000
  C   C398      1.0  0.33090  0.03474  0.51775  1.0000
  H   H620      1.0  0.32798  0.12468  0.70697  1.0000
  H   H621      1.0  0.35931  0.03100  0.49676  1.0000
  N   N38       1.0  0.33454  0.12960  0.74672  1.0000
  H   H622      1.0  0.46914  0.00169  0.83147  1.0000
  C   C399      1.0  0.46051  0.14675  0.98893  1.0000
  H   H623      1.0  0.47860  0.99163  0.87608  1.0000
  C   C400      1.0  0.41801  0.99172  0.65318  1.0000
  H   H624      1.0  0.65766  0.00589  0.62681  1.0000
  Fe  Fe77      1.0  0.35938  0.39668  0.34064  1.0000
  S   S157      1.0  0.38760  0.40060  0.31368  1.0000
  Fe  Fe78      1.0  0.34204  0.38305  0.39526  1.0000
  H   H625      1.0  0.53546  0.36043  0.05810  1.0000
  H   H626      1.0  0.56357  0.39513  0.07033  1.0000
  S   S158      1.0  0.35705  0.36673  0.36217  1.0000
  S   S159      1.0  0.34704  0.41339  0.37518  1.0000
  Fe  Fe79      1.0  0.48026  0.47734  0.26467  1.0000
  S   S160      1.0  0.48105  0.46855  0.22309  1.0000
  S   S161      1.0  0.45221  0.47231  0.29155  1.0000
  Fe  Fe80      1.0  0.51453  0.46164  0.22890  1.0000
  S   S162      1.0  0.52780  0.42988  0.21918  1.0000
  S   S163      1.0  0.51344  0.46951  0.27133  1.0000
  Fe  Fe81      1.0  0.62460  0.31480  0.14194  1.0000
  S   S164      1.0  0.61740  0.33783  0.11012  1.0000
  Fe  Fe82      1.0  0.58039  0.29933  0.14214  1.0000
  S   S165      1.0  0.57083  0.32204  0.11180  1.0000
  S   S166      1.0  0.55429  0.28072  0.15960  1.0000
  Fe  Fe83      1.0  0.59992  0.31324  0.09115  1.0000
  S   S167      1.0  0.59483  0.30473  0.04902  1.0000
  Fe  Fe84      1.0  0.58868  0.34496  0.13305  1.0000
  S   S168      1.0  0.57988  0.37891  0.13569  1.0000
  S   S169      1.0  0.60904  0.28940  0.12106  1.0000
  S   S170      1.0  0.59631  0.32302  0.16523  1.0000
  C   C401      1.0  0.61225  0.33150  0.01236  1.0000
  C   C402      1.0  0.60020  0.31438  0.01725  1.0000
  H   H627      1.0  0.43641  0.46822  0.23838  1.0000
  H   H628      1.0  0.61937  0.33892  0.02814  1.0000
  H   H629      1.0  0.38400  0.35242  0.24671  1.0000
  C   C403      1.0  0.54186  0.41610  0.19515  1.0000
  C   C404      1.0  0.54415  0.39484  0.19822  1.0000
  C   C405      1.0  0.55530  0.38318  0.18008  1.0000
  C   C406      1.0  0.56460  0.39265  0.15859  1.0000
  C   C407      1.0  0.56236  0.41391  0.15549  1.0000
  C   C408      1.0  0.55103  0.42555  0.17353  1.0000
  H   H630      1.0  0.53709  0.38729  0.21475  1.0000
  H   H631      1.0  0.55666  0.36688  0.18279  1.0000
  H   H632      1.0  0.56945  0.42150  0.13904  1.0000
  H   H633      1.0  0.54949  0.44183  0.17080  1.0000
  N   N39       1.0  0.62732  0.37353  0.19194  1.0000
  H   H634      1.0  0.49898  0.24626  0.03171  1.0000
  C   C409      1.0  0.54575  0.25690  0.14867  1.0000
  H   H635      1.0  0.55210  0.36356  0.01401  1.0000
  C   C410      1.0  0.62982  0.37224  0.16370  1.0000
  H   H636      1.0  0.63333  0.35485  0.22553  1.0000
  H   H637      1.0  0.41237  0.46970  0.25491  1.0000
  C   C411      1.0  0.40537  0.42082  0.30791  1.0000
  C   C412      1.0  0.42129  0.41818  0.28959  1.0000
  C   C413      1.0  0.43578  0.43359  0.28441  1.0000
  C   C414      1.0  0.43463  0.45197  0.29753  1.0000
  C   C415      1.0  0.41861  0.45468  0.31566  1.0000
  C   C416      1.0  0.40413  0.43927  0.32084  1.0000
  H   H638      1.0  0.42255  0.40403  0.27944  1.0000
  H   H639      1.0  0.44794  0.43115  0.27043  1.0000
  H   H640      1.0  0.41745  0.46878  0.32596  1.0000
  H   H641      1.0  0.39206  0.44166  0.33497  1.0000
  H   H642      1.0  0.59620  0.36372  0.19147  1.0000
  H   H643      1.0  0.57926  0.36656  0.01140  1.0000
  H   H644      1.0  0.55284  0.33994  0.06528  1.0000
  C   C417      1.0  0.33466  0.39689  0.47156  1.0000
  H   H645      1.0  0.57538  0.39749  0.03889  1.0000
  H   H646      1.0  0.57406  0.24816  0.13033  1.0000
  H   H647      1.0  0.62411  0.38625  0.15366  1.0000
  N   N40       1.0  0.37192  0.34272  0.28368  1.0000
  C   C418      1.0  0.38884  0.35019  0.26698  1.0000
  C   C419      1.0  0.35495  0.35766  0.28306  1.0000
  C   C420      1.0  0.37908  0.34018  0.31034  1.0000
  C   C421      1.0  0.36478  0.32297  0.27447  1.0000
  H   H648      1.0  0.60284  0.37704  0.21984  1.0000
  H   H649      1.0  0.49223  0.24344  0.07887  1.0000
  H   H650      1.0  0.62105  0.35939  0.15633  1.0000
  C   C422      1.0  0.63505  0.35455  0.20422  1.0000
  H   H651      1.0  0.34902  0.35988  0.26330  1.0000
  H   H652      1.0  0.34202  0.35269  0.29576  1.0000
  H   H653      1.0  0.40199  0.33936  0.26702  1.0000
  Fe  Fe85      1.0  0.32590  0.36323  0.34586  1.0000
  H   H654      1.0  0.39194  0.32907  0.31157  1.0000
  H   H655      1.0  0.35200  0.31704  0.28683  1.0000
  H   H656      1.0  0.35990  0.37278  0.28969  1.0000
  H   H657      1.0  0.37717  0.31128  0.27470  1.0000
  C   C423      1.0  0.59147  0.30474  0.99626  1.0000
  H   H658      1.0  0.54842  0.39348  0.04203  1.0000
  H   H659      1.0  0.58777  0.36779  0.08158  1.0000
  H   H660      1.0  0.58216  0.29148  0.99974  1.0000
  S   S171      1.0  0.35016  0.36973  0.43516  1.0000
  C   C424      1.0  0.42025  0.47312  0.23615  1.0000
  C   C425      1.0  0.56676  0.35980  0.02344  1.0000
  C   C426      1.0  0.58699  0.36234  0.06149  1.0000
  H   H661      1.0  0.35592  0.35066  0.48482  1.0000
  N   N41       1.0  0.56699  0.36707  0.05018  1.0000
  H   H662      1.0  0.35914  0.32432  0.25445  1.0000
  H   H663      1.0  0.59964  0.36948  0.05012  1.0000
  C   C427      1.0  0.60551  0.37636  0.19867  1.0000
  H   H664      1.0  0.55104  0.36139  0.08615  1.0000
  H   H665      1.0  0.34536  0.32577  0.41998  1.0000
  S   S172      1.0  0.32865  0.39273  0.32264  1.0000
  H   H666      1.0  0.52746  0.24752  0.06335  1.0000
  H   H667      1.0  0.39446  0.36511  0.27365  1.0000
  H   H668      1.0  0.51578  0.26072  0.16565  1.0000
  C   C428      1.0  0.55084  0.35680  0.06561  1.0000
  H   H669      1.0  0.56883  0.34297  0.02288  1.0000
  C   C429      1.0  0.55863  0.24366  0.13509  1.0000
  H   H670      1.0  0.59002  0.34569  0.06211  1.0000
  H   H671      1.0  0.33699  0.31398  0.39098  1.0000
  C   C430      1.0  0.56342  0.38929  0.05033  1.0000
  H   H672      1.0  0.38451  0.35486  0.31790  1.0000
  C   C431      1.0  0.34394  0.37804  0.46690  1.0000
  H   H673      1.0  0.33089  0.40692  0.45553  1.0000
  H   H674      1.0  0.36667  0.33460  0.32350  1.0000
  C   C432      1.0  0.63890  0.39101  0.20103  1.0000
  H   H675      1.0  0.41351  0.46337  0.22140  1.0000
  H   H676      1.0  0.63339  0.40553  0.19201  1.0000
  H   H677      1.0  0.62675  0.34104  0.19757  1.0000
  C   C433      1.0  0.52581  0.25066  0.15497  1.0000
  C   C434      1.0  0.33297  0.32550  0.40568  1.0000
  H   H678      1.0  0.59928  0.39068  0.18992  1.0000
  C   C435      1.0  0.34873  0.36528  0.48813  1.0000
  H   H679      1.0  0.63729  0.39248  0.22227  1.0000
  H   H680      1.0  0.32554  0.30091  0.44648  1.0000
  H   H681      1.0  0.33296  0.34056  0.39565  1.0000
  H   H682      1.0  0.64601  0.36960  0.15779  1.0000
  H   H683      1.0  0.65142  0.35181  0.19926  1.0000
  H   H684      1.0  0.42288  0.48965  0.18852  1.0000
  H   H685      1.0  0.65541  0.38936  0.19612  1.0000
  S   S173      1.0  0.65643  0.31941  0.15969  1.0000
  Fe  Fe86      1.0  0.47361  0.47847  0.72245  1.0000
  S   S174      1.0  0.47218  0.47906  0.76599  1.0000
  S   S175      1.0  0.44746  0.47400  0.69378  1.0000
  Fe  Fe87      1.0  0.50405  0.46505  0.76440  1.0000
  S   S176      1.0  0.51158  0.43960  0.79429  1.0000
  S   S177      1.0  0.50441  0.46286  0.72110  1.0000
  Fe  Fe88      1.0  0.35870  0.39454  0.64115  1.0000
  H   H686      1.0  0.38342  0.43925  0.56141  1.0000
  S   S178      1.0  0.39014  0.40134  0.65807  1.0000
  H   H687      1.0  0.60624  0.34064  0.77241  1.0000
  H   H688      1.0  0.42329  0.39976  0.55099  1.0000
  C   C436      1.0  0.33796  0.42020  0.71618  1.0000
  S   S179      1.0  0.33033  0.39932  0.55002  1.0000
  S   S180      1.0  0.33831  0.41548  0.61845  1.0000
  S   S181      1.0  0.35479  0.36876  0.61363  1.0000
  Fe  Fe89      1.0  0.58469  0.34313  0.84257  1.0000
  S   S182      1.0  0.58430  0.31129  0.82773  1.0000
  S   S183      1.0  0.57710  0.36709  0.81101  1.0000
  Fe  Fe90      1.0  0.60073  0.32713  0.89526  1.0000
  S   S184      1.0  0.60133  0.29437  0.88292  1.0000
  S   S185      1.0  0.61107  0.33920  0.93402  1.0000
  Fe  Fe91      1.0  0.61524  0.30669  0.84538  1.0000
  Fe  Fe92      1.0  0.57062  0.30181  0.86588  1.0000
  S   S186      1.0  0.53932  0.28684  0.86941  1.0000
  S   S187      1.0  0.61625  0.33898  0.85855  1.0000
  S   S188      1.0  0.56945  0.33406  0.88013  1.0000
  C   C437      1.0  0.60667  0.32916  0.96583  1.0000
  H   H689      1.0  0.40897  0.41282  0.52643  1.0000
  C   C438      1.0  0.59467  0.31204  0.97075  1.0000
  H   H690      1.0  0.35462  0.45439  0.67079  1.0000
  H   H691      1.0  0.58788  0.30438  0.95489  1.0000
  H   H692      1.0  0.40780  0.39442  0.59497  1.0000
  C   C439      1.0  0.53188  0.26142  0.86378  1.0000
  C   C440      1.0  0.36746  0.44171  0.71707  1.0000
  H   H693      1.0  0.52928  0.32858  0.85699  1.0000
  C   C441      1.0  0.51137  0.25608  0.86805  1.0000
  H   H694      1.0  0.50060  0.26742  0.87483  1.0000
  H   H695      1.0  0.37756  0.42890  0.71086  1.0000
  H   H696      1.0  0.62809  0.36105  0.74191  1.0000
  H   H697      1.0  0.37298  0.42433  0.53620  1.0000
  H   H698      1.0  0.39515  0.37518  0.55835  1.0000
  H   H699      1.0  0.49338  0.31471  0.80686  1.0000
  C   C442      1.0  0.62059  0.33521  0.78145  1.0000
  C   C443      1.0  0.53038  0.41990  0.79859  1.0000
  C   C444      1.0  0.53099  0.40914  0.82234  1.0000
  C   C445      1.0  0.54531  0.39327  0.82672  1.0000
  C   C446      1.0  0.55912  0.38762  0.80720  1.0000
  C   C447      1.0  0.55849  0.39833  0.78342  1.0000
  C   C448      1.0  0.54433  0.41438  0.77916  1.0000
  H   H700      1.0  0.52040  0.41332  0.83760  1.0000
  H   H701      1.0  0.54575  0.38562  0.84532  1.0000
  H   H702      1.0  0.56903  0.39420  0.76811  1.0000
  H   H703      1.0  0.54409  0.42241  0.76078  1.0000
  C   C449      1.0  0.43123  0.45361  0.68507  1.0000
  C   C450      1.0  0.41462  0.45786  0.66891  1.0000
  C   C451      1.0  0.40174  0.44224  0.66073  1.0000
  C   C452      1.0  0.40537  0.42199  0.66839  1.0000
  C   C453      1.0  0.42196  0.41775  0.68452  1.0000
  C   C454      1.0  0.43470  0.43340  0.69294  1.0000
  H   H704      1.0  0.41176  0.47339  0.66258  1.0000
  H   H705      1.0  0.38928  0.44585  0.64809  1.0000
  H   H706      1.0  0.42504  0.40219  0.69059  1.0000
  H   H707      1.0  0.44737  0.42975  0.70527  1.0000
  H   H708      1.0  0.38261  0.40371  0.60153  1.0000
  H   H709      1.0  0.41831  0.42661  0.55317  1.0000
  C   C455      1.0  0.64167  0.35522  0.75236  1.0000
  N   N42       1.0  0.63662  0.35075  0.77971  1.0000
  H   H710      1.0  0.54017  0.34978  0.83962  1.0000
  H   H711      1.0  0.61539  0.37582  0.78272  1.0000
  C   C456      1.0  0.54563  0.24659  0.85503  1.0000
  H   H712      1.0  0.53848  0.30784  0.81857  1.0000
  H   H713      1.0  0.49677  0.48623  0.67564  1.0000
  C   C457      1.0  0.53375  0.32097  0.80604  1.0000
  C   C458      1.0  0.52584  0.34123  0.84313  1.0000
  H   H714      1.0  0.36730  0.44168  0.73848  1.0000
  H   H715      1.0  0.54760  0.33005  0.80137  1.0000
  C   C459      1.0  0.49984  0.32085  0.82470  1.0000
  N   N43       1.0  0.39259  0.40768  0.56212  1.0000
  C   C460      1.0  0.39672  0.40676  0.59000  1.0000
  C   C461      1.0  0.38445  0.38799  0.55409  1.0000
  C   C462      1.0  0.41165  0.41192  0.54753  1.0000
  C   C463      1.0  0.37750  0.42402  0.55677  1.0000
  H   H716      1.0  0.34802  0.36121  0.52968  1.0000
  H   H717      1.0  0.56144  0.25044  0.85163  1.0000
  H   H718      1.0  0.65378  0.36687  0.75034  1.0000
  H   H719      1.0  0.38135  0.38808  0.53310  1.0000
  H   H720      1.0  0.33630  0.41958  0.73753  1.0000
  H   H721      1.0  0.36979  0.38454  0.56420  1.0000
  Fe  Fe93      1.0  0.33241  0.38904  0.59258  1.0000
  H   H722      1.0  0.33920  0.28412  0.66825  1.0000
  C   C464      1.0  0.62922  0.36951  0.79221  1.0000
  C   C465      1.0  0.34773  0.44009  0.67851  1.0000
  C   C466      1.0  0.33052  0.40297  0.49707  1.0000
  H   H723      1.0  0.62488  0.36655  0.81276  1.0000
  H   H724      1.0  0.64726  0.34131  0.74244  1.0000
  H   H725      1.0  0.35703  0.42717  0.67115  1.0000
  H   H726      1.0  0.61685  0.33126  0.80184  1.0000
  H   H727      1.0  0.62482  0.35202  0.98325  1.0000
  N   N44       1.0  0.51788  0.33348  0.81889  1.0000
  H   H728      1.0  0.36326  0.42178  0.56840  1.0000
  C   C467      1.0  0.51224  0.35083  0.80180  1.0000
  H   H729      1.0  0.51380  0.48026  0.64974  1.0000
  H   H730      1.0  0.34782  0.40708  0.71049  1.0000
  H   H731      1.0  0.48763  0.32973  0.83469  1.0000
  S   S189      1.0  0.63900  0.29209  0.81769  1.0000
  H   H732      1.0  0.48774  0.47159  0.64989  1.0000
  H   H733      1.0  0.52567  0.36051  0.79701  1.0000
  H   H734      1.0  0.50605  0.34559  0.78333  1.0000
  H   H735      1.0  0.62557  0.32078  0.77224  1.0000
  H   H736      1.0  0.37476  0.45604  0.71007  1.0000
  S   S190      1.0  0.33332  0.38345  0.66739  1.0000
  H   H737      1.0  0.40294  0.42131  0.59685  1.0000
  H   H738      1.0  0.50053  0.36082  0.81101  1.0000
  C   C468      1.0  0.34433  0.37125  0.51365  1.0000
  H   H739      1.0  0.51474  0.35163  0.85277  1.0000
  H   H740      1.0  0.50381  0.30758  0.83747  1.0000
  H   H741      1.0  0.52827  0.31468  0.78777  1.0000
  C   C469      1.0  0.65497  0.34297  0.79285  1.0000
  H   H742      1.0  0.64099  0.38153  0.79167  1.0000
  Fe  Fe94      1.0  0.32803  0.35873  0.63900  1.0000
  C   C470      1.0  0.33531  0.39025  0.51831  1.0000
  C   C471      1.0  0.61538  0.33886  0.98683  1.0000
  C   C472      1.0  0.49772  0.48452  0.65449  1.0000
  C   C473      1.0  0.33364  0.45670  0.71581  1.0000
  H   H743      1.0  0.65151  0.33885  0.81339  1.0000
  H   H744      1.0  0.48290  0.48813  0.60695  1.0000
  N   N45       1.0  0.34671  0.43969  0.70693  1.0000
  H   H745      1.0  0.33231  0.43892  0.67019  1.0000
  H   H746      1.0  0.33975  0.47164  0.70905  1.0000
  S   S191      1.0  0.32836  0.32435  0.64994  1.0000
  H   H747      1.0  0.33245  0.45690  0.73720  1.0000
  S   S192      1.0  0.63561  0.60415  0.36076  1.0000
  H   H748      1.0  0.64304  0.62481  0.48288  1.0000
  Fe  Fe95      1.0  0.49034  0.50099  0.21435  1.0000
  Fe  Fe96      1.0  0.64200  0.57223  0.34724  1.0000
  S   S193      1.0  0.62114  0.54538  0.33808  1.0000
  C   C474      1.0  0.60003  0.59289  0.42363  1.0000
  H   H749      1.0  0.53211  0.70161  0.13462  1.0000
  H   H750      1.0  0.44443  0.50321  0.25103  1.0000
  C   C475      1.0  0.65501  0.59810  0.46424  1.0000
  S   S194      1.0  0.54157  0.52800  0.27150  1.0000
  N   N46       1.0  0.53694  0.73036  0.15243  1.0000
  S   S195      1.0  0.47811  0.52090  0.18095  1.0000
  S   S196      1.0  0.48787  0.51019  0.25541  1.0000
  Fe  Fe97      1.0  0.41175  0.62765  0.14435  1.0000
  S   S197      1.0  0.39688  0.65366  0.16595  1.0000
  S   S198      1.0  0.42189  0.60142  0.17195  1.0000
  Fe  Fe98      1.0  0.40573  0.65032  0.09195  1.0000
  S   S199      1.0  0.39107  0.67743  0.11097  1.0000
  S   S200      1.0  0.41164  0.65573  0.04844  1.0000
  Fe  Fe99      1.0  0.41583  0.67421  0.13992  1.0000
  S   S201      1.0  0.43145  0.70157  0.15699  1.0000
  Fe  Fe100     1.0  0.37314  0.65494  0.13533  1.0000
  S   S202      1.0  0.33791  0.65733  0.13748  1.0000
  S   S203      1.0  0.43184  0.64844  0.11993  1.0000
  S   S204      1.0  0.38671  0.62761  0.11489  1.0000
  H   H751      1.0  0.62093  0.54619  0.43591  1.0000
  C   C476      1.0  0.40384  0.64892  0.01705  1.0000
  C   C477      1.0  0.38987  0.63347  0.01295  1.0000
  H   H752      1.0  0.38850  0.49823  0.24540  1.0000
  H   H753      1.0  0.38383  0.62478  0.02919  1.0000
  C   C478      1.0  0.46234  0.54325  0.17895  1.0000
  C   C479      1.0  0.45998  0.55319  0.15489  1.0000
  C   C480      1.0  0.44793  0.57107  0.15232  1.0000
  C   C481      1.0  0.43782  0.57919  0.17381  1.0000
  C   C482      1.0  0.44017  0.56920  0.19788  1.0000
  C   C483      1.0  0.45238  0.55145  0.20050  1.0000
  H   H754      1.0  0.46754  0.54704  0.13802  1.0000
  H   H755      1.0  0.44627  0.57846  0.13367  1.0000
  H   H756      1.0  0.43243  0.57531  0.21465  1.0000
  H   H757      1.0  0.45395  0.54410  0.21916  1.0000
  C   C484      1.0  0.45657  0.71303  0.11562  1.0000
  C   C485      1.0  0.44927  0.71743  0.14037  1.0000
  H   H758      1.0  0.33307  0.70096  0.07216  1.0000
  C   C486      1.0  0.64934  0.60968  0.48579  1.0000
  H   H759      1.0  0.45114  0.69975  0.10606  1.0000
  H   H760      1.0  0.42261  0.67172  0.99838  1.0000
  H   H761      1.0  0.58325  0.54564  0.44031  1.0000
  C   C487      1.0  0.59913  0.54096  0.31911  1.0000
  C   C488      1.0  0.59163  0.52102  0.31772  1.0000
  C   C489      1.0  0.57422  0.51668  0.30323  1.0000
  C   C490      1.0  0.56389  0.53229  0.28995  1.0000
  C   C491      1.0  0.57141  0.55224  0.29137  1.0000
  C   C492      1.0  0.58889  0.55656  0.30573  1.0000
  H   H762      1.0  0.59927  0.50877  0.32800  1.0000
  H   H763      1.0  0.56870  0.50128  0.30250  1.0000
  H   H764      1.0  0.56363  0.56451  0.28132  1.0000
  H   H765      1.0  0.59433  0.57198  0.30651  1.0000
  H   H766      1.0  0.37535  0.68320  0.05814  1.0000
  H   H767      1.0  0.36299  0.65337  0.08246  1.0000
  H   H768      1.0  0.33749  0.64489  0.07970  1.0000
  H   H769      1.0  0.62134  0.56842  0.45550  1.0000
  C   C493      1.0  0.35035  0.65214  0.06880  1.0000
  C   C494      1.0  0.55194  0.72193  0.17073  1.0000
  C   C495      1.0  0.58321  0.56257  0.43953  1.0000
  H   H770      1.0  0.33296  0.66016  0.02341  1.0000
  H   H771      1.0  0.56842  0.56773  0.43139  1.0000
  C   C496      1.0  0.32802  0.67002  0.03962  1.0000
  H   H772      1.0  0.38935  0.49194  0.21189  1.0000
  H   H773      1.0  0.60215  0.59901  0.44322  1.0000
  N   N47       1.0  0.34456  0.67234  0.05815  1.0000
  H   H774      1.0  0.55754  0.72776  0.11990  1.0000
  H   H775      1.0  0.59978  0.54616  0.39669  1.0000
  H   H776      1.0  0.61233  0.56863  0.38516  1.0000
  C   C497      1.0  0.59935  0.56307  0.39734  1.0000
  N   N48       1.0  0.51775  0.56532  0.21200  1.0000
  C   C498      1.0  0.50195  0.55853  0.23078  1.0000
  C   C499      1.0  0.52881  0.54740  0.20183  1.0000
  C   C500      1.0  0.53219  0.57858  0.22495  1.0000
  C   C501      1.0  0.50802  0.57664  0.19056  1.0000
  H   H777      1.0  0.49263  0.57151  0.23803  1.0000
  H   H778      1.0  0.50880  0.55061  0.24772  1.0000
  H   H779      1.0  0.49143  0.54770  0.22198  1.0000
  H   H780      1.0  0.54089  0.55190  0.18762  1.0000
  H   H781      1.0  0.53623  0.53843  0.21754  1.0000
  H   H782      1.0  0.51834  0.53700  0.19202  1.0000
  H   H783      1.0  0.54439  0.58399  0.21141  1.0000
  H   H784      1.0  0.53973  0.57027  0.24118  1.0000
  H   H785      1.0  0.52431  0.59216  0.23304  1.0000
  H   H786      1.0  0.49739  0.56680  0.18015  1.0000
  H   H787      1.0  0.51949  0.58234  0.17620  1.0000
  H   H788      1.0  0.49897  0.58992  0.19753  1.0000
  H   H789      1.0  0.34081  0.68307  0.18333  1.0000
  C   C502      1.0  0.47098  0.72580  0.10326  1.0000
  H   H790      1.0  0.39520  0.51727  0.22147  1.0000
  C   C503      1.0  0.61983  0.56309  0.43542  1.0000
  S   S205      1.0  0.52394  0.49332  0.21634  1.0000
  C   C504      1.0  0.39694  0.50086  0.22685  1.0000
  N   N49       1.0  0.60059  0.57040  0.42397  1.0000
  H   H791      1.0  0.51569  0.74014  0.18188  1.0000
  H   H792      1.0  0.61245  0.59930  0.41120  1.0000
  H   H793      1.0  0.54428  0.71532  0.18822  1.0000
  H   H794      1.0  0.56241  0.73399  0.17713  1.0000
  H   H795      1.0  0.42079  0.50411  0.26842  1.0000
  H   H796      1.0  0.64905  0.49838  0.31956  1.0000
  C   C505      1.0  0.33746  0.68551  0.07931  1.0000
  H   H797      1.0  0.42824  0.51509  0.19801  1.0000
  H   H798      1.0  0.58513  0.56840  0.38791  1.0000
  H   H799      1.0  0.58541  0.59902  0.41612  1.0000
  H   H800      1.0  0.35875  0.69700  0.03685  1.0000
  H   H801      1.0  0.51216  0.72004  0.12991  1.0000
  H   H802      1.0  0.58371  0.56794  0.45970  1.0000
  H   H803      1.0  0.63326  0.56888  0.42431  1.0000
  H   H804      1.0  0.56149  0.70978  0.16183  1.0000
  Fe  Fe101     1.0  0.52123  0.50167  0.25826  1.0000
  H   H805      1.0  0.35562  0.64167  0.05345  1.0000
  H   H806      1.0  0.44579  0.49485  0.20520  1.0000
  H   H807      1.0  0.51448  0.70738  0.16054  1.0000
  H   H808      1.0  0.42681  0.52371  0.24475  1.0000
  N   N50       1.0  0.41863  0.49496  0.22905  1.0000
  C   C506      1.0  0.42802  0.50711  0.24915  1.0000
  C   C507      1.0  0.52339  0.71408  0.14407  1.0000
  C   C508      1.0  0.41179  0.65975  0.99550  1.0000
  H   H809      1.0  0.36808  0.67209  0.02871  1.0000
  C   C509      1.0  0.36239  0.68161  0.04486  1.0000
  C   C510      1.0  0.42930  0.49879  0.20412  1.0000
  H   H810      1.0  0.47658  0.72216  0.08417  1.0000
  H   H811      1.0  0.34950  0.68733  0.09385  1.0000
  S   S206      1.0  0.65062  0.60838  0.43267  1.0000
  C   C511      1.0  0.45652  0.73477  0.15253  1.0000
  H   H812      1.0  0.65540  0.53323  0.30203  1.0000
  H   H813      1.0  0.45088  0.73833  0.17163  1.0000
  C   C512      1.0  0.54780  0.73925  0.12977  1.0000
  H   H814      1.0  0.58720  0.64282  0.69049  1.0000
  N   N51       1.0  0.64708  0.52058  0.69582  1.0000
  H   H815      1.0  0.64145  0.55275  0.69813  1.0000
  Fe  Fe102     1.0  0.48763  0.50953  0.76275  1.0000
  S   S207      1.0  0.48228  0.53904  0.78551  1.0000
  S   S208      1.0  0.48722  0.50996  0.71950  1.0000
  Fe  Fe103     1.0  0.63646  0.57654  0.64095  1.0000
  S   S209      1.0  0.60825  0.57156  0.66743  1.0000
  H   H816      1.0  0.46476  0.52283  0.63862  1.0000
  H   H817      1.0  0.40342  0.70879  0.76642  1.0000
  C   C513      1.0  0.61579  0.61589  0.70594  1.0000
  S   S210      1.0  0.51945  0.49563  0.76368  1.0000
  S   S211      1.0  0.64031  0.60217  0.61160  1.0000
  Fe  Fe104     1.0  0.40392  0.62769  0.84217  1.0000
  S   S212      1.0  0.40291  0.65819  0.82159  1.0000
  S   S213      1.0  0.40782  0.59608  0.82418  1.0000
  Fe  Fe105     1.0  0.39223  0.64636  0.89437  1.0000
  S   S214      1.0  0.39037  0.67833  0.87766  1.0000
  S   S215      1.0  0.38416  0.63324  0.93465  1.0000
  Fe  Fe106     1.0  0.37388  0.66495  0.84400  1.0000
  C   C514      1.0  0.49292  0.50064  0.61295  1.0000
  Fe  Fe107     1.0  0.41924  0.67018  0.85585  1.0000
  S   S216      1.0  0.44781  0.68919  0.84783  1.0000
  S   S217      1.0  0.37363  0.63366  0.86236  1.0000
  S   S218      1.0  0.42227  0.63907  0.87482  1.0000
  C   C515      1.0  0.39200  0.63981  0.96612  1.0000
  C   C516      1.0  0.62761  0.51518  0.70887  1.0000
  H   H818      1.0  0.63388  0.62129  0.65969  1.0000
  H   H819      1.0  0.41227  0.66374  0.95397  1.0000
  H   H820      1.0  0.42268  0.60828  0.91646  1.0000
  H   H821      1.0  0.38717  0.69592  0.78963  1.0000
  C   C517      1.0  0.47427  0.72127  0.84555  1.0000
  C   C518      1.0  0.45486  0.71469  0.85380  1.0000
  C   C519      1.0  0.44158  0.72868  0.86550  1.0000
  H   H822      1.0  0.36913  0.72898  0.79640  1.0000
  H   H823      1.0  0.48469  0.71060  0.83650  1.0000
  H   H824      1.0  0.42681  0.72379  0.87254  1.0000
  H   H825      1.0  0.38228  0.70949  0.83321  1.0000
  H   H826      1.0  0.60387  0.66417  0.68639  1.0000
  H   H827      1.0  0.39716  0.73048  0.84319  1.0000
  C   C520      1.0  0.40146  0.70483  0.78723  1.0000
  C   C521      1.0  0.42882  0.58091  0.81268  1.0000
  C   C522      1.0  0.44914  0.58639  0.81583  1.0000
  C   C523      1.0  0.46515  0.57342  0.80736  1.0000
  C   C524      1.0  0.46123  0.55484  0.79542  1.0000
  C   C525      1.0  0.44090  0.54940  0.79220  1.0000
  C   C526      1.0  0.42488  0.56229  0.80089  1.0000
  H   H828      1.0  0.45255  0.60060  0.82482  1.0000
  H   H829      1.0  0.48077  0.57784  0.81000  1.0000
  H   H830      1.0  0.43753  0.53520  0.78317  1.0000
  H   H831      1.0  0.40928  0.55778  0.79837  1.0000
  C   C527      1.0  0.56093  0.52064  0.68371  1.0000
  C   C528      1.0  0.56201  0.53757  0.69949  1.0000
  C   C529      1.0  0.57647  0.55294  0.69408  1.0000
  C   C530      1.0  0.59014  0.55168  0.67290  1.0000
  C   C531      1.0  0.58911  0.53472  0.65714  1.0000
  C   C532      1.0  0.57463  0.51937  0.66253  1.0000
  H   H832      1.0  0.55163  0.53888  0.71583  1.0000
  H   H833      1.0  0.57700  0.56592  0.70647  1.0000
  H   H834      1.0  0.59926  0.53353  0.64058  1.0000
  H   H835      1.0  0.57395  0.50643  0.65008  1.0000
  H   H836      1.0  0.63334  0.53224  0.66130  1.0000
  S   S219      1.0  0.34852  0.68497  0.82554  1.0000
  N   N52       1.0  0.40083  0.72317  0.80319  1.0000
  H   H837      1.0  0.46848  0.51096  0.66956  1.0000
  H   H838      1.0  0.50880  0.49668  0.60682  1.0000
  H   H839      1.0  0.64114  0.65931  0.68999  1.0000
  H   H840      1.0  0.43510  0.58753  0.93303  1.0000
  H   H841      1.0  0.62337  0.64583  0.65254  1.0000
  H   H842      1.0  0.40911  0.70631  0.83720  1.0000
  C   C533      1.0  0.65178  0.60193  0.51115  1.0000
  H   H843      1.0  0.65158  0.63456  0.69650  1.0000
  C   C534      1.0  0.60178  0.64936  0.69686  1.0000
  H   H844      1.0  0.61532  0.52630  0.70387  1.0000
  H   H845      1.0  0.62235  0.49992  0.70319  1.0000
  N   N53       1.0  0.41559  0.57867  0.90248  1.0000
  C   C535      1.0  0.39641  0.58573  0.89069  1.0000
  C   C536      1.0  0.43211  0.57885  0.88272  1.0000
  C   C537      1.0  0.41300  0.55776  0.91286  1.0000
  C   C538      1.0  0.42073  0.59233  0.92358  1.0000
  H   H846      1.0  0.38361  0.58627  0.90503  1.0000
  H   H847      1.0  0.39200  0.57586  0.87461  1.0000
  H   H848      1.0  0.39803  0.60131  0.88240  1.0000
  H   H849      1.0  0.44694  0.57386  0.89084  1.0000
  H   H850      1.0  0.42870  0.56861  0.86658  1.0000
  H   H851      1.0  0.43419  0.59431  0.87400  1.0000
  H   H852      1.0  0.40060  0.55710  0.92777  1.0000
  H   H853      1.0  0.42722  0.55192  0.92185  1.0000
  H   H854      1.0  0.40906  0.54712  0.89737  1.0000
  N   N54       1.0  0.61910  0.63537  0.69183  1.0000
  H   H855      1.0  0.61460  0.61808  0.72708  1.0000
  H   H856      1.0  0.64736  0.61106  0.52745  1.0000
  H   H857      1.0  0.40842  0.59279  0.93864  1.0000
  H   H858      1.0  0.41440  0.69459  0.79260  1.0000
  H   H859      1.0  0.60690  0.62413  0.65674  1.0000
  H   H860      1.0  0.65526  0.54183  0.72466  1.0000
  H   H861      1.0  0.60009  0.65260  0.71773  1.0000
  H   H862      1.0  0.62847  0.60489  0.70216  1.0000
  H   H863      1.0  0.62897  0.51501  0.73018  1.0000
  H   H864      1.0  0.50061  0.53487  0.63867  1.0000
  C   C539      1.0  0.39719  0.71714  0.83040  1.0000
  C   C540      1.0  0.47016  0.50865  0.64846  1.0000
  H   H865      1.0  0.63906  0.50548  0.66116  1.0000
  H   H866      1.0  0.50447  0.52262  0.66937  1.0000
  C   C541      1.0  0.62076  0.63153  0.66397  1.0000
  C   C542      1.0  0.63815  0.64463  0.70040  1.0000
  H   H867      1.0  0.60155  0.60847  0.69983  1.0000
  C   C543      1.0  0.40594  0.65526  0.97023  1.0000
  H   H868      1.0  0.48833  0.51470  0.60216  1.0000
  H   H869      1.0  0.43337  0.72370  0.80684  1.0000
  H   H870      1.0  0.63763  0.64771  0.72136  1.0000
  S   S220      1.0  0.65495  0.55492  0.61692  1.0000
  H   H871      1.0  0.52116  0.51681  0.64300  1.0000
  C   C544      1.0  0.38411  0.73678  0.79464  1.0000
  N   N55       1.0  0.49143  0.50352  0.64104  1.0000
  C   C545      1.0  0.64453  0.52042  0.66765  1.0000
  C   C546      1.0  0.50496  0.52022  0.64822  1.0000
  C   C547      1.0  0.42051  0.73378  0.80066  1.0000
  S   S221      1.0  0.54271  0.50087  0.68907  1.0000
  H   H872      1.0  0.45959  0.49617  0.64386  1.0000
  C   C548      1.0  0.65315  0.54110  0.70352  1.0000
  Fe  Fe108     1.0  0.51794  0.49448  0.72044  1.0000
  H   H873      1.0  0.37330  0.61691  0.98477  1.0000
  H   H874      1.0  0.32633  0.64813  0.81089  1.0000
  C   C549      1.0  0.38402  0.62897  0.98766  1.0000
  H   H875      1.0  0.42377  0.73873  0.78041  1.0000
  H   H876      1.0  0.50231  0.74070  0.92617  1.0000
  H   H877      1.0  0.45296  0.92451  0.31531  1.0000
  H   H878      1.0  0.47879  0.87514  0.06463  1.0000
  H   H879      1.0  0.46056  0.97894  0.29977  1.0000
  H   H880      1.0  0.62929  0.86838  0.21138  1.0000
  H   H881      1.0  0.53377  0.88852  0.10314  1.0000
  Fe  Fe109     1.0  0.50135  0.96608  0.21445  1.0000
  S   S222      1.0  0.48942  0.95762  0.25407  1.0000
  S   S223      1.0  0.51626  0.94445  0.18545  1.0000
  H   H882      1.0  0.55776  0.75197  0.13528  1.0000
  H   H883      1.0  0.51954  0.86619  0.11159  1.0000
  C   C550      1.0  0.56625  0.96989  0.28405  1.0000
  C   C551      1.0  0.46019  0.93895  0.30872  1.0000
  C   C552      1.0  0.47084  0.74764  0.14008  1.0000
  H   H884      1.0  0.53802  0.85182  0.99280  1.0000
  Fe  Fe110     1.0  0.51364  0.78658  0.11103  1.0000
  S   S224      1.0  0.54595  0.78764  0.09566  1.0000
  S   S225      1.0  0.49715  0.75797  0.09921  1.0000
  Fe  Fe111     1.0  0.51690  0.82955  0.13430  1.0000
  S   S226      1.0  0.54939  0.83304  0.12080  1.0000
  S   S227      1.0  0.49737  0.85283  0.15604  1.0000
  Fe  Fe112     1.0  0.53855  0.81987  0.08348  1.0000
  S   S228      1.0  0.54261  0.83641  0.04464  1.0000
  Fe  Fe113     1.0  0.55379  0.80035  0.13415  1.0000
  S   S229      1.0  0.57556  0.78561  0.16315  1.0000
  S   S230      1.0  0.50589  0.81807  0.09653  1.0000
  S   S231      1.0  0.52167  0.79774  0.14997  1.0000
  H   H885      1.0  0.50094  0.85894  0.06087  1.0000
  C   C553      1.0  0.62917  0.85308  0.22096  1.0000
  C   C554      1.0  0.58739  0.96619  0.28539  1.0000
  S   S232      1.0  0.52369  0.98861  0.22928  1.0000
  C   C555      1.0  0.54283  0.82397  0.01457  1.0000
  H   H886      1.0  0.53691  0.74545  0.11537  1.0000
  C   C556      1.0  0.54606  0.80297  0.01287  1.0000
  C   C557      1.0  0.64549  0.78456  0.17007  1.0000
  H   H887      1.0  0.54800  0.79387  0.03025  1.0000
  C   C558      1.0  0.60253  0.78587  0.16525  1.0000
  C   C559      1.0  0.61156  0.77796  0.18772  1.0000
  C   C560      1.0  0.63290  0.77737  0.19019  1.0000
  H   H888      1.0  0.46587  0.96010  0.36723  1.0000
  C   C561      1.0  0.63647  0.79238  0.14753  1.0000
  C   C562      1.0  0.61510  0.79320  0.14518  1.0000
  H   H889      1.0  0.60198  0.77214  0.20330  1.0000
  H   H890      1.0  0.63960  0.77113  0.20753  1.0000
  H   H891      1.0  0.45300  0.94366  0.29020  1.0000
  H   H892      1.0  0.60840  0.79918  0.12771  1.0000
  C   C563      1.0  0.51131  0.91840  0.17979  1.0000
  C   C564      1.0  0.52633  0.90661  0.16717  1.0000
  C   C565      1.0  0.52271  0.88621  0.16091  1.0000
  C   C566      1.0  0.50374  0.87754  0.16647  1.0000
  C   C567      1.0  0.48878  0.88928  0.17927  1.0000
  C   C568      1.0  0.49257  0.90952  0.18611  1.0000
  H   H893      1.0  0.54090  0.91330  0.16232  1.0000
  H   H894      1.0  0.53456  0.87730  0.15163  1.0000
  H   H895      1.0  0.47404  0.88276  0.18367  1.0000
  H   H896      1.0  0.48082  0.91843  0.19564  1.0000
  C   C569      1.0  0.46766  0.94836  0.35220  1.0000
  H   H897      1.0  0.59610  0.96341  0.26790  1.0000
  H   H898      1.0  0.62818  0.82950  0.17892  1.0000
  C   C570      1.0  0.55472  0.97317  0.30653  1.0000
  Fe  Fe114     1.0  0.51044  0.98148  0.26834  1.0000
  H   H899      1.0  0.42759  0.96224  0.31513  1.0000
  S   S233      1.0  0.62401  0.96067  0.30933  1.0000
  C   C571      1.0  0.59733  0.96571  0.30915  1.0000
  H   H900      1.0  0.43310  0.97179  0.34618  1.0000
  H   H901      1.0  0.55885  0.96983  0.26565  1.0000
  C   C572      1.0  0.46729  0.97386  0.31826  1.0000
  Fe  Fe115     1.0  0.64797  0.95809  0.34070  1.0000
  C   C573      1.0  0.47818  0.74316  0.11536  1.0000
  H   H902      1.0  0.48060  0.90550  0.09368  1.0000
  H   H903      1.0  0.53313  0.86761  0.08145  1.0000
  H   H904      1.0  0.49848  0.90552  0.05136  1.0000
  H   H905      1.0  0.52181  0.91108  0.06714  1.0000
  H   H906      1.0  0.48849  0.88830  0.11882  1.0000
  H   H907      1.0  0.52058  0.88954  0.04649  1.0000
  H   H908      1.0  0.59325  0.96888  0.35004  1.0000
  H   H909      1.0  0.48710  0.85932  0.09103  1.0000
  H   H910      1.0  0.65143  0.79516  0.35634  1.0000
  N   N56       1.0  0.64560  0.83984  0.21064  1.0000
  H   H911      1.0  0.53448  0.75864  0.17229  1.0000
  N   N57       1.0  0.50556  0.88556  0.08330  1.0000
  H   H912      1.0  0.48394  0.97168  0.31463  1.0000
  C   C574      1.0  0.64488  0.81981  0.22400  1.0000
  S   S234      1.0  0.65736  0.96421  0.43704  1.0000
  C   C575      1.0  0.51187  0.89853  0.06106  1.0000
  H   H913      1.0  0.50379  0.90987  0.11051  1.0000
  C   C576      1.0  0.49412  0.89790  0.10231  1.0000
  C   C577      1.0  0.49251  0.86904  0.07449  1.0000
  C   C578      1.0  0.58584  0.96919  0.33164  1.0000
  C   C579      1.0  0.64284  0.83713  0.18276  1.0000
  C   C580      1.0  0.54044  0.83557  0.99172  1.0000
  H   H914      1.0  0.64287  0.85193  0.17202  1.0000
  S   S235      1.0  0.65743  0.98238  0.36760  1.0000
  C   C581      1.0  0.52384  0.87662  0.09537  1.0000
  Fe  Fe116     1.0  0.46678  0.98345  0.24836  1.0000
  H   H915      1.0  0.46104  0.93397  0.36007  1.0000
  H   H916      1.0  0.64608  0.79787  0.13178  1.0000
  N   N58       1.0  0.45771  0.95496  0.32813  1.0000
  C   C582      1.0  0.43576  0.95869  0.33325  1.0000
  H   H917      1.0  0.42827  0.94515  0.34223  1.0000
  S   S236      1.0  0.65394  0.93227  0.36918  1.0000
  H   H918      1.0  0.47606  0.76102  0.14958  1.0000
  H   H919      1.0  0.63000  0.81231  0.22138  1.0000
  H   H920      1.0  0.48430  0.94570  0.34895  1.0000
  H   H921      1.0  0.61390  0.84641  0.21799  1.0000
  H   H922      1.0  0.46524  0.98653  0.33195  1.0000
  H   H923      1.0  0.39082  0.97546  0.27319  1.0000
  H   H924      1.0  0.47657  0.93568  0.30440  1.0000
  S   S237      1.0  0.43316  0.97885  0.25910  1.0000
  H   H925      1.0  0.51362  0.75344  0.15163  1.0000
  C   C583      1.0  0.56465  0.97289  0.33030  1.0000
  H   H926      1.0  0.64649  0.77262  0.31921  1.0000
  C   C584      1.0  0.39720  0.98680  0.28538  1.0000
  S   S238      1.0  0.52798  0.97781  0.30570  1.0000
  H   H927      1.0  0.64721  0.82117  0.24504  1.0000
  H   H928      1.0  0.63081  0.85531  0.24201  1.0000
  H   H929      1.0  0.55590  0.97543  0.34781  1.0000
  H   H930      1.0  0.65753  0.85982  0.30231  1.0000
  C   C585      1.0  0.52466  0.74634  0.16517  1.0000
  H   H931      1.0  0.65525  0.82749  0.17435  1.0000
  H   H932      1.0  0.65237  0.97717  0.48897  1.0000
  S   S239      1.0  0.47726  0.99040  0.20734  1.0000
  H   H933      1.0  0.65697  0.80942  0.21641  1.0000
  H   H934      1.0  0.46096  0.97603  0.82608  1.0000
  H   H935      1.0  0.55054  0.77766  0.98756  1.0000
  H   H936      1.0  0.61421  0.80863  0.91276  1.0000
  H   H937      1.0  0.60131  0.94053  0.50887  1.0000
  Fe  Fe117     1.0  0.48996  0.96147  0.75441  1.0000
  S   S240      1.0  0.49853  0.96309  0.71238  1.0000
  S   S241      1.0  0.47933  0.93188  0.77386  1.0000
  H   H938      1.0  0.58711  0.80626  0.91082  1.0000
  H   H939      1.0  0.49698  0.75994  0.90222  1.0000
  C   C586      1.0  0.54141  0.82634  0.96743  1.0000
  H   H940      1.0  0.57043  0.96606  0.62445  1.0000
  C   C587      1.0  0.64640  0.85171  0.72255  1.0000
  Fe  Fe118     1.0  0.52893  0.83556  0.85200  1.0000
  S   S242      1.0  0.55826  0.82052  0.86524  1.0000
  S   S243      1.0  0.53261  0.86927  0.84113  1.0000
  Fe  Fe119     1.0  0.50504  0.79566  0.85848  1.0000
  S   S244      1.0  0.53282  0.77830  0.87051  1.0000
  S   S245      1.0  0.47330  0.78168  0.86286  1.0000
  Fe  Fe120     1.0  0.53903  0.80478  0.89580  1.0000
  S   S246      1.0  0.54826  0.79318  0.93573  1.0000
  Fe  Fe121     1.0  0.54987  0.79547  0.83915  1.0000
  S   S247      1.0  0.57233  0.77859  0.81287  1.0000
  S   S248      1.0  0.51052  0.82176  0.88503  1.0000
  S   S249      1.0  0.52130  0.81088  0.82450  1.0000
  H   H941      1.0  0.42602  0.98573  0.63655  1.0000
  H   H942      1.0  0.45698  0.76782  0.95273  1.0000
  N   N59       1.0  0.60417  0.77954  0.90003  1.0000
  H   H943      1.0  0.52117  0.98707  0.85205  1.0000
  C   C588      1.0  0.59869  0.78331  0.80784  1.0000
  C   C589      1.0  0.60880  0.79837  0.82107  1.0000
  C   C590      1.0  0.63003  0.80061  0.81784  1.0000
  C   C591      1.0  0.64132  0.78814  0.80096  1.0000
  C   C592      1.0  0.63110  0.77364  0.78698  1.0000
  C   C593      1.0  0.60993  0.77115  0.79058  1.0000
  H   H944      1.0  0.60028  0.80812  0.83397  1.0000
  H   H945      1.0  0.63778  0.81202  0.82856  1.0000
  H   H946      1.0  0.63956  0.76393  0.77393  1.0000
  H   H947      1.0  0.57236  0.77444  0.89465  1.0000
  C   C594      1.0  0.63103  0.92166  0.53538  1.0000
  C   C595      1.0  0.54523  0.80544  0.96575  1.0000
  H   H948      1.0  0.59394  0.93268  0.57976  1.0000
  H   H949      1.0  0.53975  0.83550  0.95005  1.0000
  H   H950      1.0  0.50396  0.79654  0.93568  1.0000
  C   C596      1.0  0.49482  0.91399  0.79098  1.0000
  C   C597      1.0  0.51518  0.91785  0.79633  1.0000
  C   C598      1.0  0.52651  0.90389  0.81147  1.0000
  C   C599      1.0  0.51787  0.88563  0.82085  1.0000
  C   C600      1.0  0.49767  0.88150  0.81490  1.0000
  C   C601      1.0  0.48618  0.89570  0.80026  1.0000
  H   H951      1.0  0.52219  0.93167  0.78906  1.0000
  H   H952      1.0  0.54212  0.90723  0.81589  1.0000
  H   H953      1.0  0.49078  0.86760  0.82209  1.0000
  H   H954      1.0  0.47046  0.89252  0.79629  1.0000
  C   C602      1.0  0.46764  0.76018  0.93901  1.0000
  C   C603      1.0  0.59321  0.97407  0.69147  1.0000
  H   H955      1.0  0.60231  0.80920  0.88192  1.0000
  C   C604      1.0  0.61985  0.95452  0.55038  1.0000
  H   H956      1.0  0.60174  0.90805  0.56841  1.0000
  C   C605      1.0  0.59799  0.96573  0.64635  1.0000
  N   N60       1.0  0.48853  0.76806  0.94087  1.0000
  H   H957      1.0  0.58895  0.77438  0.93657  1.0000
  H   H958      1.0  0.65562  0.80462  0.74803  1.0000
  H   H959      1.0  0.60718  0.96374  0.55893  1.0000
  C   C606      1.0  0.50205  0.75741  0.92236  1.0000
  H   H960      1.0  0.62224  0.96646  0.67354  1.0000
  C   C607      1.0  0.59667  0.93345  0.52774  1.0000
  H   H961      1.0  0.65047  0.81170  0.71522  1.0000
  H   H962      1.0  0.48473  0.94705  0.83334  1.0000
  C   C608      1.0  0.57687  0.96817  0.64318  1.0000
  N   N61       1.0  0.61359  0.93338  0.54607  1.0000
  H   H963      1.0  0.61469  0.84337  0.75480  1.0000
  C   C609      1.0  0.60609  0.96855  0.67068  1.0000
  C   C610      1.0  0.56394  0.97344  0.66409  1.0000
  H   H964      1.0  0.62239  0.81778  0.76282  1.0000
  H   H965      1.0  0.63630  0.92812  0.51644  1.0000
  C   C611      1.0  0.60355  0.77057  0.92637  1.0000
  C   C612      1.0  0.46683  0.75569  0.85959  1.0000
  S   S250      1.0  0.45540  0.98972  0.67626  1.0000
  H   H966      1.0  0.47846  0.79866  0.94839  1.0000
  C   C613      1.0  0.47432  0.98627  0.82547  1.0000
  C   C614      1.0  0.57208  0.97653  0.68835  1.0000
  Fe  Fe122     1.0  0.52244  0.98548  0.72298  1.0000
  H   H967      1.0  0.64427  0.92175  0.54844  1.0000
  N   N62       1.0  0.44154  0.93053  0.70390  1.0000
  C   C615      1.0  0.44761  0.93669  0.67734  1.0000
  C   C616      1.0  0.43910  0.94883  0.71968  1.0000
  C   C617      1.0  0.45746  0.91710  0.71504  1.0000
  C   C618      1.0  0.42202  0.91964  0.70361  1.0000
  H   H968      1.0  0.44929  0.92336  0.66463  1.0000
  H   H969      1.0  0.46244  0.94479  0.67692  1.0000
  H   H970      1.0  0.43625  0.94740  0.66868  1.0000
  H   H971      1.0  0.43572  0.94488  0.74025  1.0000
  H   H972      1.0  0.45325  0.95785  0.71900  1.0000
  H   H973      1.0  0.42672  0.95905  0.71249  1.0000
  H   H974      1.0  0.45339  0.91217  0.73512  1.0000
  H   H975      1.0  0.47230  0.92504  0.71603  1.0000
  H   H976      1.0  0.45998  0.90321  0.70352  1.0000
  H   H977      1.0  0.41696  0.91502  0.72345  1.0000
  H   H978      1.0  0.42331  0.90564  0.69200  1.0000
  H   H979      1.0  0.40975  0.92941  0.69522  1.0000
  H   H980      1.0  0.62460  0.78069  0.86720  1.0000
  C   C619      1.0  0.48840  0.79010  0.93473  1.0000
  S   S251      1.0  0.51508  0.98195  0.76535  1.0000
  H   H981      1.0  0.51179  0.77046  0.96911  1.0000
  H   H982      1.0  0.43694  0.75987  0.87671  1.0000
  H   H983      1.0  0.61636  0.82453  0.73021  1.0000
  H   H984      1.0  0.59157  0.91774  0.52398  1.0000
  C   C620      1.0  0.62381  0.77439  0.88724  1.0000
  H   H985      1.0  0.49524  0.74638  0.84195  1.0000
  H   H986      1.0  0.46164  0.76274  0.91926  1.0000
  H   H987      1.0  0.64643  0.85640  0.77377  1.0000
  C   C621      1.0  0.49748  0.95806  0.83259  1.0000
  N   N63       1.0  0.49096  0.97832  0.84169  1.0000
  N   N64       1.0  0.64523  0.83545  0.74260  1.0000
  S   S252      1.0  0.55689  0.98420  0.71520  1.0000
  H   H988      1.0  0.50299  0.95888  0.81223  1.0000
  S   S253      1.0  0.46695  0.98715  0.75207  1.0000
  H   H989      1.0  0.58328  0.94220  0.53525  1.0000
  H   H990      1.0  0.48272  0.79329  0.91499  1.0000
  C   C622      1.0  0.60189  0.80188  0.90143  1.0000
  H   H991      1.0  0.62607  0.75763  0.88599  1.0000
  H   H992      1.0  0.54775  0.97538  0.66139  1.0000
  H   H993      1.0  0.58686  0.77824  0.86540  1.0000
  H   H994      1.0  0.62704  0.90551  0.53239  1.0000
  H   H995      1.0  0.63779  0.86557  0.72846  1.0000
  S   S254      1.0  0.61373  0.95963  0.61931  1.0000
  H   H996      1.0  0.60225  0.75951  0.78017  1.0000
  H   H997      1.0  0.61926  0.92362  0.58506  1.0000
  C   C623      1.0  0.60681  0.92396  0.57083  1.0000
  H   H998      1.0  0.42080  0.74747  0.81289  1.0000
  C   C624      1.0  0.62372  0.83009  0.74780  1.0000
  C   C625      1.0  0.44745  0.74911  0.86806  1.0000
  H   H999      1.0  0.63261  0.95495  0.56406  1.0000
  H   H1000     1.0  0.47945  0.98784  0.80504  1.0000
  H   H1001     1.0  0.61609  0.77636  0.93819  1.0000
  C   C626      1.0  0.58733  0.77132  0.88512  1.0000
  H   H1002     1.0  0.62499  0.96221  0.53214  1.0000
  H   H1003     1.0  0.51009  0.95149  0.84423  1.0000
  H   H1004     1.0  0.51798  0.76286  0.92335  1.0000
  H   H1005     1.0  0.59961  0.97633  0.71021  1.0000
  H   H1006     1.0  0.63689  0.78058  0.89773  1.0000
  C   C627      1.0  0.49604  0.76459  0.96725  1.0000
  H   H1007     1.0  0.48626  0.77247  0.98176  1.0000
  Fe  Fe123     1.0  0.64802  0.95434  0.62059  1.0000
  C   C628      1.0  0.48365  0.97657  0.86871  1.0000
  H   H1008     1.0  0.64012  0.84663  0.70404  1.0000
  H   H1009     1.0  0.65363  0.83071  0.78206  1.0000
  H   H1010     1.0  0.49585  0.97060  0.88148  1.0000
  H   H1011     1.0  0.47052  0.96607  0.87067  1.0000
  H   H1012     1.0  0.38309  0.75069  0.80645  1.0000
  H   H1013     1.0  0.58879  0.75458  0.88293  1.0000
  C   C629      1.0  0.65439  0.84258  0.76649  1.0000
  H   H1014     1.0  0.60492  0.75369  0.92608  1.0000
  C   C630      1.0  0.54748  0.79382  0.98859  1.0000
  Fe  Fe124     1.0  0.47693  0.99011  0.71051  1.0000
  H   H1015     1.0  0.38629  0.74167  0.77415  1.0000
  H   H1016     1.0  0.49640  0.74811  0.97259  1.0000
  C   C631      1.0  0.65652  0.81732  0.73359  1.0000
  H   H1017     1.0  0.46716  0.74353  0.94326  1.0000
  C   C632      1.0  0.48031  0.74158  0.84861  1.0000
  H   H1018     1.0  0.79861  0.15789  0.39523  1.0000
  H   H1019     1.0  0.71684  0.03640  0.43219  1.0000
  H   H1020     1.0  0.73241  0.01789  0.41612  1.0000
  H   H1021     1.0  0.92112  0.03740  0.37149  1.0000
  Fe  Fe125     1.0  0.81530  0.06084  0.36337  1.0000
  S   S255      1.0  0.84800  0.05538  0.37469  1.0000
  S   S256      1.0  0.79589  0.03290  0.37291  1.0000
  Fe  Fe126     1.0  0.82297  0.10623  0.34889  1.0000
  S   S257      1.0  0.85597  0.10300  0.35913  1.0000
  S   S258      1.0  0.80824  0.13832  0.34417  1.0000
  Fe  Fe127     1.0  0.85626  0.07302  0.33865  1.0000
  S   S259      1.0  0.88349  0.06598  0.31138  1.0000
  Fe  Fe128     1.0  0.84525  0.08538  0.39442  1.0000
  S   S260      1.0  0.86033  0.09305  0.43231  1.0000
  S   S261      1.0  0.82356  0.07718  0.32587  1.0000
  S   S262      1.0  0.81228  0.08980  0.38551  1.0000
  S   S263      1.0  0.80523  0.21346  0.26211  1.0000
  C   C633      1.0  0.80794  0.15908  0.32106  1.0000
  C   C634      1.0  0.81723  0.15793  0.29663  1.0000
  C   C635      1.0  0.81626  0.17468  0.27907  1.0000
  C   C636      1.0  0.80620  0.19300  0.28558  1.0000
  C   C637      1.0  0.79694  0.19418  0.31004  1.0000
  C   C638      1.0  0.79775  0.17736  0.32753  1.0000
  H   H1022     1.0  0.82512  0.14409  0.29119  1.0000
  H   H1023     1.0  0.82352  0.17345  0.26029  1.0000
  H   H1024     1.0  0.78910  0.20804  0.31549  1.0000
  H   H1025     1.0  0.79042  0.17855  0.34625  1.0000
  C   C639      1.0  0.83173  0.07841  0.46829  1.0000
  C   C640      1.0  0.85018  0.08844  0.46398  1.0000
  H   H1026     1.0  0.73823  0.21504  0.25547  1.0000
  H   H1027     1.0  0.82340  0.07290  0.45216  1.0000
  C   C641      1.0  0.89367  0.04451  0.40947  1.0000
  C   C642      1.0  0.90191  0.04579  0.30816  1.0000
  C   C643      1.0  0.91700  0.04726  0.28854  1.0000
  C   C644      1.0  0.93210  0.03192  0.28535  1.0000
  C   C645      1.0  0.93249  0.01485  0.30192  1.0000
  C   C646      1.0  0.91741  0.01339  0.32159  1.0000
  C   C647      1.0  0.90217  0.02864  0.32461  1.0000
  H   H1028     1.0  0.91702  0.06039  0.27565  1.0000
  H   H1029     1.0  0.94354  0.03342  0.27020  1.0000
  H   H1030     1.0  0.78163  0.18662  0.22597  1.0000
  H   H1031     1.0  0.89059  0.02704  0.33956  1.0000
  C   C648      1.0  0.73196  0.01359  0.34906  1.0000
  H   H1032     1.0  0.91742  0.00024  0.33444  1.0000
  C   C649      1.0  0.76268  0.00806  0.37367  1.0000
  C   C650      1.0  0.77118  0.02609  0.36339  1.0000
  C   C651      1.0  0.75993  0.03788  0.34592  1.0000
  C   C652      1.0  0.74043  0.03160  0.33876  1.0000
  H   H1033     1.0  0.88055  0.05299  0.41824  1.0000
  C   C653      1.0  0.96191  0.01831  0.16472  1.0000
  H   H1034     1.0  0.76630  0.05176  0.33783  1.0000
  H   H1035     1.0  0.73190  0.04077  0.32510  1.0000
  N   N65       1.0  0.75296  0.20247  0.22188  1.0000
  C   C654      1.0  0.74077  0.18372  0.22276  1.0000
  C   C655      1.0  0.74351  0.21760  0.20420  1.0000
  C   C656      1.0  0.75367  0.21089  0.24797  1.0000
  H   H1036     1.0  0.80554  0.13072  0.45826  1.0000
  H   H1037     1.0  0.92869  0.08187  0.41334  1.0000
  H   H1038     1.0  0.73991  0.17692  0.20338  1.0000
  S   S264      1.0  0.97118  0.99478  0.22614  1.0000
  C   C657      1.0  0.81822  0.12886  0.44396  1.0000
  C   C658      1.0  0.72251  0.02039  0.43344  1.0000
  H   H1039     1.0  0.93847  0.05692  0.37948  1.0000
  H   H1040     1.0  0.93310  0.23101  0.17829  1.0000
  H   H1041     1.0  0.72782  0.22190  0.21076  1.0000
  N   N66       1.0  0.81836  0.14544  0.42429  1.0000
  C   C659      1.0  0.82109  0.16512  0.43691  1.0000
  N   N67       1.0  0.70552  0.00584  0.43490  1.0000
  C   C660      1.0  0.79887  0.14576  0.41053  1.0000
  H   H1042     1.0  0.82127  0.17794  0.42256  1.0000
  H   H1043     1.0  0.83571  0.16536  0.44739  1.0000
  H   H1044     1.0  0.81650  0.11374  0.43506  1.0000
  H   H1045     1.0  0.67961  0.99918  0.45937  1.0000
  H   H1046     1.0  0.98517  0.21708  0.20001  1.0000
  C   C661      1.0  0.98865  0.02555  0.13342  1.0000
  H   H1047     1.0  0.68691  0.02396  0.40934  1.0000
  H   H1048     1.0  0.67991  0.99773  0.41235  1.0000
  H   H1049     1.0  0.94687  0.20820  0.17004  1.0000
  H   H1050     1.0  0.70142  0.00797  0.47595  1.0000
  N   N68       1.0  0.90941  0.05857  0.39924  1.0000
  H   H1051     1.0  0.80859  0.16815  0.45114  1.0000
  H   H1052     1.0  0.78352  0.21147  0.21180  1.0000
  H   H1053     1.0  0.76301  0.22483  0.24795  1.0000
  H   H1054     1.0  0.93356  0.03625  0.40193  1.0000
  H   H1055     1.0  0.79637  0.13114  0.40070  1.0000
  C   C662      1.0  0.91699  0.07089  0.42042  1.0000
  H   H1056     1.0  0.94737  0.21735  0.20240  1.0000
  H   H1057     1.0  0.95386  0.01002  0.11571  1.0000
  H   H1058     1.0  0.83588  0.15418  0.39043  1.0000
  H   H1059     1.0  0.76078  0.19994  0.26188  1.0000
  H   H1060     1.0  0.98515  0.20862  0.16729  1.0000
  C   C663      1.0  0.83532  0.14204  0.40571  1.0000
  H   H1061     1.0  0.89398  0.06338  0.36356  1.0000
  H   H1062     1.0  0.85029  0.14132  0.41537  1.0000
  S   S265      1.0  0.70766  0.00608  0.33876  1.0000
  H   H1063     1.0  0.77133  0.99886  0.38718  1.0000
  C   C664      1.0  0.98427  0.22229  0.17956  1.0000
  H   H1064     1.0  0.92390  0.06114  0.43576  1.0000
  H   H1065     1.0  0.72491  0.18682  0.22968  1.0000
  H   H1066     1.0  0.91192  0.08262  0.37056  1.0000
  C   C665      1.0  0.77389  0.19765  0.21272  1.0000
  H   H1067     1.0  0.75234  0.23194  0.20305  1.0000
  C   C666      1.0  0.92641  0.04677  0.38761  1.0000
  H   H1068     1.0  0.78568  0.14836  0.42385  1.0000
  H   H1069     1.0  0.83355  0.12745  0.39574  1.0000
  H   H1070     1.0  0.90439  0.07986  0.42961  1.0000
  H   H1071     1.0  0.88795  0.08171  0.38773  1.0000
  H   H1072     1.0  0.74259  0.21180  0.18431  1.0000
  H   H1073     1.0  0.88757  0.03499  0.39398  1.0000
  H   H1074     1.0  0.89982  0.03406  0.42461  1.0000
  H   H1075     1.0  0.74754  0.17204  0.23599  1.0000
  H   H1076     1.0  0.97028  0.02604  0.18010  1.0000
  H   H1077     1.0  0.68617  0.02557  0.45735  1.0000
  H   H1078     1.0  0.83270  0.12821  0.45474  1.0000
  H   H1079     1.0  0.73233  0.01894  0.45061  1.0000
  H   H1080     1.0  0.77404  0.19109  0.19317  1.0000
  N   N69       1.0  0.97610  0.00932  0.14553  1.0000
  C   C667      1.0  0.90044  0.07218  0.37943  1.0000
  C   C668      1.0  0.74316  0.00185  0.36663  1.0000
  H   H1081     1.0  0.97908  0.03726  0.12353  1.0000
  C   C669      1.0  0.69264  0.00985  0.45794  1.0000
  H   H1082     1.0  0.70213  0.00485  0.39388  1.0000
  N   N70       1.0  0.96554  0.23439  0.17487  1.0000
  H   H1083     1.0  0.95163  0.02988  0.15577  1.0000
  H   H1084     1.0  0.87499  0.10327  0.48229  1.0000
  H   H1085     1.0  0.95224  0.00649  0.17435  1.0000
  S   S266      1.0  0.95159  0.99522  0.29937  1.0000
  C   C670      1.0  0.86074  0.09543  0.48533  1.0000
  C   C671      1.0  0.94743  0.22216  0.18174  1.0000
  C   C672      1.0  0.96433  0.99915  0.12566  1.0000
  C   C673      1.0  0.69309  0.00821  0.41162  1.0000
  H   H1086     1.0  0.96570  0.22707  0.13467  1.0000
  C   C674      1.0  0.98950  0.99420  0.15838  1.0000
  H   H1087     1.0  0.97456  0.99227  0.11079  1.0000
  C   C675      1.0  0.96482  0.24046  0.14738  1.0000
  S   S267      1.0  0.70205  0.00698  0.62343  1.0000
  H   H1088     1.0  0.85946  0.01534  0.72928  1.0000
  H   H1089     1.0  0.83128  0.02515  0.65662  1.0000
  S   S268      1.0  0.94517  0.00139  0.69371  1.0000
  Fe  Fe129     1.0  0.82879  0.08304  0.58959  1.0000
  S   S269      1.0  0.79999  0.09222  0.61121  1.0000
  S   S270      1.0  0.82397  0.07763  0.54648  1.0000
  Fe  Fe130     1.0  0.85279  0.07731  0.64055  1.0000
  S   S271      1.0  0.82513  0.08601  0.66432  1.0000
  S   S272      1.0  0.88071  0.07295  0.66655  1.0000
  Fe  Fe131     1.0  0.80747  0.06599  0.63819  1.0000
  S   S273      1.0  0.78919  0.03946  0.65581  1.0000
  Fe  Fe132     1.0  0.82011  0.11156  0.63560  1.0000
  S   S274      1.0  0.81712  0.14603  0.64380  1.0000
  S   S275      1.0  0.83542  0.05605  0.61589  1.0000
  S   S276      1.0  0.84857  0.10370  0.61238  1.0000
  S   S277      1.0  0.78649  0.21138  0.72770  1.0000
  C   C676      1.0  0.83462  0.08223  0.51504  1.0000
  H   H1090     1.0  0.72318  0.04418  0.61176  1.0000
  C   C677      1.0  0.85303  0.09237  0.51071  1.0000
  C   C678      1.0  0.82685  0.00607  0.70158  1.0000
  H   H1091     1.0  0.86133  0.09779  0.52692  1.0000
  C   C679      1.0  0.80831  0.16384  0.66746  1.0000
  C   C680      1.0  0.81129  0.18481  0.66275  1.0000
  C   C681      1.0  0.80494  0.19952  0.68087  1.0000
  C   C682      1.0  0.79537  0.19353  0.70410  1.0000
  C   C683      1.0  0.79256  0.17253  0.70890  1.0000
  C   C684      1.0  0.79902  0.15781  0.69085  1.0000
  H   H1092     1.0  0.81844  0.18978  0.64481  1.0000
  H   H1093     1.0  0.80723  0.21552  0.67670  1.0000
  H   H1094     1.0  0.78515  0.16761  0.72669  1.0000
  H   H1095     1.0  0.79652  0.14183  0.69493  1.0000
  C   C685      1.0  0.92755  0.02165  0.68644  1.0000
  C   C686      1.0  0.91438  0.01968  0.66555  1.0000
  C   C687      1.0  0.90019  0.03520  0.65893  1.0000
  C   C688      1.0  0.89878  0.05296  0.67329  1.0000
  C   C689      1.0  0.91191  0.05493  0.69421  1.0000
  C   C690      1.0  0.92616  0.03944  0.70075  1.0000
  H   H1096     1.0  0.91536  0.00611  0.65417  1.0000
  H   H1097     1.0  0.89060  0.03348  0.64248  1.0000
  H   H1098     1.0  0.91109  0.06854  0.70552  1.0000
  H   H1099     1.0  0.93611  0.04128  0.71686  1.0000
  C   C691      1.0  0.72710  0.01494  0.63072  1.0000
  C   C692      1.0  0.74040  0.00279  0.64529  1.0000
  C   C693      1.0  0.75942  0.01042  0.65249  1.0000
  C   C694      1.0  0.76563  0.03008  0.64472  1.0000
  C   C695      1.0  0.75255  0.04202  0.62959  1.0000
  C   C696      1.0  0.73332  0.03458  0.62294  1.0000
  C   C697      1.0  0.86158  0.01643  0.70801  1.0000
  H   H1100     1.0  0.81210  0.00976  0.69210  1.0000
  H   H1101     1.0  0.75702  0.05720  0.62358  1.0000
  H   H1102     1.0  0.82029  0.04608  0.69433  1.0000
  H   H1103     1.0  0.83196  0.04172  0.72493  1.0000
  N   N71       1.0  0.86979  0.13733  0.68593  1.0000
  C   C698      1.0  0.86402  0.15888  0.68968  1.0000
  C   C699      1.0  0.85309  0.12417  0.69552  1.0000
  C   C700      1.0  0.88848  0.13232  0.70024  1.0000
  C   C701      1.0  0.87353  0.13383  0.65823  1.0000
  H   H1104     1.0  0.87630  0.16930  0.68287  1.0000
  H   H1105     1.0  0.86062  0.16205  0.71029  1.0000
  H   H1106     1.0  0.85010  0.16308  0.67875  1.0000
  H   H1107     1.0  0.84967  0.12655  0.71629  1.0000
  H   H1108     1.0  0.83878  0.12741  0.68499  1.0000
  H   H1109     1.0  0.85700  0.10779  0.69304  1.0000
  H   H1110     1.0  0.89315  0.11612  0.69758  1.0000
  H   H1111     1.0  0.88619  0.13467  0.72125  1.0000
  H   H1112     1.0  0.90143  0.14194  0.69351  1.0000
  H   H1113     1.0  0.88618  0.14333  0.65036  1.0000
  H   H1114     1.0  0.85980  0.13768  0.64681  1.0000
  H   H1115     1.0  0.87758  0.11762  0.65463  1.0000
  Fe  Fe133     1.0  0.97059  0.99641  0.72338  1.0000
  C   C702      1.0  0.82406  0.07533  0.49363  1.0000
  H   H1116     1.0  0.80983  0.06744  0.49672  1.0000
  H   H1117     1.0  0.87333  0.02817  0.70388  1.0000
  N   N72       1.0  0.84228  0.02163  0.69511  1.0000
  H   H1118     1.0  0.85255  0.00798  0.65978  1.0000
  C   C703      1.0  0.84578  0.02242  0.66695  1.0000
  H   H1119     1.0  0.82373  0.00503  0.72268  1.0000
  C   C704      1.0  0.83482  0.04169  0.70378  1.0000
  H   H1120     1.0  0.85628  0.03492  0.66119  1.0000
  H   H1121     1.0  0.84607  0.05382  0.69901  1.0000
  S   S278      1.0  0.96681  0.99908  0.76648  1.0000
  H   H1122     1.0  0.76933  0.00108  0.66431  1.0000
  C   C705      1.0  0.97908  0.23695  0.90960  1.0000
  H   H1123     1.0  0.86804  0.00167  0.70137  1.0000
  H   H1124     1.0  0.97811  0.21676  0.95503  1.0000
  H   H1125     1.0  0.65919  0.04954  0.67054  1.0000
  C   C706      1.0  0.65868  0.00904  0.67837  1.0000
  H   H1126     1.0  0.66150  0.01752  0.69623  1.0000
  C   C707      1.0  0.97390  0.23320  0.95557  1.0000
  H   H1127     1.0  0.95706  0.23450  0.95368  1.0000
  H   H1128     1.0  0.67384  0.00522  0.66956  1.0000
  H   H1129     1.0  0.67171  0.03718  0.64402  1.0000
  H   H1130     1.0  0.98390  0.22077  0.90757  1.0000
  H   H1131     1.0  0.96237  0.23796  0.90656  1.0000
  H   H1132     1.0  0.97765  0.23886  0.97493  1.0000
  H   H1133     1.0  0.69740  0.32970  0.17298  1.0000
  H   H1134     1.0  0.74473  0.29756  0.28976  1.0000
  S   S279      1.0  0.79592  0.43360  0.38953  1.0000
  Fe  Fe134     1.0  0.83479  0.46734  0.35096  1.0000
  S   S280      1.0  0.84294  0.43700  0.36809  1.0000
  C   C708      1.0  0.88998  0.46940  0.43836  1.0000
  Fe  Fe135     1.0  0.81316  0.42627  0.35261  1.0000
  S   S281      1.0  0.81467  0.40129  0.32236  1.0000
  Fe  Fe136     1.0  0.82510  0.44720  0.40324  1.0000
  S   S282      1.0  0.84165  0.44734  0.44154  1.0000
  S   S283      1.0  0.80568  0.45661  0.33391  1.0000
  H   H1135     1.0  0.71865  0.29458  0.29960  1.0000
  S   S284      1.0  0.96379  0.28397  0.10671  1.0000
  Fe  Fe137     1.0  0.96599  0.33511  0.14501  1.0000
  S   S285      1.0  0.94050  0.32831  0.11795  1.0000
  Fe  Fe138     1.0  0.97435  0.48194  0.27632  1.0000
  Fe  Fe139     1.0  0.94077  0.29653  0.13540  1.0000
  S   S286      1.0  0.91689  0.27617  0.15521  1.0000
  Fe  Fe140     1.0  0.96555  0.31626  0.09132  1.0000
  S   S287      1.0  0.97267  0.32450  0.04904  1.0000
  S   S288      1.0  0.96472  0.30395  0.16352  1.0000
  S   S289      1.0  0.96523  0.35896  0.17679  1.0000
  H   H1136     1.0  0.70828  0.30570  0.25580  1.0000
  H   H1137     1.0  0.86951  0.46413  0.39522  1.0000
  Fe  Fe141     1.0  0.76076  0.27413  0.23239  1.0000
  S   S290      1.0  0.76718  0.26300  0.27292  1.0000
  S   S291      1.0  0.72766  0.26972  0.21907  1.0000
  Fe  Fe142     1.0  0.80633  0.28469  0.22325  1.0000
  S   S292      1.0  0.81535  0.27447  0.26309  1.0000
  S   S293      1.0  0.82728  0.30100  0.19411  1.0000
  H   H1138     1.0  0.97914  0.26239  0.18591  1.0000
  Fe  Fe143     1.0  0.78666  0.29097  0.27579  1.0000
  S   S294      1.0  0.78228  0.31059  0.31134  1.0000
  S   S295      1.0  0.78786  0.25680  0.21618  1.0000
  S   S296      1.0  0.77864  0.30281  0.23642  1.0000
  C   C709      1.0  0.89166  0.28291  0.16506  1.0000
  C   C710      1.0  0.88155  0.27074  0.18377  1.0000
  C   C711      1.0  0.86182  0.27596  0.19284  1.0000
  C   C712      1.0  0.85192  0.29335  0.18310  1.0000
  C   C713      1.0  0.86196  0.30539  0.16420  1.0000
  C   C714      1.0  0.88166  0.30016  0.15512  1.0000
  H   H1139     1.0  0.88904  0.25727  0.19146  1.0000
  H   H1140     1.0  0.85425  0.26653  0.20733  1.0000
  H   H1141     1.0  0.85434  0.31873  0.15634  1.0000
  H   H1142     1.0  0.88900  0.30939  0.14025  1.0000
  H   H1143     1.0  0.92326  0.47658  0.40875  1.0000
  H   H1144     1.0  0.95052  0.24897  0.14293  1.0000
  C   C715      1.0  0.97170  0.39427  0.20274  1.0000
  H   H1145     1.0  0.95179  0.26239  0.18738  1.0000
  H   H1146     1.0  0.75690  0.33046  0.27168  1.0000
  C   C716      1.0  0.88374  0.48140  0.32149  1.0000
  C   C717      1.0  0.94277  0.30756  0.01908  1.0000
  C   C718      1.0  0.96218  0.31598  0.01999  1.0000
  C   C719      1.0  0.96563  0.25281  0.19069  1.0000
  H   H1147     1.0  0.93397  0.30530  0.03670  1.0000
  C   C720      1.0  0.79137  0.33580  0.31419  1.0000
  C   C721      1.0  0.80202  0.34564  0.29406  1.0000
  C   C722      1.0  0.80888  0.36568  0.29698  1.0000
  C   C723      1.0  0.80517  0.37618  0.31997  1.0000
  C   C724      1.0  0.79430  0.36644  0.34000  1.0000
  C   C725      1.0  0.78745  0.34635  0.33709  1.0000
  H   H1148     1.0  0.80512  0.33775  0.27632  1.0000
  H   H1149     1.0  0.81722  0.37303  0.28132  1.0000
  H   H1150     1.0  0.79135  0.37428  0.35780  1.0000
  H   H1151     1.0  0.77923  0.33889  0.35280  1.0000
  N   N73       1.0  0.89116  0.48220  0.41464  1.0000
  H   H1152     1.0  0.97769  0.25056  0.14192  1.0000
  H   H1153     1.0  0.96888  0.38503  0.21986  1.0000
  H   H1154     1.0  0.73434  0.30879  0.24640  1.0000
  S   S297      1.0  0.75824  0.47795  0.37778  1.0000
  H   H1155     1.0  0.66710  0.48788  0.29688  1.0000
  C   C726      1.0  0.81130  0.43617  0.47715  1.0000
  C   C727      1.0  0.83082  0.44401  0.47298  1.0000
  C   C728      1.0  0.72105  0.31670  0.25548  1.0000
  H   H1156     1.0  0.80219  0.43234  0.46086  1.0000
  C   C729      1.0  0.67615  0.30499  0.17565  1.0000
  C   C730      1.0  0.67353  0.28494  0.18467  1.0000
  C   C731      1.0  0.68941  0.27451  0.19775  1.0000
  C   C732      1.0  0.70830  0.28376  0.20191  1.0000
  C   C733      1.0  0.71097  0.30378  0.19279  1.0000
  C   C734      1.0  0.69500  0.31430  0.17998  1.0000
  H   H1157     1.0  0.73949  0.35148  0.26809  1.0000
  H   H1158     1.0  0.68699  0.25907  0.20462  1.0000
  H   H1159     1.0  0.72539  0.31115  0.19536  1.0000
  N   N74       1.0  0.72576  0.32352  0.28161  1.0000
  H   H1160     1.0  0.90700  0.45939  0.39266  1.0000
  H   H1161     1.0  0.69447  0.32350  0.29438  1.0000
  C   C735      1.0  0.89419  0.46624  0.33535  1.0000
  H   H1162     1.0  0.92321  0.45135  0.34179  1.0000
  C   C736      1.0  0.92602  0.47474  0.31232  1.0000
  H   H1163     1.0  0.88615  0.45704  0.34961  1.0000
  C   C737      1.0  0.97512  0.39745  0.15647  1.0000
  H   H1164     1.0  0.71682  0.32966  0.24249  1.0000
  C   C738      1.0  0.87215  0.48022  0.40025  1.0000
  S   S298      1.0  0.95263  0.47046  0.30834  1.0000
  N   N75       1.0  0.85839  0.43237  0.27913  1.0000
  C   C739      1.0  0.85665  0.41297  0.26555  1.0000
  C   C740      1.0  0.87399  0.44522  0.26618  1.0000
  C   C741      1.0  0.86433  0.42809  0.30598  1.0000
  C   C742      1.0  0.83855  0.44323  0.27896  1.0000
  H   H1165     1.0  0.84487  0.40308  0.27501  1.0000
  H   H1166     1.0  0.87130  0.40431  0.26559  1.0000
  H   H1167     1.0  0.85218  0.41555  0.24520  1.0000
  H   H1168     1.0  0.87534  0.46006  0.27591  1.0000
  H   H1169     1.0  0.88931  0.43779  0.26646  1.0000
  H   H1170     1.0  0.87018  0.44859  0.24577  1.0000
  H   H1171     1.0  0.85366  0.41738  0.31590  1.0000
  H   H1172     1.0  0.86415  0.44221  0.31725  1.0000
  H   H1173     1.0  0.87988  0.42128  0.30704  1.0000
  H   H1174     1.0  0.83928  0.45790  0.28922  1.0000
  H   H1175     1.0  0.82643  0.43403  0.28872  1.0000
  H   H1176     1.0  0.83354  0.44671  0.25903  1.0000
  N   N76       1.0  0.91387  0.33310  0.20748  1.0000
  C   C743      1.0  0.89537  0.32242  0.21683  1.0000
  C   C744      1.0  0.93212  0.32198  0.21666  1.0000
  C   C745      1.0  0.91382  0.35402  0.21730  1.0000
  C   C746      1.0  0.91423  0.33395  0.17905  1.0000
  H   H1177     1.0  0.88123  0.32994  0.20965  1.0000
  H   H1178     1.0  0.89432  0.32182  0.23822  1.0000
  H   H1179     1.0  0.89524  0.30647  0.21013  1.0000
  S   S299      1.0  0.85721  0.48600  0.32626  1.0000
  H   H1180     1.0  0.93243  0.32112  0.23804  1.0000
  H   H1181     1.0  0.93267  0.30615  0.20943  1.0000
  H   H1182     1.0  0.92775  0.36234  0.21064  1.0000
  H   H1183     1.0  0.91352  0.35403  0.23871  1.0000
  H   H1184     1.0  0.90040  0.36290  0.21040  1.0000
  H   H1185     1.0  0.92687  0.34347  0.17131  1.0000
  H   H1186     1.0  0.89984  0.34045  0.17127  1.0000
  H   H1187     1.0  0.91652  0.31859  0.17094  1.0000
  H   H1188     1.0  0.73543  0.31023  0.31765  1.0000
  H   H1189     1.0  0.95320  0.48995  0.17542  1.0000
  H   H1190     1.0  0.94636  0.32956  0.20983  1.0000
  H   H1191     1.0  0.97624  0.42176  0.22406  1.0000
  C   C747      1.0  0.97134  0.38525  0.17841  1.0000
  C   C748      1.0  0.91520  0.46301  0.33085  1.0000
  Fe  Fe144     1.0  0.79030  0.46476  0.37138  1.0000
  S   S300      1.0  0.81867  0.47846  0.38673  1.0000
  H   H1192     1.0  0.85866  0.48520  0.41193  1.0000
  C   C749      1.0  0.73126  0.30570  0.29792  1.0000
  H   H1193     1.0  0.74727  0.34290  0.29959  1.0000
  C   C750      1.0  0.70774  0.33386  0.29297  1.0000
  H   H1194     1.0  0.71086  0.33911  0.31274  1.0000
  C   C751      1.0  0.97591  0.41514  0.20520  1.0000
  Fe  Fe145     1.0  0.79525  0.24725  0.25716  1.0000
  C   C752      1.0  0.74302  0.33777  0.28014  1.0000
  C   C753      1.0  0.90864  0.47548  0.39845  1.0000
  H   H1195     1.0  0.70318  0.34741  0.28116  1.0000
  H   H1196     1.0  0.98193  0.42765  0.14182  1.0000
  H   H1197     1.0  0.91919  0.29668  0.99464  1.0000
  C   C754      1.0  0.97335  0.31891  0.99682  1.0000
  H   H1198     1.0  0.90408  0.47031  0.44975  1.0000
  C   C755      1.0  0.91552  0.48973  0.29823  1.0000
  H   H1199     1.0  0.87243  0.48942  0.38199  1.0000
  H   H1200     1.0  0.97487  0.39079  0.13763  1.0000
  C   C756      1.0  0.97911  0.41839  0.15893  1.0000
  S   S301      1.0  0.98417  0.45397  0.18531  1.0000
  H   H1201     1.0  0.87690  0.47405  0.45099  1.0000
  H   H1202     1.0  0.88759  0.45311  0.43388  1.0000
  C   C757      1.0  0.97958  0.42737  0.18328  1.0000
  Fe  Fe146     1.0  0.98962  0.47124  0.22236  1.0000
  S   S302      1.0  0.99097  0.32499  0.11772  1.0000
  H   H1203     1.0  0.96613  0.24887  0.21158  1.0000
  H   H1204     1.0  0.91005  0.48494  0.38046  1.0000
  H   H1205     1.0  0.65922  0.27746  0.18166  1.0000
  Fe  Fe147     1.0  0.98767  0.29329  0.13424  1.0000
  H   H1206     1.0  0.97032  0.48823  0.13224  1.0000
  H   H1207     1.0  0.98842  0.32532  0.99736  1.0000
  C   C758      1.0  0.93442  0.30273  0.99518  1.0000
  H   H1208     1.0  0.66995  0.48289  0.33079  1.0000
  H   H1209     1.0  0.94483  0.42182  0.68943  1.0000
  Fe  Fe148     1.0  0.84827  0.45513  0.63515  1.0000
  S   S303      1.0  0.83605  0.42464  0.62355  1.0000
  S   S304      1.0  0.88284  0.45800  0.63946  1.0000
  H   H1210     1.0  0.84408  0.44915  0.53603  1.0000
  S   S305      1.0  0.79133  0.44694  0.62071  1.0000
  Fe  Fe149     1.0  0.81036  0.43169  0.65117  1.0000
  S   S306      1.0  0.79431  0.40884  0.67822  1.0000
  Fe  Fe150     1.0  0.81798  0.44213  0.59370  1.0000
  S   S307      1.0  0.80554  0.43187  0.55533  1.0000
  S   S308      1.0  0.82316  0.46156  0.66420  1.0000
  H   H1211     1.0  0.98656  0.24568  0.89354  1.0000
  S   S309      1.0  0.95421  0.27875  0.87677  1.0000
  Fe  Fe151     1.0  0.96504  0.33612  0.86183  1.0000
  S   S310      1.0  0.93355  0.32427  0.87082  1.0000
  C   C759      1.0  0.89778  0.46747  0.66476  1.0000
  Fe  Fe152     1.0  0.94824  0.30548  0.90230  1.0000
  S   S311      1.0  0.93384  0.30084  0.94229  1.0000
  Fe  Fe153     1.0  0.94222  0.29878  0.84460  1.0000
  S   S312      1.0  0.92265  0.28700  0.81240  1.0000
  S   S313      1.0  0.97325  0.31152  0.83383  1.0000
  H   H1212     1.0  0.93972  0.39787  0.93124  1.0000
  H   H1213     1.0  0.75309  0.25986  0.82312  1.0000
  Fe  Fe154     1.0  0.80661  0.27502  0.77361  1.0000
  S   S314      1.0  0.81468  0.26548  0.73339  1.0000
  S   S315      1.0  0.82571  0.28229  0.80842  1.0000
  Fe  Fe155     1.0  0.76049  0.27988  0.76257  1.0000
  S   S316      1.0  0.76529  0.27093  0.72080  1.0000
  S   S317      1.0  0.73492  0.29317  0.78890  1.0000
  H   H1214     1.0  0.93869  0.43991  0.75620  1.0000
  Fe  Fe156     1.0  0.79325  0.29086  0.72082  1.0000
  S   S318      1.0  0.80611  0.31261  0.68971  1.0000
  S   S319      1.0  0.78005  0.25391  0.77720  1.0000
  S   S320      1.0  0.78707  0.30134  0.76079  1.0000
  C   C760      1.0  0.94544  0.30604  0.97201  1.0000
  H   H1215     1.0  0.96517  0.44366  0.74912  1.0000
  C   C761      1.0  0.96514  0.31376  0.97300  1.0000
  C   C762      1.0  0.77372  0.36716  0.62274  1.0000
  H   H1216     1.0  0.97768  0.40002  0.74084  1.0000
  H   H1217     1.0  0.98627  0.27595  0.92121  1.0000
  C   C763      1.0  0.80381  0.43263  0.50246  1.0000
  H   H1218     1.0  0.89492  0.48532  0.72592  1.0000
  H   H1219     1.0  0.80206  0.39639  0.62531  1.0000
  C   C764      1.0  0.98848  0.37693  0.81254  1.0000
  C   C765      1.0  0.89570  0.28530  0.81220  1.0000
  C   C766      1.0  0.88646  0.27620  0.79121  1.0000
  C   C767      1.0  0.86511  0.27474  0.79002  1.0000
  C   C768      1.0  0.85272  0.28264  0.80969  1.0000
  C   C769      1.0  0.86194  0.29165  0.83075  1.0000
  C   C770      1.0  0.88332  0.29299  0.83202  1.0000
  H   H1220     1.0  0.89593  0.27003  0.77592  1.0000
  H   H1221     1.0  0.85831  0.26730  0.77400  1.0000
  H   H1222     1.0  0.85253  0.29773  0.84614  1.0000
  H   H1223     1.0  0.89022  0.30000  0.84830  1.0000
  C   C771      1.0  0.81555  0.43723  0.52389  1.0000
  C   C772      1.0  0.91905  0.46861  0.66116  1.0000
  C   C773      1.0  0.83483  0.44560  0.51975  1.0000
  H   H1224     1.0  0.98303  0.43586  0.81483  1.0000
  S   S321      1.0  0.96741  0.37083  0.85910  1.0000
  H   H1225     1.0  0.93042  0.43818  0.71037  1.0000
  S   S322      1.0  0.83224  0.47184  0.60282  1.0000
  H   H1226     1.0  0.92173  0.40913  0.73935  1.0000
  H   H1227     1.0  0.77316  0.37480  0.64168  1.0000
  C   C774      1.0  0.75111  0.26555  0.84305  1.0000
  C   C775      1.0  0.79898  0.38233  0.68261  1.0000
  C   C776      1.0  0.81439  0.37205  0.66899  1.0000
  C   C777      1.0  0.81630  0.35071  0.67135  1.0000
  C   C778      1.0  0.80325  0.33947  0.68790  1.0000
  C   C779      1.0  0.78831  0.34981  0.70220  1.0000
  C   C780      1.0  0.78611  0.37110  0.69940  1.0000
  H   H1228     1.0  0.82475  0.38049  0.65650  1.0000
  H   H1229     1.0  0.82799  0.34286  0.66032  1.0000
  H   H1230     1.0  0.77814  0.34137  0.71498  1.0000
  H   H1231     1.0  0.77417  0.37889  0.71009  1.0000
  H   H1232     1.0  0.73765  0.27602  0.84278  1.0000
  C   C781      1.0  0.67962  0.30347  0.82467  1.0000
  C   C782      1.0  0.70055  0.30361  0.81760  1.0000
  C   C783      1.0  0.70824  0.29211  0.79687  1.0000
  C   C784      1.0  0.69457  0.28043  0.78330  1.0000
  C   C785      1.0  0.67361  0.28043  0.79023  1.0000
  H   H1233     1.0  0.77832  0.46459  0.52571  1.0000
  H   H1234     1.0  0.71087  0.31273  0.82832  1.0000
  H   H1235     1.0  0.70010  0.27145  0.76735  1.0000
  H   H1236     1.0  0.74727  0.25230  0.85581  1.0000
  N   N77       1.0  0.84987  0.32768  0.74761  1.0000
  C   C786      1.0  0.85809  0.33888  0.72481  1.0000
  C   C787      1.0  0.86394  0.32935  0.76932  1.0000
  C   C788      1.0  0.84759  0.30606  0.74129  1.0000
  C   C789      1.0  0.82976  0.33632  0.75499  1.0000
  H   H1237     1.0  0.84773  0.33777  0.70817  1.0000
  H   H1238     1.0  0.87320  0.33264  0.71867  1.0000
  H   H1239     1.0  0.85988  0.35532  0.72873  1.0000
  H   H1240     1.0  0.85787  0.32137  0.78691  1.0000
  H   H1241     1.0  0.87908  0.32231  0.76484  1.0000
  H   H1242     1.0  0.86639  0.34547  0.77433  1.0000
  H   H1243     1.0  0.83996  0.29752  0.75735  1.0000
  H   H1244     1.0  0.86256  0.29853  0.73736  1.0000
  H   H1245     1.0  0.83816  0.30428  0.72396  1.0000
  H   H1246     1.0  0.82334  0.32845  0.77249  1.0000
  H   H1247     1.0  0.81861  0.33462  0.73935  1.0000
  H   H1248     1.0  0.83069  0.35280  0.75913  1.0000
  N   N78       1.0  0.78079  0.38123  0.60193  1.0000
  C   C790      1.0  0.78070  0.37086  0.57698  1.0000
  C   C791      1.0  0.80169  0.38776  0.60718  1.0000
  C   C792      1.0  0.76718  0.39928  0.60088  1.0000
  H   H1249     1.0  0.78607  0.38118  0.56099  1.0000
  H   H1250     1.0  0.79093  0.35724  0.57716  1.0000
  H   H1251     1.0  0.76516  0.36574  0.57227  1.0000
  H   H1252     1.0  0.80779  0.39787  0.59148  1.0000
  H   H1253     1.0  0.96677  0.38265  0.97591  1.0000
  H   H1254     1.0  0.81234  0.37456  0.60917  1.0000
  H   H1255     1.0  0.77239  0.41041  0.58573  1.0000
  H   H1256     1.0  0.76687  0.40733  0.61956  1.0000
  H   H1257     1.0  0.75128  0.39504  0.59664  1.0000
  N   N79       1.0  0.76956  0.27598  0.85153  1.0000
  H   H1258     1.0  0.94685  0.35739  0.90575  1.0000
  H   H1259     1.0  0.78890  0.42609  0.50540  1.0000
  H   H1260     1.0  0.95655  0.44363  0.70278  1.0000
  H   H1261     1.0  0.98340  0.36516  0.91114  1.0000
  C   C793      1.0  0.98451  0.41949  0.81400  1.0000
  Fe  Fe157     1.0  0.80600  0.47606  0.63098  1.0000
  H   H1262     1.0  0.94768  0.34187  0.93446  1.0000
  C   C794      1.0  0.98050  0.36561  0.93234  1.0000
  H   H1263     1.0  0.67409  0.31236  0.84069  1.0000
  H   H1264     1.0  0.95848  0.35679  0.97544  1.0000
  H   H1265     1.0  0.95762  0.42294  0.76976  1.0000
  C   C795      1.0  0.92304  0.48178  0.70423  1.0000
  H   H1266     1.0  0.97395  0.31600  0.95542  1.0000
  H   H1267     1.0  0.75818  0.36148  0.61916  1.0000
  C   C796      1.0  0.97794  0.38572  0.83323  1.0000
  H   H1268     1.0  0.97195  0.39932  0.70716  1.0000
  H   H1269     1.0  0.96788  0.41402  0.84971  1.0000
  C   C797      1.0  0.76607  0.28354  0.87784  1.0000
  C   C798      1.0  0.95563  0.39262  0.92738  1.0000
  H   H1270     1.0  0.92585  0.46407  0.64301  1.0000
  H   H1271     1.0  0.78409  0.35372  0.62484  1.0000
  C   C799      1.0  0.78704  0.26159  0.85139  1.0000
  N   N80       1.0  0.95211  0.41869  0.72958  1.0000
  H   H1272     1.0  0.79017  0.25568  0.83178  1.0000
  C   C800      1.0  0.97227  0.40933  0.72411  1.0000
  H   H1273     1.0  0.75686  0.48917  0.65736  1.0000
  C   C801      1.0  0.84248  0.44877  0.49443  1.0000
  C   C802      1.0  0.95608  0.37220  0.96662  1.0000
  H   H1274     1.0  0.95812  0.39292  0.90607  1.0000
  H   H1275     1.0  0.76116  0.30447  0.83326  1.0000
  H   H1276     1.0  0.80724  0.48018  0.54757  1.0000
  Fe  Fe158     1.0  0.98452  0.29313  0.86810  1.0000
  H   H1277     1.0  0.87290  0.47283  0.69136  1.0000
  H   H1278     1.0  0.93569  0.39238  0.71832  1.0000
  H   H1279     1.0  0.77969  0.29153  0.88479  1.0000
  H   H1280     1.0  0.98200  0.27306  0.95530  1.0000
  H   H1281     1.0  0.98389  0.35016  0.94038  1.0000
  H   H1282     1.0  0.94028  0.37706  0.97188  1.0000
  C   C803      1.0  0.94569  0.43107  0.70704  1.0000
  S   S323      1.0  0.98022  0.48058  0.77559  1.0000
  S   S324      1.0  0.97889  0.31901  0.89532  1.0000
  S   S325      1.0  0.93815  0.49043  0.72987  1.0000
  C   C804      1.0  0.97839  0.26655  0.93635  1.0000
  C   C805      1.0  0.66591  0.29193  0.81092  1.0000
  H   H1283     1.0  0.98403  0.42110  0.72007  1.0000
  C   C806      1.0  0.79598  0.48795  0.56045  1.0000
  C   C807      1.0  0.77404  0.29331  0.83384  1.0000
  C   C808      1.0  0.95337  0.43185  0.75219  1.0000
  H   H1284     1.0  0.76263  0.27086  0.89171  1.0000
  C   C809      1.0  0.93709  0.40255  0.73503  1.0000
  H   H1285     1.0  0.78430  0.24828  0.86450  1.0000
  H   H1286     1.0  0.75297  0.29446  0.87853  1.0000
  C   C810      1.0  0.97595  0.40705  0.83378  1.0000
  H   H1287     1.0  0.94160  0.39292  0.75194  1.0000
  Fe  Fe159     1.0  0.78667  0.24595  0.73557  1.0000
  H   H1288     1.0  0.66106  0.32896  0.78363  1.0000
  H   H1289     1.0  0.92893  0.36170  0.93161  1.0000
  C   C811      1.0  0.88921  0.47358  0.68828  1.0000
  C   C812      1.0  0.94507  0.35764  0.92708  1.0000
  N   N81       1.0  0.98456  0.24492  0.93492  1.0000
  H   H1290     1.0  0.96610  0.40391  0.93547  1.0000
  H   H1291     1.0  0.77661  0.28812  0.81383  1.0000
  N   N82       1.0  0.95932  0.37202  0.93838  1.0000
  H   H1292     1.0  0.94787  0.47686  0.67735  1.0000
  C   C813      1.0  0.93160  0.47582  0.68066  1.0000
  H   H1293     1.0  0.80129  0.26906  0.85734  1.0000
  H   H1294     1.0  0.78804  0.30139  0.83935  1.0000
  H   H1295     1.0  0.99023  0.36057  0.81188  1.0000
  H   H1296     1.0  0.96173  0.26854  0.93367  1.0000
  C   C814      1.0  0.90178  0.48068  0.70785  1.0000
  H   H1297     1.0  0.76557  0.46189  0.55629  1.0000
  H   H1298     1.0  0.75299  0.47481  0.53002  1.0000
  C   C815      1.0  0.76789  0.47248  0.53951  1.0000
  H   H1299     1.0  0.66736  0.35434  0.79248  1.0000
  H   H1300     1.0  0.79369  0.47796  0.57775  1.0000
  H   H1301     1.0  0.66325  0.27140  0.77940  1.0000
  H   H1302     1.0  0.85763  0.45474  0.49149  1.0000
  Fe  Fe160     1.0  0.97278  0.48908  0.73459  1.0000
  H   H1303     1.0  0.65916  0.49006  0.69730  1.0000
  H   H1304     1.0  0.77224  0.50990  0.34154  1.0000
  Fe  Fe161     1.0  0.68822  0.57682  0.35439  1.0000
  S   S326      1.0  0.71909  0.56319  0.34282  1.0000
  C   C816      1.0  0.98416  0.71233  0.03612  1.0000
  S   S327      1.0  0.68520  0.60895  0.36846  1.0000
  C   C817      1.0  0.96794  0.50500  0.12991  1.0000
  S   S328      1.0  0.66430  0.64007  0.30575  1.0000
  C   C818      1.0  0.95230  0.72842  0.12778  1.0000
  C   C819      1.0  0.66551  0.49470  0.31623  1.0000
  H   H1305     1.0  0.70549  0.49674  0.32848  1.0000
  H   H1306     1.0  0.93987  0.72045  0.11931  1.0000
  H   H1307     1.0  0.95342  0.50756  0.11962  1.0000
  H   H1308     1.0  0.93583  0.50851  0.16196  1.0000
  S   S329      1.0  0.66310  0.56466  0.38018  1.0000
  H   H1309     1.0  0.99097  0.70752  0.08662  1.0000
  C   C820      1.0  0.67383  0.67496  0.27740  1.0000
  C   C821      1.0  0.96501  0.73438  0.06451  1.0000
  C   C822      1.0  0.74849  0.50238  0.36907  1.0000
  H   H1310     1.0  0.67292  0.52248  0.27884  1.0000
  C   C823      1.0  0.96447  0.53716  0.15155  1.0000
  H   H1311     1.0  0.68015  0.67004  0.34192  1.0000
  H   H1312     1.0  0.88662  0.50490  0.29212  1.0000
  C   C824      1.0  0.73052  0.54019  0.35431  1.0000
  C   C825      1.0  0.72122  0.52795  0.37337  1.0000
  C   C826      1.0  0.73003  0.50905  0.38042  1.0000
  H   H1313     1.0  0.68082  0.51065  0.35924  1.0000
  C   C827      1.0  0.75806  0.51486  0.35048  1.0000
  C   C828      1.0  0.74903  0.53359  0.34304  1.0000
  H   H1314     1.0  0.70728  0.53303  0.38272  1.0000
  S   S330      1.0  0.96502  0.49255  0.23685  1.0000
  H   H1315     1.0  0.65918  0.52521  0.34845  1.0000
  H   H1316     1.0  0.75641  0.54295  0.32833  1.0000
  C   C829      1.0  0.67339  0.66565  0.30210  1.0000
  C   C830      1.0  0.68058  0.67672  0.32273  1.0000
  C   C831      1.0  0.68823  0.69658  0.31858  1.0000
  C   C832      1.0  0.68869  0.70588  0.29386  1.0000
  C   C833      1.0  0.68139  0.69487  0.27327  1.0000
  H   H1317     1.0  0.68155  0.70168  0.25413  1.0000
  N   N83       1.0  0.67809  0.51306  0.31810  1.0000
  H   H1318     1.0  0.69376  0.70486  0.33474  1.0000
  H   H1319     1.0  0.70958  0.52144  0.31438  1.0000
  S   S331      1.0  0.69858  0.73111  0.29010  1.0000
  C   C834      1.0  0.97014  0.71759  0.13448  1.0000
  H   H1320     1.0  0.97127  0.70141  0.13131  1.0000
  N   N84       1.0  0.72937  0.63251  0.30755  1.0000
  C   C835      1.0  0.72641  0.61031  0.31017  1.0000
  C   C836      1.0  0.71990  0.64017  0.28360  1.0000
  C   C837      1.0  0.75137  0.63695  0.30663  1.0000
  C   C838      1.0  0.71977  0.64261  0.32991  1.0000
  H   H1321     1.0  0.73335  0.60399  0.32807  1.0000
  H   H1322     1.0  0.73335  0.60205  0.29366  1.0000
  H   H1323     1.0  0.70993  0.60646  0.31115  1.0000
  H   H1324     1.0  0.72066  0.65707  0.28178  1.0000
  H   H1325     1.0  0.72741  0.63364  0.26622  1.0000
  H   H1326     1.0  0.70352  0.63612  0.28306  1.0000
  H   H1327     1.0  0.75895  0.63146  0.32450  1.0000
  H   H1328     1.0  0.75407  0.65360  0.30453  1.0000
  H   H1329     1.0  0.75916  0.62942  0.29009  1.0000
  H   H1330     1.0  0.72152  0.65942  0.32859  1.0000
  H   H1331     1.0  0.72643  0.63713  0.34836  1.0000
  H   H1332     1.0  0.70317  0.63952  0.33114  1.0000
  H   H1333     1.0  0.92366  0.49895  0.28405  1.0000
  C   C839      1.0  0.67157  0.52843  0.29869  1.0000
  C   C840      1.0  0.66315  0.57857  0.46841  1.0000
  H   H1334     1.0  0.66772  0.56945  0.45217  1.0000
  C   C841      1.0  0.95079  0.50654  0.17137  1.0000
  C   C842      1.0  0.98620  0.72760  0.14586  1.0000
  H   H1335     1.0  0.98053  0.51089  0.11729  1.0000
  C   C843      1.0  0.67544  0.52151  0.34405  1.0000
  H   H1336     1.0  0.95706  0.72120  0.07378  1.0000
  H   H1337     1.0  0.68419  0.53576  0.34574  1.0000
  Fe  Fe162     1.0  0.66295  0.61421  0.33659  1.0000
  H   H1338     1.0  0.99013  0.49452  0.17065  1.0000
  S   S332      1.0  0.66761  0.58260  0.32102  1.0000
  N   N85       1.0  0.96753  0.51497  0.15514  1.0000
  H   H1339     1.0  0.94971  0.51420  0.19027  1.0000
  H   H1340     1.0  0.68103  0.54234  0.29935  1.0000
  H   H1341     1.0  0.72261  0.49957  0.39498  1.0000
  H   H1342     1.0  0.94984  0.54078  0.14197  1.0000
  N   N86       1.0  0.98565  0.72859  0.05519  1.0000
  C   C844      1.0  0.69980  0.50775  0.31359  1.0000
  H   H1343     1.0  0.96425  0.54504  0.17037  1.0000
  H   H1344     1.0  0.66827  0.66670  0.26123  1.0000
  S   S333      1.0  0.98569  0.54947  0.22891  1.0000
  H   H1345     1.0  0.97697  0.54408  0.13962  1.0000
  H   H1346     1.0  0.98042  0.59204  0.21769  1.0000
  H   H1347     1.0  0.88081  0.50919  0.43372  1.0000
  C   C845      1.0  0.89452  0.49311  0.30294  1.0000
  H   H1348     1.0  0.89458  0.51373  0.40397  1.0000
  H   H1349     1.0  0.98699  0.51797  0.18732  1.0000
  H   H1350     1.0  0.97457  0.71716  0.01963  1.0000
  C   C846      1.0  0.98707  0.51109  0.16796  1.0000
  Fe  Fe163     1.0  0.98991  0.51576  0.23945  1.0000
  C   C847      1.0  0.99027  0.58595  0.20272  1.0000
  H   H1351     1.0  0.90801  0.50578  0.43235  1.0000
  C   C848      1.0  0.89378  0.50369  0.42149  1.0000
  H   H1352     1.0  0.97746  0.69828  0.04491  1.0000
  H   H1353     1.0  0.70240  0.50089  0.29442  1.0000
  Fe  Fe164     1.0  0.65839  0.59709  0.39207  1.0000
  H   H1354     1.0  0.95533  0.74018  0.04856  1.0000
  H   H1355     1.0  0.76837  0.51669  0.57229  1.0000
  S   S334      1.0  0.68950  0.59091  0.60934  1.0000
  Fe  Fe165     1.0  0.68227  0.56553  0.63793  1.0000
  S   S335      1.0  0.70061  0.53942  0.65648  1.0000
  H   H1356     1.0  0.92477  0.68125  0.86334  1.0000
  S   S336      1.0  0.70458  0.71057  0.72176  1.0000
  S   S337      1.0  0.78952  0.50659  0.62442  1.0000
  C   C849      1.0  0.75300  0.71869  0.76219  1.0000
  H   H1357     1.0  0.96516  0.68288  0.81267  1.0000
  H   H1358     1.0  0.94782  0.52610  0.83188  1.0000
  H   H1359     1.0  0.76563  0.50864  0.51443  1.0000
  H   H1360     1.0  0.67145  0.55553  0.49672  1.0000
  H   H1361     1.0  0.96758  0.64314  0.86430  1.0000
  C   C850      1.0  0.94988  0.53401  0.76701  1.0000
  H   H1362     1.0  0.66679  0.68878  0.64506  1.0000
  H   H1363     1.0  0.67799  0.50954  0.69353  1.0000
  C   C851      1.0  0.93905  0.65385  0.82969  1.0000
  C   C852      1.0  0.96936  0.67402  0.83029  1.0000
  H   H1364     1.0  0.66551  0.50537  0.72423  1.0000
  N   N87       1.0  0.95120  0.66751  0.84536  1.0000
  H   H1365     1.0  0.97881  0.66072  0.82414  1.0000
  H   H1366     1.0  0.73673  0.71644  0.75753  1.0000
  H   H1367     1.0  0.92524  0.64852  0.84046  1.0000
  C   C853      1.0  0.76358  0.69223  0.73326  1.0000
  H   H1368     1.0  0.80291  0.50222  0.56717  1.0000
  H   H1369     1.0  0.96540  0.51543  0.80887  1.0000
  C   C854      1.0  0.72498  0.53007  0.64634  1.0000
  C   C855      1.0  0.73206  0.51122  0.65624  1.0000
  C   C856      1.0  0.75160  0.50360  0.64946  1.0000
  C   C857      1.0  0.76446  0.51496  0.63307  1.0000
  C   C858      1.0  0.75734  0.53375  0.62312  1.0000
  C   C859      1.0  0.73767  0.54118  0.62948  1.0000
  Fe  Fe166     1.0  0.66114  0.58114  0.58908  1.0000
  H   H1370     1.0  0.91898  0.50930  0.81015  1.0000
  H   H1371     1.0  0.76719  0.54278  0.61060  1.0000
  H   H1372     1.0  0.73254  0.55575  0.62184  1.0000
  C   C860      1.0  0.68033  0.66298  0.66484  1.0000
  C   C861      1.0  0.69205  0.65706  0.68602  1.0000
  C   C862      1.0  0.69922  0.67179  0.70308  1.0000
  C   C863      1.0  0.69482  0.69271  0.69943  1.0000
  C   C864      1.0  0.68300  0.69861  0.67834  1.0000
  S   S338      1.0  0.67014  0.64509  0.64289  1.0000
  H   H1373     1.0  0.69569  0.64114  0.68921  1.0000
  H   H1374     1.0  0.70828  0.66690  0.71927  1.0000
  C   C865      1.0  0.95495  0.52857  0.81250  1.0000
  H   H1375     1.0  0.94752  0.69584  0.86494  1.0000
  C   C866      1.0  0.67584  0.68388  0.66128  1.0000
  H   H1376     1.0  0.67943  0.71454  0.67508  1.0000
  H   H1377     1.0  0.93398  0.66166  0.81167  1.0000
  H   H1378     1.0  0.94813  0.64015  0.82404  1.0000
  H   H1379     1.0  0.95965  0.54772  0.76673  1.0000
  C   C867      1.0  0.97761  0.72827  0.84008  1.0000
  H   H1380     1.0  0.66777  0.54564  0.69394  1.0000
  H   H1381     1.0  0.93698  0.49856  0.78760  1.0000
  H   H1382     1.0  0.91448  0.55063  0.78271  1.0000
  H   H1383     1.0  0.94449  0.65104  0.88069  1.0000
  H   H1384     1.0  0.96666  0.66663  0.88142  1.0000
  Fe  Fe167     1.0  0.66836  0.61072  0.63370  1.0000
  C   C868      1.0  0.66528  0.57071  0.49376  1.0000
  H   H1385     1.0  0.97915  0.68378  0.84188  1.0000
  H   H1386     1.0  0.76702  0.68169  0.74967  1.0000
  C   C869      1.0  0.93887  0.68558  0.85246  1.0000
  H   H1387     1.0  0.77140  0.72354  0.70075  1.0000
  H   H1388     1.0  0.96471  0.54226  0.81337  1.0000
  N   N88       1.0  0.93955  0.53082  0.79224  1.0000
  C   C870      1.0  0.92622  0.54851  0.79773  1.0000
  H   H1389     1.0  0.93881  0.53568  0.75112  1.0000
  H   H1390     1.0  0.75471  0.73482  0.76777  1.0000
  H   H1391     1.0  0.79224  0.70713  0.76408  1.0000
  C   C871      1.0  0.65970  0.58231  0.51535  1.0000
  H   H1392     1.0  0.91586  0.51312  0.77596  1.0000
  H   H1393     1.0  0.75636  0.70902  0.77942  1.0000
  H   H1394     1.0  0.78662  0.52008  0.53015  1.0000
  C   C872      1.0  0.97620  0.72655  0.86694  1.0000
  H   H1395     1.0  0.74722  0.50543  0.55670  1.0000
  H   H1396     1.0  0.96148  0.73828  0.90110  1.0000
  C   C873      1.0  0.92724  0.51217  0.79158  1.0000
  H   H1397     1.0  0.93517  0.56277  0.79824  1.0000
  C   C874      1.0  0.76159  0.72699  0.71782  1.0000
  C   C875      1.0  0.78793  0.71687  0.74725  1.0000
  C   C876      1.0  0.95773  0.65656  0.86897  1.0000
  H   H1398     1.0  0.72244  0.50252  0.66939  1.0000
  H   H1399     1.0  0.91818  0.54663  0.81667  1.0000
  H   H1400     1.0  0.95977  0.52079  0.76231  1.0000
  H   H1401     1.0  0.79864  0.71340  0.73103  1.0000
  N   N89       1.0  0.76655  0.71367  0.74013  1.0000
  C   C877      1.0  0.78005  0.50529  0.52467  1.0000
  H   H1402     1.0  0.77351  0.68787  0.71663  1.0000
  H   H1403     1.0  0.93435  0.69475  0.83519  1.0000
  C   C878      1.0  0.66311  0.50569  0.70309  1.0000
  H   H1404     1.0  0.74549  0.72515  0.71209  1.0000
  H   H1405     1.0  0.79087  0.49808  0.51072  1.0000
  S   S339      1.0  0.66220  0.57110  0.54680  1.0000
  H   H1406     1.0  0.74750  0.68958  0.72774  1.0000
  H   H1407     1.0  0.98799  0.71854  0.82949  1.0000
  C   C879      1.0  0.76216  0.50206  0.56563  1.0000
  H   H1408     1.0  0.79041  0.73301  0.75257  1.0000
  S   S340      1.0  0.66346  0.58601  0.66366  1.0000
  H   H1409     1.0  0.65919  0.52353  0.65725  1.0000
  N   N90       1.0  0.77649  0.49196  0.54753  1.0000
  H   H1410     1.0  0.75934  0.49247  0.58325  1.0000
  S   S341      1.0  0.99033  0.70812  0.88478  1.0000
  C   C880      1.0  0.96270  0.73947  0.88032  1.0000
  H   H1411     1.0  0.99147  0.59615  0.78047  1.0000
  Fe  Fe168     1.0  0.91275  0.83853  0.14470  1.0000
  S   S342      1.0  0.89951  0.80849  0.15908  1.0000
  S   S343      1.0  0.92051  0.86098  0.17682  1.0000
  Fe  Fe169     1.0  0.90173  0.82927  0.08817  1.0000
  S   S344      1.0  0.88768  0.79954  0.09967  1.0000
  S   S345      1.0  0.89811  0.84378  0.04789  1.0000
  Fe  Fe170     1.0  0.87295  0.81537  0.13339  1.0000
  S   S346      1.0  0.83799  0.81619  0.13986  1.0000
  Fe  Fe171     1.0  0.91536  0.79484  0.12441  1.0000
  S   S347      1.0  0.92799  0.76228  0.12121  1.0000
  S   S348      1.0  0.88554  0.84567  0.12045  1.0000
  S   S349      1.0  0.93027  0.82426  0.11137  1.0000
  Fe  Fe172     1.0  0.68596  0.93191  0.35242  1.0000
  S   S350      1.0  0.67942  0.95612  0.32278  1.0000
  S   S351      1.0  0.70717  0.90606  0.33965  1.0000
  H   H1412     1.0  0.86001  0.83169  0.07854  1.0000
  Fe  Fe173     1.0  0.68926  0.97844  0.35188  1.0000
  S   S352      1.0  0.69804  0.95430  0.38078  1.0000
  Fe  Fe174     1.0  0.73483  0.78322  0.22817  1.0000
  S   S353      1.0  0.72344  0.78131  0.26962  1.0000
  S   S354      1.0  0.76988  0.78498  0.22234  1.0000
  Fe  Fe175     1.0  0.69120  0.77997  0.20865  1.0000
  S   S355      1.0  0.67742  0.77745  0.24826  1.0000
  Fe  Fe176     1.0  0.69837  0.80289  0.25794  1.0000
  S   S356      1.0  0.68030  0.82683  0.28045  1.0000
  Fe  Fe177     1.0  0.70306  0.75576  0.25788  1.0000
  S   S357      1.0  0.71087  0.80671  0.21756  1.0000
  S   S358      1.0  0.71585  0.75633  0.21697  1.0000
  H   H1413     1.0  0.83517  0.84301  0.08053  1.0000
  H   H1414     1.0  0.72372  0.98133  0.41967  1.0000
  H   H1415     1.0  0.85898  0.82083  0.02159  1.0000
  H   H1416     1.0  0.72633  0.96692  0.33770  1.0000
  H   H1417     1.0  0.82001  0.80909  0.08706  1.0000
  C   C881      1.0  0.69948  0.88443  0.32247  1.0000
  C   C882      1.0  0.67897  0.88045  0.31823  1.0000
  C   C883      1.0  0.67346  0.86282  0.30518  1.0000
  C   C884      1.0  0.68835  0.84910  0.29593  1.0000
  C   C885      1.0  0.70888  0.85319  0.29986  1.0000
  C   C886      1.0  0.71439  0.87072  0.31319  1.0000
  C   C887      1.0  0.75362  0.97846  0.30098  1.0000
  H   H1418     1.0  0.67672  0.80005  0.36717  1.0000
  H   H1419     1.0  0.72051  0.84276  0.29293  1.0000
  C   C888      1.0  0.93586  0.88325  0.17940  1.0000
  C   C889      1.0  0.94774  0.89106  0.15889  1.0000
  C   C890      1.0  0.95960  0.90865  0.16203  1.0000
  C   C891      1.0  0.95980  0.91883  0.18564  1.0000
  C   C892      1.0  0.94791  0.91104  0.20616  1.0000
  C   C893      1.0  0.93612  0.89340  0.20305  1.0000
  H   H1420     1.0  0.94781  0.88354  0.14057  1.0000
  H   H1421     1.0  0.89329  0.86212  0.99757  1.0000
  H   H1422     1.0  0.94772  0.91863  0.22443  1.0000
  H   H1423     1.0  0.92705  0.88761  0.21912  1.0000
  C   C894      1.0  0.89990  0.83334  0.01642  1.0000
  H   H1424     1.0  0.73288  0.94044  0.33785  1.0000
  C   C895      1.0  0.90387  0.81267  0.01245  1.0000
  H   H1425     1.0  0.96870  0.91439  0.14596  1.0000
  H   H1426     1.0  0.90664  0.80260  0.02875  1.0000
  C   C896      1.0  0.66711  0.95399  0.46626  1.0000
  C   C897      1.0  0.96644  0.75949  0.14328  1.0000
  H   H1427     1.0  0.84476  0.79767  0.08546  1.0000
  H   H1428     1.0  0.70297  0.76873  0.31777  1.0000
  H   H1429     1.0  0.96518  0.77564  0.14660  1.0000
  H   H1430     1.0  0.66831  0.81087  0.33716  1.0000
  H   H1431     1.0  0.67999  0.74689  0.34356  1.0000
  C   C898      1.0  0.81936  0.80679  0.16280  1.0000
  C   C899      1.0  0.82459  0.79598  0.18527  1.0000
  C   C900      1.0  0.80928  0.78950  0.20309  1.0000
  C   C901      1.0  0.78845  0.79349  0.19876  1.0000
  C   C902      1.0  0.78324  0.80427  0.17625  1.0000
  C   C903      1.0  0.79856  0.81092  0.15854  1.0000
  H   H1432     1.0  0.84040  0.79244  0.18892  1.0000
  H   H1433     1.0  0.81358  0.78112  0.22032  1.0000
  H   H1434     1.0  0.76738  0.80754  0.17253  1.0000
  H   H1435     1.0  0.79419  0.81929  0.14135  1.0000
  S   S359      1.0  0.98758  0.95644  0.26221  1.0000
  C   C904      1.0  0.98417  0.74856  0.15041  1.0000
  C   C905      1.0  0.66195  0.96367  0.48942  1.0000
  H   H1436     1.0  0.96553  0.74658  0.07903  1.0000
  C   C906      1.0  0.89638  0.84612  0.99482  1.0000
  H   H1437     1.0  0.82487  0.83664  0.02387  1.0000
  N   N91       1.0  0.85743  0.85432  0.20163  1.0000
  C   C907      1.0  0.86824  0.83450  0.20170  1.0000
  C   C908      1.0  0.83559  0.85109  0.20764  1.0000
  C   C909      1.0  0.85966  0.86419  0.17593  1.0000
  C   C910      1.0  0.86635  0.86743  0.22111  1.0000
  H   H1438     1.0  0.86649  0.82632  0.22055  1.0000
  H   H1439     1.0  0.88485  0.83647  0.19784  1.0000
  H   H1440     1.0  0.86229  0.82442  0.18671  1.0000
  H   H1441     1.0  0.82692  0.86571  0.20793  1.0000
  H   H1442     1.0  0.82852  0.84138  0.19302  1.0000
  H   H1443     1.0  0.83331  0.84329  0.22668  1.0000
  H   H1444     1.0  0.85182  0.87926  0.17514  1.0000
  H   H1445     1.0  0.85308  0.85470  0.16075  1.0000
  H   H1446     1.0  0.87600  0.86668  0.17071  1.0000
  H   H1447     1.0  0.85863  0.88257  0.22160  1.0000
  H   H1448     1.0  0.88284  0.87010  0.21682  1.0000
  H   H1449     1.0  0.86513  0.86038  0.24072  1.0000
  H   H1450     1.0  0.75914  0.98042  0.28071  1.0000
  H   H1451     1.0  0.86790  0.80507  0.04754  1.0000
  C   C911      1.0  0.76122  0.94237  0.30045  1.0000
  H   H1452     1.0  0.80825  0.83160  0.05114  1.0000
  H   H1453     1.0  0.68365  0.92899  0.44943  1.0000
  H   H1454     1.0  0.85172  0.84806  0.05296  1.0000
  C   C912      1.0  0.66556  0.84923  0.21488  1.0000
  N   N92       1.0  0.67527  0.77887  0.33631  1.0000
  H   H1455     1.0  0.73029  0.87361  0.31644  1.0000
  H   H1456     1.0  0.67828  0.83945  0.20757  1.0000
  H   H1457     1.0  0.98054  0.98198  0.16830  1.0000
  H   H1458     1.0  0.76652  0.98167  0.31382  1.0000
  C   C913      1.0  0.95038  0.74944  0.13189  1.0000
  C   C914      1.0  0.72772  0.95477  0.28932  1.0000
  H   H1459     1.0  0.74180  0.99045  0.30445  1.0000
  S   S360      1.0  0.97554  0.94080  0.18839  1.0000
  C   C915      1.0  0.67959  0.93662  0.46708  1.0000
  H   H1460     1.0  0.75531  0.92672  0.30409  1.0000
  H   H1461     1.0  0.73221  0.95530  0.26857  1.0000
  H   H1462     1.0  0.66734  0.89084  0.32525  1.0000
  H   H1463     1.0  0.75150  0.95877  0.34642  1.0000
  H   H1464     1.0  0.70656  0.78502  0.34449  1.0000
  H   H1465     1.0  0.72291  0.98237  0.45421  1.0000
  H   H1466     1.0  0.66825  0.76211  0.30261  1.0000
  H   H1467     1.0  0.68381  0.76263  0.37087  1.0000
  S   S361      1.0  0.67245  0.78449  0.17234  1.0000
  H   H1468     1.0  0.76660  0.94337  0.28003  1.0000
  C   C916      1.0  0.69660  0.78220  0.32792  1.0000
  H   H1469     1.0  0.77468  0.94424  0.31284  1.0000
  H   H1470     1.0  0.82539  0.78928  0.06443  1.0000
  C   C917      1.0  0.73877  0.95592  0.33321  1.0000
  N   N93       1.0  0.83821  0.81837  0.05401  1.0000
  C   C918      1.0  0.82049  0.82492  0.03870  1.0000
  C   C919      1.0  0.85404  0.80962  0.03676  1.0000
  C   C920      1.0  0.83178  0.80291  0.07350  1.0000
  C   C921      1.0  0.84653  0.83611  0.06705  1.0000
  C   C922      1.0  0.67431  0.76076  0.35361  1.0000
  H   H1471     1.0  0.81390  0.81191  0.02847  1.0000
  Fe  Fe178     1.0  0.66562  0.95667  0.39524  1.0000
  N   N94       1.0  0.74536  0.95789  0.30595  1.0000
  H   H1472     1.0  0.72043  0.93979  0.29356  1.0000
  Fe  Fe179     1.0  0.98414  0.96324  0.21997  1.0000
  H   H1473     1.0  0.84855  0.79594  0.02690  1.0000
  C   C923      1.0  0.66757  0.79701  0.34992  1.0000
  H   H1474     1.0  0.69788  0.79559  0.31451  1.0000
  H   H1475     1.0  0.71584  0.96679  0.29229  1.0000
  Fe  Fe180     1.0  0.97636  0.98895  0.26829  1.0000
  C   C924      1.0  0.71376  0.98484  0.43660  1.0000
  H   H1476     1.0  0.66814  0.85150  0.23575  1.0000
  C   C925      1.0  0.66265  0.77549  0.31361  1.0000
  H   H1477     1.0  0.66285  0.78893  0.30025  1.0000
  H   H1478     1.0  0.98702  0.91328  0.23977  1.0000
  H   H1479     1.0  0.66676  0.86432  0.20493  1.0000
  H   H1480     1.0  0.98958  0.88637  0.24585  1.0000
  H   H1481     1.0  0.95493  0.98665  0.13430  1.0000
  H   H1482     1.0  0.73685  0.98799  0.37473  1.0000
  H   H1483     1.0  0.70131  0.97348  0.43731  1.0000
  H   H1484     1.0  0.98673  0.75251  0.02637  1.0000
  H   H1485     1.0  0.65843  0.75772  0.36035  1.0000
  H   H1486     1.0  0.99118  0.89652  0.21349  1.0000
  Fe  Fe181     1.0  0.89910  0.81551  0.89116  1.0000
  S   S362      1.0  0.88830  0.78923  0.86769  1.0000
  S   S363      1.0  0.90131  0.80686  0.93435  1.0000
  Fe  Fe182     1.0  0.90627  0.84261  0.84192  1.0000
  S   S364      1.0  0.89653  0.81746  0.81616  1.0000
  S   S365      1.0  0.90973  0.87369  0.82052  1.0000
  Fe  Fe183     1.0  0.87035  0.81213  0.84402  1.0000
  S   S366      1.0  0.83598  0.81243  0.83398  1.0000
  Fe  Fe184     1.0  0.91517  0.79651  0.84169  1.0000
  S   S367      1.0  0.93630  0.77300  0.82275  1.0000
  S   S368      1.0  0.87936  0.83802  0.86938  1.0000
  S   S369      1.0  0.92679  0.82191  0.86559  1.0000
  Fe  Fe185     1.0  0.68995  0.97466  0.62143  1.0000
  S   S370      1.0  0.70642  0.94562  0.61157  1.0000
  H   H1487     1.0  0.75158  0.86792  0.57974  1.0000
  C   C926      1.0  0.95056  0.75389  0.86709  1.0000
  Fe  Fe186     1.0  0.68486  0.93040  0.64017  1.0000
  S   S371      1.0  0.69754  0.90821  0.67039  1.0000
  S   S372      1.0  0.66996  0.95999  0.65219  1.0000
  Fe  Fe187     1.0  0.73478  0.77640  0.75030  1.0000
  S   S373      1.0  0.72635  0.76689  0.71021  1.0000
  S   S374      1.0  0.76947  0.77530  0.75834  1.0000
  Fe  Fe188     1.0  0.68905  0.77894  0.76642  1.0000
  S   S375      1.0  0.67828  0.76861  0.72814  1.0000
  S   S376      1.0  0.98585  0.96516  0.72566  1.0000
  Fe  Fe189     1.0  0.70153  0.79085  0.71221  1.0000
  S   S377      1.0  0.69079  0.81164  0.67922  1.0000
  S   S378      1.0  0.71299  0.75414  0.76925  1.0000
  S   S379      1.0  0.71148  0.80199  0.75043  1.0000
  S   S380      1.0  0.66146  0.92373  0.61069  1.0000
  S   S381      1.0  0.97872  0.94065  0.79586  1.0000
  H   H1488     1.0  0.69739  0.87541  0.60028  1.0000
  C   C927      1.0  0.69393  0.88156  0.67380  1.0000
  C   C928      1.0  0.68204  0.87077  0.65685  1.0000
  C   C929      1.0  0.68114  0.84938  0.65891  1.0000
  C   C930      1.0  0.69182  0.83858  0.67812  1.0000
  C   C931      1.0  0.70323  0.84942  0.69552  1.0000
  C   C932      1.0  0.70432  0.87078  0.69327  1.0000
  H   H1489     1.0  0.67371  0.87885  0.64202  1.0000
  H   H1490     1.0  0.71159  0.84132  0.71034  1.0000
  H   H1491     1.0  0.71360  0.87897  0.70646  1.0000
  H   H1492     1.0  0.73680  0.91134  0.62093  1.0000
  H   H1493     1.0  0.72633  0.85787  0.57807  1.0000
  C   C933      1.0  0.92951  0.89165  0.81331  1.0000
  C   C934      1.0  0.92554  0.90802  0.79607  1.0000
  C   C935      1.0  0.94037  0.92296  0.79022  1.0000
  C   C936      1.0  0.95942  0.92194  0.80181  1.0000
  C   C937      1.0  0.96346  0.90550  0.81891  1.0000
  C   C938      1.0  0.94871  0.89044  0.82454  1.0000
  H   H1494     1.0  0.91081  0.90923  0.78723  1.0000
  H   H1495     1.0  0.93691  0.93545  0.77708  1.0000
  H   H1496     1.0  0.97803  0.90453  0.82821  1.0000
  H   H1497     1.0  0.95206  0.87809  0.83794  1.0000
  C   C939      1.0  0.95173  0.75548  0.84025  1.0000
  H   H1498     1.0  0.94017  0.76369  0.87767  1.0000
  H   H1499     1.0  0.73254  0.88126  0.56134  1.0000
  N   N95       1.0  0.72889  0.88371  0.60235  1.0000
  C   C940      1.0  0.73234  0.87112  0.62582  1.0000
  S   S382      1.0  0.68916  0.92741  0.54377  1.0000
  Fe  Fe190     1.0  0.98324  0.96860  0.76868  1.0000
  C   C941      1.0  0.81783  0.80179  0.81267  1.0000
  C   C942      1.0  0.79708  0.80732  0.81540  1.0000
  C   C943      1.0  0.78212  0.79950  0.79910  1.0000
  C   C944      1.0  0.78764  0.78597  0.77962  1.0000
  C   C945      1.0  0.80841  0.78051  0.77682  1.0000
  C   C946      1.0  0.82336  0.78832  0.79313  1.0000
  H   H1500     1.0  0.79247  0.81764  0.83042  1.0000
  H   H1501     1.0  0.76631  0.80390  0.80171  1.0000
  H   H1502     1.0  0.81303  0.77015  0.76185  1.0000
  H   H1503     1.0  0.83917  0.78387  0.79060  1.0000
  C   C947      1.0  0.89688  0.83843  0.96959  1.0000
  C   C948      1.0  0.90081  0.81775  0.96560  1.0000
  H   H1504     1.0  0.99056  0.89576  0.73409  1.0000
  H   H1505     1.0  0.89422  0.84849  0.95323  1.0000
  C   C949      1.0  0.74097  0.90249  0.60348  1.0000
  C   C950      1.0  0.66910  0.95607  0.51317  1.0000
  Fe  Fe191     1.0  0.70386  0.74533  0.72912  1.0000
  H   H1506     1.0  0.87032  0.89418  0.81473  1.0000
  H   H1507     1.0  0.85018  0.89982  0.83756  1.0000
  H   H1508     1.0  0.70389  0.89856  0.58317  1.0000
  C   C951      1.0  0.70707  0.88916  0.60074  1.0000
  H   H1509     1.0  0.76376  0.74329  0.72226  1.0000
  S   S383      1.0  0.66813  0.79100  0.79849  1.0000
  H   H1510     1.0  0.72262  0.85733  0.62645  1.0000
  H   H1511     1.0  0.86759  0.87905  0.84348  1.0000
  H   H1512     1.0  0.73833  0.91264  0.58638  1.0000
  H   H1513     1.0  0.83188  0.99078  0.69502  1.0000
  H   H1514     1.0  0.75757  0.89904  0.60426  1.0000
  H   H1515     1.0  0.73580  0.98774  0.65165  1.0000
  C   C952      1.0  0.68116  0.93841  0.51409  1.0000
  C   C953      1.0  0.73513  0.87217  0.57936  1.0000
  H   H1516     1.0  0.70194  0.89813  0.61759  1.0000
  H   H1517     1.0  0.84528  0.89138  0.77994  1.0000
  Fe  Fe192     1.0  0.68176  0.94106  0.58281  1.0000
  H   H1518     1.0  0.72869  0.87979  0.64353  1.0000
  H   H1519     1.0  0.74849  0.86598  0.62713  1.0000
  N   N96       1.0  0.84528  0.87336  0.81485  1.0000
  C   C954      1.0  0.85755  0.85684  0.80322  1.0000
  C   C955      1.0  0.83039  0.86456  0.83352  1.0000
  C   C956      1.0  0.83440  0.88469  0.79438  1.0000
  C   C957      1.0  0.85884  0.88727  0.82824  1.0000
  H   H1520     1.0  0.86940  0.86283  0.78953  1.0000
  H   H1521     1.0  0.84791  0.84594  0.79295  1.0000
  H   H1522     1.0  0.86565  0.84789  0.81821  1.0000
  H   H1523     1.0  0.82082  0.87651  0.84276  1.0000
  H   H1524     1.0  0.82006  0.85376  0.82412  1.0000
  H   H1525     1.0  0.83815  0.85574  0.84911  1.0000
  H   H1526     1.0  0.82501  0.89732  0.80244  1.0000
  H   H1527     1.0  0.82405  0.87454  0.78398  1.0000
  H   H1528     1.0  0.67290  0.82067  0.73007  1.0000
  H   H1529     1.0  0.66513  0.96376  0.53078  1.0000
  C   C958      1.0  0.90424  0.80497  0.98725  1.0000
  H   H1530     1.0  0.66246  0.85623  0.71851  1.0000
  H   H1531     1.0  0.90730  0.78897  0.98445  1.0000
  S   S384      1.0  0.66677  0.97107  0.59048  1.0000
  H   H1532     1.0  0.67077  0.84630  0.76340  1.0000
  H   H1533     1.0  0.96634  0.74379  0.80603  1.0000
  H   H1534     1.0  0.67216  0.84112  0.64548  1.0000
  H   H1535     1.0  0.98627  0.91955  0.74948  1.0000
  C   C959      1.0  0.96535  0.74262  0.82682  1.0000
  H   H1536     1.0  0.69578  0.91514  0.49140  1.0000
  C   C960      1.0  0.68644  0.92880  0.49092  1.0000
