data_image0
_chemical_formula_structural       FeS2FeS2HCSH2FeS2HS2HSHSH2CSC2H3CHFeNH2C6H4C6H4C6H8CNC2HCH3C2HSHCH2NH2FeC2H2CNCH4CH3CH6FeH4CH2C2H3NCHFeSHFeS2FeHSNCHFeSC2SC2HC5HCH5SH3CH5C6H6C2SH2C2H5SHNFeH2C3H10CH2CH2NS2CH2SC2SFeHSH3CSCH4CSCSHFeH3CH2C3HCHCHCHS2CH3CH3C2SFeSC5HFeS2FeSFeHS2H2SFeS2FeSCFeSFeS2FeS2FeS2NSHFeSC6H4C6H6C3H2C6H4C6H2CHC4HSH3CNC4H12FeNH2CH2FeH3C3H2SH4SH2NC4H12C2H3CHSCSHCSHSCH2NCH5SFeCHFeCH4NHCHCH3FeSNHSHFeS2HFeS2FeS2FeSFeS3HCSHFeCHFeS2H2C7H4C6H4C6H4C2H4C4HCHCNC4H12NCH2CH6CH2SHC2HNSH9CH3CSH2CFeSHFeC2HCH4C2FeH2SH2CH2SHSH2S2H2S2FeS2HCFeSCSC3H2CH3C6H4C6H3CH5CH10C2Fe3H2NH2C3H3CHSHC2HSH5NHCH2CHC2HNH4C2SCS2CFeH5NCH4FeSHNH5C5H3C3S2FeS3FeHFeS2HFe2SHSFeHSHSCSH2C5H4C6H5NHC7H4C6H4NH4CH2CH3NC3HSH3CHFeHCH3CFeH3NC2H3CHSHCH8CH3FeCHSH4NH3C2HC3HCH4SC2NH5CSHFeH4SHFeS2H2CNHFeHSFeH4SH5CH5C2HCHCHCFeH2C2HC8H4CH2NHSCHNH2CH2CHCH3FeH4CHNCHC3SHC2H2SHFeSHCH4C3NCSC2H3SH2CH2CNCH3C2H3C3HCH3SH3CH4CSHCSCHNH5CH3CHCSHCHFeSHFeS2FeSHSCFeCSHCHSFeS2FeSFeSFeS5HFeS2HC2H3C6H4C6H4C6H4C6H4CH2CH2NC2H5SH2NC3H8NHC2HFeCH5C2H4CH7CH6CSNH3CHC2SCFeH2SH2C2H2CH4CSHCSHFeSHSFeSFeSFeS2FeSFeS3HSFeS3H2C6H4C6H4CHCHC2HC2FeHC6H6NCH2CFeH3C3HCNH3NC4H14SHSHFeC2H2SH2NH2CH2C2HCHNSCH2CHFeH2C2NH2SH3CH6C2HC2HCSCSH2FeH2S3FeCSH2SHSFeS2FeHCSHC2H2C2H3C2HCFeNHC6H4CSC4SH6NSH3NC4H9CHCH3C2FeHCH4CH3SC2HCH2CHSFeCSNC2H3FeH2SHC2H4SHCHCFe2H2SH2CS3FeHS2FeSFeHSH2CSCHCHCH3SHC2H2C6H4C6H5C2HFeHNH5CNHCH2SCFeNH3C2H3CHCFeSH2CH3SHFeH2CSCSCHCH2C2HCSH3CHNH4CH5FeSHS2HFeSFeS2FeSHFeSFeS3HS2FeS2FeS2C6H5C6H4C2HC5HCH4C6H5FeHCH4SHCH2FeH2C2H2C3HNSH4NC2H5NC4H14SH2FeCS2CFeH3CHC2H2C2HCSHFeS2FeS2HFeSCSFeS2FeS2H3FeS2FeSHFeS3HSHFeSH2C3HC7HCH2C6H4C6H4C6HCH2FeC3FeNH2FeNH4S2H3SHNCH3FeC2NHCHSH6CHFeSH2NC2H7CHC2H2CNH3SH3C4H5CH3CH5CHCH3C3H2SFeHSCHCSH4CHCFeHCNCHSCH3NCHCHCH7CH5SHFeH2C2H2CH3C2NCSH6C2FeCSHCHSH2C2SHCH2SH2FeSCFeSC2HS2H2CH3SFeSHCHC2NH2CHCH4C2HFeHSC6H4CH2CHSNC4H9C3H2C3HCH2CFeSNH2CH3FeS2FeS3FeS2HFeSH3NH2CSH2SHSHC3H2CHCH2C6H5SC6H2CHC6H4CH5CHFeNC4H13C2HC2NHCH4NCH4CHCH8CHS2FeHSFeHSHS2FeS3FeS2FeS2HCSC2H5CHSCHCFeHC6H4C6H3NCHFeCHFeHCH3FeHCH4SNCSCHC2HNHSHCHCHFeHC3H2C2SH3CH3C2HS2HCHCH3CHC2H2SHCH2SCHC2SCSH2SHSCFeSFeS2FeSFeSFeS3HFeHSC7H4CHC2H2FeCHC6H4C6H6C2HCHCH2CNFeHCHCH3SCH5CSH3CH7CFeHSNCH5CHNH4CHSCH3NH3CHFeCSH2NCH2SHC2H7CSH4FeS2HSFeHCHSHC2Fe2S2FeS2FeSFeHS2CHS2HC2SFeSC6H5C6H5CFeCHC3HC6H4C6H2CHSCH3NH5C2H3CH2C2HCH2CHCFeNCS2H2SHFeH3CH3SH4C2S2H2FeH4CSCHCH5CH4NC2H2N2HSCHCH2NHC2H10CH2C2SCFeSC2H3CH2CH2CHC2NH5NH7C2H6CH2FeHCSHFe2HC2S2Fe2SH3SC3FeS2FeHCH2C4SH2CSCH3C2H2NHFeH3FeC6H4NCHS2HSHSH2SHCHC3HCHC2HNHSHCH7CH2CH2CH3C2S2FeSHS2FeS2FeSNSH2CFeHSCHCFeHSC2HNH2CSHC6H9C6HCH2C6H7C2HCFeH2FeH2CH3NC4H13CH2FeHCNCHCHSHCHSH5CFeSHSH2
_chemical_formula_sum              "Fe192 S384 H1536 C960 N96"
_cell_length_a       112.976
_cell_length_b       32.856
_cell_length_c       57.7424
_cell_angle_alpha    87.2652
_cell_angle_beta     87.1306
_cell_angle_gamma    87.8865

_space_group_name_H-M_alt    "P 1"
_space_group_IT_number       1

loop_
  _space_group_symop_operation_xyz
  'x, y, z'

loop_
  _atom_site_type_symbol
  _atom_site_label
  _atom_site_symmetry_multiplicity
  _atom_site_fract_x
  _atom_site_fract_y
  _atom_site_fract_z
  _atom_site_occupancy
  Fe  Fe1       1.0  0.22150  0.26199  0.09740  1.0000
  S   S1        1.0  0.22344  0.27581  0.13511  1.0000
  S   S2        1.0  0.21583  0.30167  0.06567  1.0000
  Fe  Fe2       1.0  0.22075  0.20791  0.14254  1.0000
  S   S3        1.0  0.21217  0.17882  0.17586  1.0000
  S   S4        1.0  0.21750  0.19570  0.10537  1.0000
  H   H1        1.0  0.04631  0.23475  0.07686  1.0000
  C   C1        1.0  0.19657  0.45133  0.07552  1.0000
  S   S5        1.0  0.16887  0.39560  0.03039  1.0000
  H   H2        1.0  0.16577  0.18694  0.27318  1.0000
  H   H3        1.0  0.98478  0.25044  0.19404  1.0000
  Fe  Fe3       1.0  0.99248  0.22779  0.12896  1.0000
  S   S6        1.0  0.99292  0.28758  0.14627  1.0000
  S   S7        1.0  0.00748  0.18455  0.14214  1.0000
  H   H4        1.0  0.06742  0.45010  0.13571  1.0000
  S   S8        1.0  0.00668  0.35463  0.09146  1.0000
  S   S9        1.0  0.99252  0.25861  0.09349  1.0000
  H   H5        1.0  0.99897  0.15985  0.22401  1.0000
  S   S10       1.0  0.16157  0.01226  0.31077  1.0000
  H   H6        1.0  0.17497  0.46988  0.09518  1.0000
  S   S11       1.0  0.16801  0.06386  0.19684  1.0000
  H   H7        1.0  0.19458  0.42121  0.06885  1.0000
  H   H8        1.0  0.22321  0.14600  0.00738  1.0000
  C   C2        1.0  0.99115  0.22485  0.19840  1.0000
  S   S12       1.0  0.14907  0.01502  0.25024  1.0000
  C   C3        1.0  0.01116  0.40575  0.09218  1.0000
  C   C4        1.0  0.00816  0.43029  0.11087  1.0000
  H   H9        1.0  0.99762  0.22201  0.18334  1.0000
  H   H10       1.0  0.02908  0.26262  0.05553  1.0000
  H   H11       1.0  0.17981  0.16601  0.26256  1.0000
  C   C5        1.0  0.01857  0.42127  0.07379  1.0000
  H   H12       1.0  0.00251  0.41870  0.12519  1.0000
  Fe  Fe4       1.0  0.16548  0.44652  0.00260  1.0000
  N   N1        1.0  0.98496  0.18640  0.20368  1.0000
  H   H13       1.0  0.02093  0.40260  0.05921  1.0000
  H   H14       1.0  0.16987  0.13185  0.23184  1.0000
  C   C6        1.0  0.01570  0.04630  0.15547  1.0000
  C   C7        1.0  0.02361  0.07551  0.16130  1.0000
  C   C8        1.0  0.02091  0.11749  0.15708  1.0000
  C   C9        1.0  0.01025  0.13101  0.14707  1.0000
  C   C10       1.0  0.00226  0.10188  0.14149  1.0000
  C   C11       1.0  0.00500  0.05986  0.14560  1.0000
  H   H15       1.0  0.03188  0.06574  0.16888  1.0000
  H   H16       1.0  0.02717  0.13960  0.16157  1.0000
  H   H17       1.0  0.99403  0.11159  0.13377  1.0000
  H   H18       1.0  0.99878  0.03767  0.14101  1.0000
  C   C12       1.0  0.20265  0.32794  0.05657  1.0000
  C   C13       1.0  0.19172  0.32440  0.06883  1.0000
  C   C14       1.0  0.18149  0.34507  0.06044  1.0000
  C   C15       1.0  0.18206  0.36979  0.03982  1.0000
  C   C16       1.0  0.19302  0.37365  0.02767  1.0000
  C   C17       1.0  0.20322  0.35274  0.03598  1.0000
  H   H19       1.0  0.19109  0.30537  0.08463  1.0000
  H   H20       1.0  0.17306  0.34174  0.06996  1.0000
  H   H21       1.0  0.19362  0.39231  0.01173  1.0000
  H   H22       1.0  0.21162  0.35573  0.02630  1.0000
  C   C18       1.0  0.18100  0.09228  0.19017  1.0000
  C   C19       1.0  0.19039  0.09192  0.20509  1.0000
  C   C20       1.0  0.19995  0.11803  0.20021  1.0000
  C   C21       1.0  0.20047  0.14382  0.17999  1.0000
  C   C22       1.0  0.19127  0.14311  0.16468  1.0000
  C   C23       1.0  0.18154  0.11790  0.16992  1.0000
  H   H23       1.0  0.19021  0.07202  0.22054  1.0000
  H   H24       1.0  0.20701  0.11832  0.21218  1.0000
  H   H25       1.0  0.19144  0.16302  0.14921  1.0000
  H   H26       1.0  0.17431  0.11859  0.15828  1.0000
  H   H27       1.0  0.15788  0.09908  0.23947  1.0000
  H   H28       1.0  0.22239  0.16617  0.05826  1.0000
  H   H29       1.0  0.15582  0.15299  0.24228  1.0000
  H   H30       1.0  0.21475  0.21505  0.05501  1.0000
  C   C24       1.0  0.99376  0.15320  0.20887  1.0000
  N   N2        1.0  0.16618  0.12236  0.26865  1.0000
  C   C25       1.0  0.04228  0.24876  0.09270  1.0000
  C   C26       1.0  0.17472  0.08739  0.27067  1.0000
  H   H31       1.0  0.04542  0.23029  0.10803  1.0000
  C   C27       1.0  0.23068  0.16229  0.01417  1.0000
  H   H32       1.0  0.15851  0.11064  0.30309  1.0000
  H   H33       1.0  0.17508  0.15738  0.29254  1.0000
  H   H34       1.0  0.20579  0.45834  0.06928  1.0000
  C   C28       1.0  0.15582  0.11508  0.28481  1.0000
  C   C29       1.0  0.17196  0.15988  0.27452  1.0000
  H   H35       1.0  0.14916  0.14082  0.28393  1.0000
  S   S13       1.0  0.01874  0.99270  0.15967  1.0000
  H   H36       1.0  0.17056  0.05876  0.26650  1.0000
  C   C30       1.0  0.16226  0.12687  0.24457  1.0000
  H   H37       1.0  0.98943  0.12361  0.21278  1.0000
  H   H38       1.0  0.17347  0.44269  0.06934  1.0000
  N   N3        1.0  0.02920  0.25046  0.09253  1.0000
  H   H39       1.0  0.15130  0.08687  0.28079  1.0000
  H   H40       1.0  0.17780  0.08267  0.28866  1.0000
  Fe  Fe5       1.0  0.99203  0.31852  0.11079  1.0000
  C   C31       1.0  0.02427  0.26910  0.11390  1.0000
  C   C32       1.0  0.21807  0.18780  0.04556  1.0000
  H   H41       1.0  0.18639  0.45825  0.03435  1.0000
  H   H42       1.0  0.02830  0.19371  0.07559  1.0000
  C   C33       1.0  0.01265  0.46978  0.11120  1.0000
  N   N4        1.0  0.22640  0.19934  0.02602  1.0000
  C   C34       1.0  0.02542  0.27532  0.07200  1.0000
  H   H43       1.0  0.01444  0.27094  0.11432  1.0000
  H   H44       1.0  0.18263  0.09138  0.25864  1.0000
  H   H45       1.0  0.02754  0.18906  0.10682  1.0000
  H   H46       1.0  0.02721  0.30087  0.11512  1.0000
  C   C35       1.0  0.02286  0.46098  0.07390  1.0000
  H   H47       1.0  0.02825  0.30739  0.07248  1.0000
  H   H48       1.0  0.04583  0.27983  0.09339  1.0000
  H   H49       1.0  0.05556  0.42850  0.12124  1.0000
  C   C36       1.0  0.02486  0.20868  0.09156  1.0000
  H   H50       1.0  0.19640  0.44770  0.09479  1.0000
  H   H51       1.0  0.02682  0.25096  0.12978  1.0000
  H   H52       1.0  0.01559  0.27696  0.07119  1.0000
  H   H53       1.0  0.01500  0.20876  0.09173  1.0000
  H   H54       1.0  0.99613  0.23385  0.21338  1.0000
  H   H55       1.0  0.10101  0.99088  0.17870  1.0000
  Fe  Fe6       1.0  0.16436  0.01147  0.22351  1.0000
  H   H56       1.0  0.21019  0.17276  0.03952  1.0000
  H   H57       1.0  0.21248  0.21369  0.00255  1.0000
  H   H58       1.0  0.02842  0.47261  0.05948  1.0000
  H   H59       1.0  0.21691  0.25592  0.01831  1.0000
  C   C37       1.0  0.22026  0.22780  0.00961  1.0000
  H   H60       1.0  0.04728  0.46419  0.08702  1.0000
  H   H61       1.0  0.00019  0.14878  0.19381  1.0000
  C   C38       1.0  0.06349  0.44769  0.11856  1.0000
  C   C39       1.0  0.17585  0.47251  0.07591  1.0000
  H   H62       1.0  0.98436  0.17294  0.16771  1.0000
  H   H63       1.0  0.06178  0.47018  0.07277  1.0000
  H   H64       1.0  0.07008  0.43125  0.10709  1.0000
  N   N5        1.0  0.18797  0.48347  0.06766  1.0000
  C   C40       1.0  0.05518  0.48356  0.08549  1.0000
  H   H65       1.0  0.22629  0.23756  0.99470  1.0000
  Fe  Fe7       1.0  0.21436  0.24580  0.62569  1.0000
  S   S14       1.0  0.21794  0.25013  0.58689  1.0000
  H   H66       1.0  0.98474  0.06497  0.53278  1.0000
  Fe  Fe8       1.0  0.22173  0.18257  0.58869  1.0000
  S   S15       1.0  0.21659  0.13189  0.56527  1.0000
  S   S16       1.0  0.21700  0.17756  0.62682  1.0000
  Fe  Fe9       1.0  0.99936  0.11799  0.62679  1.0000
  H   H67       1.0  0.00861  0.11487  0.56161  1.0000
  S   S17       1.0  0.01687  0.08202  0.62154  1.0000
  N   N6        1.0  0.00090  0.06035  0.55093  1.0000
  C   C41       1.0  0.17089  0.20649  0.61444  1.0000
  H   H68       1.0  0.18980  0.18597  0.63964  1.0000
  Fe  Fe10      1.0  0.16683  0.01739  0.49624  1.0000
  S   S18       1.0  0.17251  0.07902  0.50870  1.0000
  C   C42       1.0  0.99345  0.04776  0.53240  1.0000
  C   C43       1.0  0.18979  0.19900  0.59358  1.0000
  S   S19       1.0  0.99631  0.16799  0.59961  1.0000
  C   C44       1.0  0.02905  0.01715  0.60201  1.0000
  C   C45       1.0  0.18612  0.16114  0.62989  1.0000
  H   H69       1.0  0.15890  0.04993  0.35484  1.0000
  C   C46       1.0  0.17631  0.14364  0.59566  1.0000
  C   C47       1.0  0.99472  0.05198  0.57373  1.0000
  C   C48       1.0  0.01833  0.03093  0.61291  1.0000
  C   C49       1.0  0.00893  0.00435  0.61592  1.0000
  C   C50       1.0  0.00644  0.34868  0.63930  1.0000
  H   H70       1.0  0.17715  0.33239  0.64835  1.0000
  C   C51       1.0  0.01330  0.37435  0.65189  1.0000
  H   H71       1.0  0.13322  0.01984  0.41112  1.0000
  H   H72       1.0  0.00072  0.01429  0.62469  1.0000
  H   H73       1.0  0.04336  0.38264  0.64959  1.0000
  H   H74       1.0  0.19323  0.22504  0.60247  1.0000
  H   H75       1.0  0.99456  0.12290  0.54874  1.0000
  S   S20       1.0  0.99609  0.27668  0.62966  1.0000
  H   H76       1.0  0.19750  0.17832  0.58912  1.0000
  H   H77       1.0  0.13377  0.99667  0.43979  1.0000
  H   H78       1.0  0.06874  0.31230  0.63417  1.0000
  C   C52       1.0  0.16353  0.00471  0.38162  1.0000
  H   H79       1.0  0.99402  0.01869  0.57778  1.0000
  H   H80       1.0  0.05012  0.29256  0.65668  1.0000
  H   H81       1.0  0.23019  0.27933  0.54181  1.0000
  H   H82       1.0  0.22261  0.20392  0.51931  1.0000
  H   H83       1.0  0.18363  0.12153  0.59070  1.0000
  C   C53       1.0  0.20395  0.11780  0.55042  1.0000
  C   C54       1.0  0.19546  0.14647  0.54238  1.0000
  C   C55       1.0  0.18588  0.13393  0.52991  1.0000
  C   C56       1.0  0.18467  0.09266  0.52506  1.0000
  C   C57       1.0  0.19317  0.06402  0.53308  1.0000
  C   C58       1.0  0.20276  0.07657  0.54555  1.0000
  H   H84       1.0  0.19646  0.17843  0.54503  1.0000
  H   H85       1.0  0.17945  0.15644  0.52354  1.0000
  H   H86       1.0  0.19242  0.03221  0.52950  1.0000
  H   H87       1.0  0.20932  0.05409  0.55140  1.0000
  H   H88       1.0  0.16220  0.02558  0.39552  1.0000
  H   H89       1.0  0.05656  0.39697  0.63329  1.0000
  C   C59       1.0  0.00545  0.30690  0.64565  1.0000
  C   C60       1.0  0.00303  0.10446  0.54781  1.0000
  S   S21       1.0  0.15417  0.01740  0.46686  1.0000
  H   H90       1.0  0.14594  0.98884  0.41916  1.0000
  H   H91       1.0  0.01831  0.04734  0.56317  1.0000
  C   C61       1.0  0.23278  0.27598  0.52313  1.0000
  C   C62       1.0  0.16171  0.01853  0.35842  1.0000
  H   H92       1.0  0.99939  0.06530  0.58789  1.0000
  H   H93       1.0  0.22903  0.20488  0.54698  1.0000
  H   H94       1.0  0.16950  0.12647  0.60628  1.0000
  H   H95       1.0  0.07556  0.35917  0.63992  1.0000
  H   H96       1.0  0.04959  0.35014  0.62784  1.0000
  S   S22       1.0  0.19673  0.27671  0.63784  1.0000
  H   H97       1.0  0.03641  0.03736  0.59983  1.0000
  N   N7        1.0  0.18076  0.17752  0.60840  1.0000
  Fe  Fe11      1.0  0.99128  0.20886  0.62908  1.0000
  H   H98       1.0  0.99782  0.05348  0.51491  1.0000
  H   H99       1.0  0.99161  0.01469  0.53446  1.0000
  C   C63       1.0  0.07037  0.33356  0.64802  1.0000
  C   C64       1.0  0.01238  0.03726  0.54991  1.0000
  C   C65       1.0  0.16363  0.99237  0.33982  1.0000
  H   H100      1.0  0.17952  0.14536  0.64174  1.0000
  H   H101      1.0  0.00762  0.11199  0.53076  1.0000
  H   H102      1.0  0.16389  0.19146  0.62569  1.0000
  H   H103      1.0  0.18609  0.21151  0.57713  1.0000
  H   H104      1.0  0.22454  0.27976  0.51336  1.0000
  H   H105      1.0  0.01390  0.40631  0.64669  1.0000
  H   H106      1.0  0.16668  0.21973  0.59864  1.0000
  H   H107      1.0  0.17224  0.15489  0.57926  1.0000
  H   H108      1.0  0.01123  0.00391  0.55331  1.0000
  H   H109      1.0  0.01713  0.04159  0.53268  1.0000
  C   C66       1.0  0.05187  0.37051  0.64169  1.0000
  H   H110      1.0  0.98557  0.06540  0.57443  1.0000
  H   H111      1.0  0.17408  0.23238  0.62404  1.0000
  C   C67       1.0  0.23118  0.20294  0.52807  1.0000
  H   H112      1.0  0.00181  0.36136  0.62450  1.0000
  H   H113      1.0  0.19353  0.13879  0.62601  1.0000
  N   N8        1.0  0.05913  0.34868  0.65928  1.0000
  S   S23       1.0  0.99560  0.16014  0.65618  1.0000
  S   S24       1.0  0.23327  0.25616  0.63394  1.0000
  C   C68       1.0  0.13610  0.99178  0.42115  1.0000
  H   H114      1.0  0.11369  0.98680  0.40857  1.0000
  H   H115      1.0  0.07608  0.31699  0.66081  1.0000
  S   S25       1.0  0.07875  0.45904  0.69685  1.0000
  C   C69       1.0  0.17097  0.47173  0.84635  1.0000
  C   C70       1.0  0.19822  0.33447  0.69896  1.0000
  S   S26       1.0  0.15415  0.44406  0.97134  1.0000
  Fe  Fe12      1.0  0.17080  0.43851  0.73398  1.0000
  H   H116      1.0  0.99138  0.23975  0.70711  1.0000
  S   S27       1.0  0.18385  0.38581  0.72532  1.0000
  H   H117      1.0  0.06728  0.36167  0.69099  1.0000
  H   H118      1.0  0.12058  0.43781  0.71640  1.0000
  H   H119      1.0  0.99064  0.24042  0.67611  1.0000
  C   C71       1.0  0.11360  0.46043  0.71303  1.0000
  S   S28       1.0  0.15264  0.43569  0.75267  1.0000
  C   C72       1.0  0.98535  0.23616  0.69275  1.0000
  H   H120      1.0  0.11151  0.45202  0.81903  1.0000
  H   H121      1.0  0.20405  0.33436  0.71327  1.0000
  H   H122      1.0  0.10039  0.41589  0.70850  1.0000
  H   H123      1.0  0.12005  0.42616  0.78164  1.0000
  C   C73       1.0  0.18759  0.35824  0.69992  1.0000
  S   S29       1.0  0.04620  0.46496  0.71837  1.0000
  C   C74       1.0  0.01816  0.31702  0.67776  1.0000
  S   S30       1.0  0.02775  0.38966  0.68854  1.0000
  H   H124      1.0  0.17187  0.37560  0.68184  1.0000
  Fe  Fe13      1.0  0.03539  0.45418  0.68739  1.0000
  H   H125      1.0  0.20951  0.29217  0.67949  1.0000
  H   H126      1.0  0.12621  0.46140  0.75996  1.0000
  H   H127      1.0  0.05348  0.38878  0.68642  1.0000
  C   C75       1.0  0.20136  0.31049  0.67979  1.0000
  H   H128      1.0  0.02260  0.30446  0.69280  1.0000
  H   H129      1.0  0.17661  0.46348  0.83152  1.0000
  C   C76       1.0  0.09289  0.47682  0.70360  1.0000
  C   C77       1.0  0.18011  0.35780  0.68133  1.0000
  C   C78       1.0  0.12461  0.45558  0.77901  1.0000
  H   H130      1.0  0.12489  0.47821  0.82301  1.0000
  C   C79       1.0  0.10211  0.44806  0.70849  1.0000
  H   H131      1.0  0.01103  0.25915  0.66994  1.0000
  C   C80       1.0  0.17568  0.47175  0.86861  1.0000
  H   H132      1.0  0.10088  0.46440  0.78220  1.0000
  C   C81       1.0  0.06175  0.37681  0.67744  1.0000
  H   H133      1.0  0.13340  0.45136  0.78689  1.0000
  S   S31       1.0  0.15244  0.48287  0.81573  1.0000
  S   S32       1.0  0.17805  0.47759  0.76093  1.0000
  C   C82       1.0  0.01915  0.35880  0.67139  1.0000
  H   H134      1.0  0.04416  0.32447  0.67901  1.0000
  H   H135      1.0  0.05782  0.29638  0.68305  1.0000
  H   H136      1.0  0.18498  0.46393  0.87058  1.0000
  C   C83       1.0  0.05255  0.31390  0.66994  1.0000
  H   H137      1.0  0.06666  0.40354  0.67001  1.0000
  H   H138      1.0  0.98478  0.31436  0.67684  1.0000
  H   H139      1.0  0.98521  0.31192  0.70788  1.0000
  C   C84       1.0  0.01150  0.29118  0.66489  1.0000
  C   C85       1.0  0.18313  0.33314  0.66236  1.0000
  S   S33       1.0  0.04961  0.47645  0.66148  1.0000
  Fe  Fe14      1.0  0.15968  0.47859  0.77783  1.0000
  S   S34       1.0  0.17507  0.48118  0.91608  1.0000
  C   C86       1.0  0.15894  0.48152  0.84349  1.0000
  C   C87       1.0  0.16848  0.48101  0.88846  1.0000
  C   C88       1.0  0.11612  0.48103  0.81485  1.0000
  C   C89       1.0  0.19375  0.30928  0.66147  1.0000
  C   C90       1.0  0.11246  0.51424  0.02258  1.0000
  H   H140      1.0  0.10249  0.51192  0.05551  1.0000
  Fe  Fe15      1.0  0.04312  0.86554  0.16893  1.0000
  S   S35       1.0  0.05469  0.86506  0.19956  1.0000
  S   S36       1.0  0.03803  0.80602  0.15335  1.0000
  Fe  Fe16      1.0  0.03905  0.89478  0.21875  1.0000
  S   S37       1.0  0.03485  0.86163  0.25381  1.0000
  Fe  Fe17      1.0  0.05949  0.92880  0.18765  1.0000
  H   H141      1.0  0.18464  0.54783  0.07122  1.0000
  S   S38       1.0  0.02737  0.89227  0.18883  1.0000
  S   S39       1.0  0.04901  0.92721  0.15513  1.0000
  H   H142      1.0  0.13347  0.56152  0.01689  1.0000
  H   H143      1.0  0.21653  0.85345  0.14858  1.0000
  S   S40       1.0  0.17109  0.59542  0.01699  1.0000
  Fe  Fe18      1.0  0.04530  0.65230  0.04922  1.0000
  S   S41       1.0  0.05504  0.62784  0.01718  1.0000
  S   S42       1.0  0.04746  0.71940  0.05694  1.0000
  Fe  Fe19      1.0  0.03586  0.56796  0.06430  1.0000
  S   S43       1.0  0.04493  0.53823  0.03382  1.0000
  C   C91       1.0  0.18858  0.48726  0.04204  1.0000
  Fe  Fe20      1.0  0.06081  0.57459  0.04052  1.0000
  S   S44       1.0  0.07899  0.54423  0.04768  1.0000
  Fe  Fe21      1.0  0.03831  0.59358  0.01288  1.0000
  S   S45       1.0  0.05206  0.60131  0.07258  1.0000
  S   S46       1.0  0.02823  0.62137  0.04327  1.0000
  Fe  Fe22      1.0  0.22103  0.67729  0.09546  1.0000
  S   S47       1.0  0.21185  0.67724  0.13100  1.0000
  S   S48       1.0  0.21817  0.63046  0.06842  1.0000
  Fe  Fe23      1.0  0.21206  0.74587  0.12674  1.0000
  S   S49       1.0  0.19727  0.79368  0.13346  1.0000
  S   S50       1.0  0.21991  0.74568  0.08995  1.0000
  N   N9        1.0  0.01647  0.89218  0.11337  1.0000
  S   S51       1.0  0.15598  0.92097  0.26593  1.0000
  H   H144      1.0  0.04882  0.53999  0.11644  1.0000
  Fe  Fe24      1.0  0.17044  0.92346  0.23752  1.0000
  S   S52       1.0  0.18260  0.86773  0.23142  1.0000
  C   C92       1.0  0.19335  0.81388  0.16085  1.0000
  C   C93       1.0  0.18506  0.84682  0.16209  1.0000
  C   C94       1.0  0.18182  0.86413  0.18348  1.0000
  C   C95       1.0  0.18674  0.84825  0.20391  1.0000
  C   C96       1.0  0.19503  0.81532  0.20264  1.0000
  C   C97       1.0  0.19839  0.79837  0.18121  1.0000
  H   H145      1.0  0.18116  0.85916  0.14640  1.0000
  H   H146      1.0  0.17553  0.88970  0.18414  1.0000
  H   H147      1.0  0.19885  0.80277  0.21836  1.0000
  H   H148      1.0  0.20476  0.77298  0.18053  1.0000
  C   C98       1.0  0.18433  0.60538  0.03075  1.0000
  C   C99       1.0  0.18397  0.63425  0.04802  1.0000
  C   C100      1.0  0.19424  0.64257  0.05964  1.0000
  C   C101      1.0  0.20502  0.62227  0.05393  1.0000
  C   C102      1.0  0.20539  0.59370  0.03649  1.0000
  C   C103      1.0  0.19512  0.58531  0.02493  1.0000
  H   H149      1.0  0.17569  0.65021  0.05254  1.0000
  H   H150      1.0  0.19383  0.66468  0.07298  1.0000
  H   H151      1.0  0.21372  0.57813  0.03180  1.0000
  H   H152      1.0  0.19560  0.56382  0.01126  1.0000
  H   H153      1.0  0.00201  0.87332  0.13660  1.0000
  H   H154      1.0  0.11965  0.98094  0.19981  1.0000
  C   C104      1.0  0.19087  0.52279  0.07707  1.0000
  C   C105      1.0  0.09165  0.53759  0.02840  1.0000
  C   C106      1.0  0.02875  0.90544  0.11488  1.0000
  H   H155      1.0  0.01304  0.93296  0.08406  1.0000
  H   H156      1.0  0.05478  0.51277  0.14120  1.0000
  C   C107      1.0  0.04144  0.78201  0.12673  1.0000
  C   C108      1.0  0.03748  0.74238  0.12430  1.0000
  C   C109      1.0  0.03947  0.72247  0.10328  1.0000
  C   C110      1.0  0.04529  0.74226  0.08423  1.0000
  C   C111      1.0  0.04921  0.78200  0.08662  1.0000
  C   C112      1.0  0.04740  0.80168  0.10779  1.0000
  H   H157      1.0  0.03279  0.72688  0.13872  1.0000
  H   H158      1.0  0.03634  0.69205  0.10165  1.0000
  H   H159      1.0  0.05374  0.79753  0.07199  1.0000
  H   H160      1.0  0.05057  0.83202  0.10935  1.0000
  C   C113      1.0  0.02091  0.85901  0.26924  1.0000
  C   C114      1.0  0.01152  0.88660  0.26459  1.0000
  C   C115      1.0  0.00084  0.88475  0.27824  1.0000
  C   C116      1.0  0.99933  0.85488  0.29632  1.0000
  C   C117      1.0  0.00855  0.82626  0.30033  1.0000
  C   C118      1.0  0.01935  0.82872  0.28710  1.0000
  H   H161      1.0  0.01261  0.91010  0.25095  1.0000
  H   H162      1.0  0.99373  0.90693  0.27494  1.0000
  C   C119      1.0  0.11206  0.96288  0.20496  1.0000
  H   H163      1.0  0.02655  0.80714  0.29073  1.0000
  C   C120      1.0  0.09139  0.94560  0.19944  1.0000
  C   C121      1.0  0.09214  0.91671  0.21798  1.0000
  C   C122      1.0  0.10277  0.91093  0.22984  1.0000
  C   C123      1.0  0.11279  0.93407  0.22353  1.0000
  H   H164      1.0  0.02178  0.82955  0.10834  1.0000
  S   S53       1.0  0.02594  0.53433  0.09440  1.0000
  H   H165      1.0  0.08452  0.89885  0.22318  1.0000
  H   H166      1.0  0.19041  0.52131  0.09638  1.0000
  H   H167      1.0  0.21718  0.90795  0.14981  1.0000
  C   C124      1.0  0.00934  0.92517  0.10188  1.0000
  N   N10       1.0  0.14352  0.83943  0.19885  1.0000
  C   C125      1.0  0.15001  0.80892  0.18458  1.0000
  C   C126      1.0  0.15033  0.84639  0.21942  1.0000
  C   C127      1.0  0.13171  0.82442  0.20650  1.0000
  C   C128      1.0  0.14204  0.87809  0.18494  1.0000
  H   H168      1.0  0.14521  0.80312  0.16876  1.0000
  H   H169      1.0  0.15126  0.77933  0.19451  1.0000
  H   H170      1.0  0.15902  0.81934  0.17880  1.0000
  H   H171      1.0  0.14564  0.86885  0.23077  1.0000
  H   H172      1.0  0.15178  0.81783  0.23019  1.0000
  H   H173      1.0  0.15922  0.85832  0.21435  1.0000
  H   H174      1.0  0.12661  0.84705  0.21723  1.0000
  H   H175      1.0  0.13245  0.79553  0.21726  1.0000
  H   H176      1.0  0.12629  0.81891  0.19147  1.0000
  H   H177      1.0  0.13734  0.90204  0.19532  1.0000
  H   H178      1.0  0.13672  0.87417  0.16955  1.0000
  H   H179      1.0  0.15076  0.89011  0.17860  1.0000
  Fe  Fe25      1.0  0.14433  0.95296  0.23947  1.0000
  N   N11       1.0  0.13354  0.62669  0.01237  1.0000
  H   H180      1.0  0.07501  0.51764  0.12181  1.0000
  H   H181      1.0  0.14583  0.58439  0.02873  1.0000
  C   C129      1.0  0.01130  0.88322  0.13700  1.0000
  H   H182      1.0  0.03432  0.88160  0.12389  1.0000
  H   H183      1.0  0.19998  0.53192  0.07124  1.0000
  Fe  Fe26      1.0  0.03375  0.95428  0.17672  1.0000
  H   H184      1.0  0.00917  0.95353  0.11184  1.0000
  H   H185      1.0  0.01649  0.85848  0.14618  1.0000
  H   H186      1.0  0.22268  0.94961  0.11403  1.0000
  C   C130      1.0  0.13792  0.66146  0.02440  1.0000
  C   C131      1.0  0.01655  0.85503  0.09986  1.0000
  C   C132      1.0  0.21518  0.88287  0.13848  1.0000
  H   H187      1.0  0.07780  0.49849  0.09325  1.0000
  H   H188      1.0  0.02897  0.93381  0.12468  1.0000
  S   S54       1.0  0.22959  0.74943  0.14268  1.0000
  H   H189      1.0  0.01037  0.48843  0.12582  1.0000
  H   H190      1.0  0.00733  0.80257  0.31373  1.0000
  H   H191      1.0  0.19759  0.49541  0.03509  1.0000
  H   H192      1.0  0.21095  0.92767  0.09943  1.0000
  S   S55       1.0  0.98598  0.85555  0.31385  1.0000
  H   H193      1.0  0.20555  0.88564  0.13505  1.0000
  H   H194      1.0  0.01121  0.91059  0.14772  1.0000
  N   N12       1.0  0.02661  0.75773  0.21784  1.0000
  C   C133      1.0  0.03927  0.76796  0.21690  1.0000
  C   C134      1.0  0.01930  0.79437  0.21143  1.0000
  C   C135      1.0  0.02302  0.74307  0.24166  1.0000
  C   C136      1.0  0.02486  0.72565  0.20136  1.0000
  H   H195      1.0  0.04506  0.74098  0.22148  1.0000
  H   H196      1.0  0.04096  0.79205  0.22910  1.0000
  H   H197      1.0  0.04228  0.77964  0.19927  1.0000
  H   H198      1.0  0.00968  0.78805  0.21252  1.0000
  H   H199      1.0  0.02063  0.81964  0.22311  1.0000
  H   H200      1.0  0.02160  0.80573  0.19338  1.0000
  H   H201      1.0  0.01348  0.73542  0.24312  1.0000
  H   H202      1.0  0.02430  0.76685  0.25433  1.0000
  H   H203      1.0  0.02832  0.71539  0.24715  1.0000
  H   H204      1.0  0.01539  0.71736  0.20144  1.0000
  H   H205      1.0  0.03022  0.69746  0.20564  1.0000
  H   H206      1.0  0.02758  0.73603  0.18325  1.0000
  C   C137      1.0  0.07094  0.51303  0.10504  1.0000
  C   C138      1.0  0.21947  0.85037  0.10231  1.0000
  H   H207      1.0  0.00743  0.84424  0.09815  1.0000
  H   H208      1.0  0.10318  0.88856  0.24416  1.0000
  H   H209      1.0  0.06882  0.54372  0.09695  1.0000
  C   C139      1.0  0.09144  0.54838  0.00470  1.0000
  H   H210      1.0  0.16913  0.49564  0.06974  1.0000
  S   S56       1.0  0.15859  0.95173  0.21075  1.0000
  C   C140      1.0  0.13617  0.58850  0.02598  1.0000
  S   S57       1.0  0.07826  0.95407  0.18351  1.0000
  H   H211      1.0  0.99999  0.91638  0.10047  1.0000
  C   C141      1.0  0.10223  0.52055  0.03723  1.0000
  S   S58       1.0  0.12600  0.92466  0.23908  1.0000
  H   H212      1.0  0.11568  0.63183  0.02718  1.0000
  S   S59       1.0  0.15453  0.49913  0.01696  1.0000
  C   C142      1.0  0.10145  0.96847  0.19301  1.0000
  H   H213      1.0  0.02063  0.86036  0.08207  1.0000
  H   H214      1.0  0.08338  0.56138  0.99761  1.0000
  N   N13       1.0  0.22258  0.88411  0.11661  1.0000
  C   C143      1.0  0.11221  0.52475  0.99883  1.0000
  H   H215      1.0  0.22083  0.82056  0.11184  1.0000
  H   H216      1.0  0.13612  0.69085  0.01460  1.0000
  H   H217      1.0  0.22588  0.92520  0.08709  1.0000
  H   H218      1.0  0.13140  0.58791  0.04330  1.0000
  H   H219      1.0  0.12046  0.50076  0.02961  1.0000
  S   S60       1.0  0.04442  0.95920  0.20866  1.0000
  Fe  Fe27      1.0  0.16756  0.53898  0.99712  1.0000
  C   C144      1.0  0.12059  0.63180  0.00997  1.0000
  H   H220      1.0  0.20997  0.85257  0.09789  1.0000
  Fe  Fe28      1.0  0.23029  0.68092  0.14406  1.0000
  C   C145      1.0  0.22044  0.92341  0.10371  1.0000
  H   H221      1.0  0.18218  0.51118  0.03552  1.0000
  H   H222      1.0  0.03305  0.91183  0.09740  1.0000
  H   H223      1.0  0.14770  0.65826  0.02633  1.0000
  H   H224      1.0  0.13361  0.66362  0.04208  1.0000
  N   N14       1.0  0.06026  0.48833  0.10823  1.0000
  H   H225      1.0  0.05217  0.51350  0.07787  1.0000
  C   C146      1.0  0.05138  0.50904  0.12372  1.0000
  H   H226      1.0  0.11823  0.66074  0.00023  1.0000
  C   C147      1.0  0.01999  0.48536  0.09270  1.0000
  H   H227      1.0  0.04304  0.49185  0.12592  1.0000
  H   H228      1.0  0.22503  0.84950  0.08583  1.0000
  H   H229      1.0  0.11714  0.60651  0.00036  1.0000
  Fe  Fe29      1.0  0.16159  0.98290  0.27512  1.0000
  S   S61       1.0  0.17713  0.98300  0.24869  1.0000
  N   N15       1.0  0.13048  0.95524  0.41337  1.0000
  H   H230      1.0  0.02907  0.74374  0.35884  1.0000
  S   S62       1.0  0.15523  0.91877  0.47331  1.0000
  H   H231      1.0  0.03199  0.85643  0.35744  1.0000
  Fe  Fe30      1.0  0.16782  0.92545  0.50171  1.0000
  S   S63       1.0  0.17468  0.86477  0.51753  1.0000
  S   S64       1.0  0.12417  0.96787  0.48395  1.0000
  H   H232      1.0  0.03905  0.80908  0.34906  1.0000
  Fe  Fe31      1.0  0.03622  0.87322  0.56201  1.0000
  S   S65       1.0  0.04495  0.90169  0.52969  1.0000
  S   S66       1.0  0.02146  0.90207  0.58485  1.0000
  Fe  Fe32      1.0  0.04870  0.78927  0.55479  1.0000
  S   S67       1.0  0.05768  0.81187  0.52090  1.0000
  S   S68       1.0  0.05584  0.72780  0.57014  1.0000
  Fe  Fe33      1.0  0.06183  0.86762  0.53972  1.0000
  S   S69       1.0  0.08122  0.88484  0.54368  1.0000
  Fe  Fe34      1.0  0.04014  0.84378  0.51312  1.0000
  S   S70       1.0  0.03185  0.85615  0.47784  1.0000
  S   S71       1.0  0.05330  0.84413  0.57381  1.0000
  S   S72       1.0  0.03083  0.81643  0.54523  1.0000
  H   H233      1.0  0.03685  0.78483  0.39006  1.0000
  C   C148      1.0  0.11246  0.94325  0.50052  1.0000
  S   S73       1.0  0.99644  0.75633  0.42136  1.0000
  H   H234      1.0  0.12274  0.92393  0.52965  1.0000
  Fe  Fe35      1.0  0.22096  0.70195  0.63166  1.0000
  C   C149      1.0  0.18239  0.85460  0.45804  1.0000
  H   H235      1.0  0.19900  0.57115  0.65419  1.0000
  Fe  Fe36      1.0  0.22557  0.77879  0.60015  1.0000
  S   S74       1.0  0.22013  0.83530  0.57815  1.0000
  S   S75       1.0  0.21797  0.76921  0.63666  1.0000
  H   H236      1.0  0.22457  0.88161  0.65181  1.0000
  H   H237      1.0  0.23018  0.95423  0.64875  1.0000
  C   C150      1.0  0.16733  0.95191  0.34487  1.0000
  C   C151      1.0  0.04968  0.69119  0.59070  1.0000
  C   C152      1.0  0.03755  0.69085  0.59690  1.0000
  C   C153      1.0  0.03301  0.65963  0.61213  1.0000
  C   C154      1.0  0.04053  0.62884  0.62179  1.0000
  C   C155      1.0  0.05271  0.62984  0.61612  1.0000
  C   C156      1.0  0.05721  0.66055  0.60048  1.0000
  H   H238      1.0  0.03162  0.71391  0.58940  1.0000
  H   H239      1.0  0.02357  0.65902  0.61611  1.0000
  H   H240      1.0  0.05860  0.60625  0.62319  1.0000
  H   H241      1.0  0.06658  0.66013  0.59564  1.0000
  C   C157      1.0  0.02101  0.82900  0.46423  1.0000
  C   C158      1.0  0.01479  0.84876  0.44612  1.0000
  C   C159      1.0  0.00678  0.82763  0.43354  1.0000
  C   C160      1.0  0.00515  0.78604  0.43852  1.0000
  C   C161      1.0  0.01117  0.76653  0.45693  1.0000
  C   C162      1.0  0.01898  0.78791  0.46985  1.0000
  H   H242      1.0  0.01630  0.88058  0.44167  1.0000
  H   H243      1.0  0.00218  0.84334  0.41961  1.0000
  H   H244      1.0  0.00999  0.73437  0.46096  1.0000
  H   H245      1.0  0.02374  0.77225  0.48365  1.0000
  C   C163      1.0  0.18700  0.85777  0.53532  1.0000
  C   C164      1.0  0.18958  0.81877  0.54531  1.0000
  C   C165      1.0  0.19958  0.81144  0.55878  1.0000
  C   C166      1.0  0.20718  0.84304  0.56212  1.0000
  C   C167      1.0  0.20463  0.88202  0.55203  1.0000
  C   C168      1.0  0.19456  0.88945  0.53880  1.0000
  H   H246      1.0  0.18380  0.79405  0.54266  1.0000
  H   H247      1.0  0.20145  0.78131  0.56638  1.0000
  H   H248      1.0  0.21047  0.90666  0.55450  1.0000
  H   H249      1.0  0.19269  0.91961  0.53121  1.0000
  C   C169      1.0  0.01013  0.96489  0.60742  1.0000
  C   C170      1.0  0.20117  0.82382  0.44548  1.0000
  H   H250      1.0  0.20979  0.87418  0.47571  1.0000
  H   H251      1.0  0.02245  0.78046  0.40402  1.0000
  H   H252      1.0  0.08278  0.92605  0.49705  1.0000
  H   H253      1.0  0.21853  0.88728  0.62335  1.0000
  C   C171      1.0  0.09147  0.92522  0.50416  1.0000
  C   C172      1.0  0.09306  0.90685  0.52621  1.0000
  C   C173      1.0  0.10445  0.90646  0.53516  1.0000
  C   C174      1.0  0.11410  0.92425  0.52239  1.0000
  H   H254      1.0  0.00652  0.82921  0.35364  1.0000
  C   C175      1.0  0.02071  0.95153  0.59585  1.0000
  H   H255      1.0  0.10583  0.89265  0.55222  1.0000
  C   C176      1.0  0.23232  0.95072  0.62989  1.0000
  N   N16       1.0  0.08637  0.78341  0.58629  1.0000
  C   C177      1.0  0.08280  0.78128  0.56210  1.0000
  C   C178      1.0  0.08731  0.82651  0.59200  1.0000
  C   C179      1.0  0.09798  0.76186  0.58874  1.0000
  C   C180      1.0  0.07739  0.76395  0.60226  1.0000
  H   H256      1.0  0.08180  0.74925  0.55723  1.0000
  H   H257      1.0  0.08928  0.79607  0.54950  1.0000
  H   H258      1.0  0.07411  0.79730  0.55959  1.0000
  H   H259      1.0  0.08989  0.82945  0.61015  1.0000
  H   H260      1.0  0.09398  0.84225  0.58024  1.0000
  H   H261      1.0  0.07872  0.84379  0.58997  1.0000
  H   H262      1.0  0.10097  0.76282  0.60676  1.0000
  H   H263      1.0  0.10490  0.77593  0.57683  1.0000
  H   H264      1.0  0.09753  0.72927  0.58447  1.0000
  H   H265      1.0  0.07970  0.76516  0.62069  1.0000
  H   H266      1.0  0.07639  0.73141  0.59841  1.0000
  H   H267      1.0  0.06849  0.77926  0.60056  1.0000
  N   N17       1.0  0.02239  0.80306  0.36846  1.0000
  C   C181      1.0  0.03031  0.82544  0.35158  1.0000
  H   H268      1.0  0.22673  0.60243  0.60110  1.0000
  H   H269      1.0  0.14295  0.94767  0.38440  1.0000
  C   C182      1.0  0.02057  0.76177  0.36045  1.0000
  H   H270      1.0  0.11520  0.96229  0.43677  1.0000
  H   H271      1.0  0.20689  0.90183  0.43531  1.0000
  H   H272      1.0  0.02860  0.82982  0.39882  1.0000
  H   H273      1.0  0.01438  0.64260  0.65739  1.0000
  H   H274      1.0  0.00280  0.94459  0.60975  1.0000
  H   H275      1.0  0.17224  0.90694  0.37154  1.0000
  C   C183      1.0  0.11750  0.95931  0.41789  1.0000
  H   H276      1.0  0.19975  0.79680  0.45758  1.0000
  H   H277      1.0  0.11293  0.93222  0.41235  1.0000
  S   S76       1.0  0.22698  0.71155  0.59385  1.0000
  H   H278      1.0  0.22950  0.84830  0.62952  1.0000
  C   C184      1.0  0.19728  0.89599  0.43825  1.0000
  C   C185      1.0  0.13322  0.95123  0.38825  1.0000
  H   H279      1.0  0.18045  0.82842  0.47047  1.0000
  N   N18       1.0  0.19525  0.86086  0.45478  1.0000
  S   S77       1.0  0.20957  0.64633  0.63914  1.0000
  H   H280      1.0  0.19768  0.81682  0.42847  1.0000
  H   H281      1.0  0.19569  0.89630  0.48511  1.0000
  H   H282      1.0  0.01176  0.85647  0.37709  1.0000
  H   H283      1.0  0.98477  0.80505  0.47062  1.0000
  H   H284      1.0  0.19868  0.84303  0.49026  1.0000
  H   H285      1.0  0.17830  0.84926  0.44136  1.0000
  H   H286      1.0  0.01450  0.74443  0.37283  1.0000
  H   H287      1.0  0.17776  0.88179  0.46536  1.0000
  H   H288      1.0  0.19357  0.89113  0.42111  1.0000
  C   C186      1.0  0.16925  0.93817  0.36804  1.0000
  H   H289      1.0  0.14493  0.91500  0.42358  1.0000
  H   H290      1.0  0.01651  0.76304  0.34327  1.0000
  H   H291      1.0  0.19285  0.92440  0.44467  1.0000
  C   C187      1.0  0.20011  0.86894  0.47737  1.0000
  S   S78       1.0  0.17011  0.94499  0.41550  1.0000
  H   H292      1.0  0.12903  0.92417  0.38171  1.0000
  H   H293      1.0  0.21091  0.82745  0.44286  1.0000
  C   C188      1.0  0.02782  0.79949  0.39129  1.0000
  Fe  Fe37      1.0  0.98430  0.77271  0.39152  1.0000
  S   S79       1.0  0.03413  0.58914  0.63992  1.0000
  H   H294      1.0  0.16469  0.59176  0.64326  1.0000
  Fe  Fe38      1.0  0.14425  0.96956  0.48874  1.0000
  C   C189      1.0  0.01082  0.82545  0.37061  1.0000
  C   C190      1.0  0.16740  0.96439  0.38662  1.0000
  H   H295      1.0  0.00458  0.80898  0.38288  1.0000
  C   C191      1.0  0.03020  0.97778  0.59324  1.0000
  H   H296      1.0  0.14863  0.64510  0.64623  1.0000
  H   H297      1.0  0.23102  0.91261  0.58984  1.0000
  H   H298      1.0  0.02638  0.82955  0.33431  1.0000
  H   H299      1.0  0.22422  0.95993  0.62043  1.0000
  C   C192      1.0  0.13512  0.91867  0.42632  1.0000
  C   C193      1.0  0.22677  0.88038  0.63283  1.0000
  Fe  Fe39      1.0  0.16561  0.96607  0.45260  1.0000
  H   H300      1.0  0.22403  0.56882  0.63990  1.0000
  H   H301      1.0  0.23068  0.52724  0.60661  1.0000
  S   S80       1.0  0.98699  0.75101  0.35504  1.0000
  H   H302      1.0  0.13312  0.92065  0.44533  1.0000
  H   H303      1.0  0.13113  0.89044  0.42086  1.0000
  C   C194      1.0  0.10108  0.94351  0.49151  1.0000
  H   H304      1.0  0.16889  0.93132  0.33088  1.0000
  H   H305      1.0  0.14395  0.57187  0.65316  1.0000
  S   S81       1.0  0.17907  0.96945  0.48021  1.0000
  H   H306      1.0  0.03842  0.96771  0.58454  1.0000
  S   S82       1.0  0.15602  0.97312  0.51911  1.0000
  H   H307      1.0  0.09964  0.95832  0.47472  1.0000
  H   H308      1.0  0.13003  0.97860  0.37793  1.0000
  S   S83       1.0  0.15688  0.54351  0.96515  1.0000
  S   S84       1.0  0.17907  0.48655  0.98417  1.0000
  H   H309      1.0  0.98599  0.76076  0.92878  1.0000
  H   H310      1.0  0.17280  0.61700  0.66403  1.0000
  S   S85       1.0  0.99566  0.67857  0.91252  1.0000
  S   S86       1.0  0.15423  0.53384  0.75611  1.0000
  Fe  Fe40      1.0  0.17205  0.52993  0.73751  1.0000
  S   S87       1.0  0.18189  0.58927  0.73346  1.0000
  S   S88       1.0  0.05289  0.55386  0.69451  1.0000
  H   H311      1.0  0.18350  0.63256  0.80960  1.0000
  C   C195      1.0  0.09531  0.51830  0.70358  1.0000
  Fe  Fe41      1.0  0.03809  0.52853  0.71800  1.0000
  S   S89       1.0  0.03262  0.57086  0.74728  1.0000
  C   C196      1.0  0.15665  0.60923  0.69956  1.0000
  S   S90       1.0  0.13048  0.51970  0.71704  1.0000
  C   C197      1.0  0.19012  0.60398  0.70762  1.0000
  C   C198      1.0  0.19484  0.64307  0.70533  1.0000
  C   C199      1.0  0.20106  0.65628  0.68469  1.0000
  H   H312      1.0  0.16334  0.63233  0.70245  1.0000
  H   H313      1.0  0.10026  0.51823  0.78671  1.0000
  C   C200      1.0  0.19182  0.57795  0.68919  1.0000
  H   H314      1.0  0.19363  0.66342  0.71951  1.0000
  H   H315      1.0  0.03069  0.60298  0.69297  1.0000
  H   H316      1.0  0.18841  0.54755  0.69085  1.0000
  C   C201      1.0  0.99960  0.56814  0.79748  1.0000
  C   C202      1.0  0.00712  0.60114  0.79646  1.0000
  C   C203      1.0  0.01721  0.60135  0.78104  1.0000
  C   C204      1.0  0.01978  0.56899  0.76626  1.0000
  C   C205      1.0  0.01214  0.53643  0.76696  1.0000
  C   C206      1.0  0.00216  0.53590  0.78263  1.0000
  H   H317      1.0  0.00525  0.62622  0.80770  1.0000
  H   H318      1.0  0.02305  0.62676  0.78055  1.0000
  H   H319      1.0  0.01343  0.63290  0.73154  1.0000
  H   H320      1.0  0.01253  0.59409  0.67218  1.0000
  C   C207      1.0  0.01967  0.60539  0.96286  1.0000
  C   C208      1.0  0.01229  0.58506  0.94861  1.0000
  C   C209      1.0  0.00456  0.60704  0.93376  1.0000
  C   C210      1.0  0.00441  0.64965  0.93250  1.0000
  C   C211      1.0  0.01168  0.67001  0.94692  1.0000
  C   C212      1.0  0.01920  0.64803  0.96219  1.0000
  H   H321      1.0  0.01254  0.55208  0.94917  1.0000
  H   H322      1.0  0.99880  0.59108  0.92321  1.0000
  H   H323      1.0  0.01161  0.70297  0.94615  1.0000
  C   C213      1.0  0.16585  0.59429  0.66216  1.0000
  H   H324      1.0  0.10133  0.55010  0.97170  1.0000
  H   H325      1.0  0.17429  0.52582  0.80514  1.0000
  H   H326      1.0  0.18931  0.52809  0.83564  1.0000
  H   H327      1.0  0.10859  0.56284  0.70735  1.0000
  H   H328      1.0  0.12519  0.53494  0.76587  1.0000
  C   C214      1.0  0.00997  0.62173  0.71537  1.0000
  H   H329      1.0  0.19490  0.54926  0.77241  1.0000
  H   H330      1.0  0.15073  0.49754  0.90060  1.0000
  H   H331      1.0  0.99945  0.52925  0.86457  1.0000
  H   H332      1.0  0.01654  0.62346  0.85604  1.0000
  H   H333      1.0  0.13784  0.65320  0.97832  1.0000
  H   H334      1.0  0.20578  0.55097  0.79394  1.0000
  H   H335      1.0  0.01414  0.54116  0.83273  1.0000
  H   H336      1.0  0.03205  0.58413  0.87771  1.0000
  H   H337      1.0  0.16006  0.57976  0.70727  1.0000
  H   H338      1.0  0.19943  0.56900  0.83445  1.0000
  C   C215      1.0  0.15172  0.49072  0.86332  1.0000
  C   C216      1.0  0.19030  0.56091  0.83045  1.0000
  Fe  Fe42      1.0  0.04131  0.53980  0.66553  1.0000
  Fe  Fe43      1.0  0.14442  0.50043  0.98451  1.0000
  Fe  Fe44      1.0  0.06016  0.48919  0.69264  1.0000
  H   H339      1.0  0.14178  0.65619  0.67412  1.0000
  H   H340      1.0  0.00295  0.59984  0.85059  1.0000
  N   N19       1.0  0.18805  0.56909  0.80561  1.0000
  H   H341      1.0  0.17366  0.56581  0.78294  1.0000
  H   H342      1.0  0.19891  0.62166  0.80223  1.0000
  C   C217      1.0  0.19640  0.54393  0.79128  1.0000
  C   C218      1.0  0.01046  0.62735  0.67349  1.0000
  C   C219      1.0  0.15025  0.64622  0.66505  1.0000
  H   H343      1.0  0.99280  0.76779  0.88763  1.0000
  H   H344      1.0  0.02134  0.57487  0.90108  1.0000
  H   H345      1.0  0.99000  0.82952  0.91089  1.0000
  C   C220      1.0  0.11607  0.50189  0.71244  1.0000
  H   H346      1.0  0.00067  0.63202  0.67339  1.0000
  S   S91       1.0  0.16569  0.49167  0.70977  1.0000
  H   H347      1.0  0.00015  0.62599  0.71649  1.0000
  C   C221      1.0  0.02831  0.63596  0.69378  1.0000
  C   C222      1.0  0.00668  0.53163  0.87687  1.0000
  H   H348      1.0  0.03268  0.65136  0.67818  1.0000
  S   S92       1.0  0.02626  0.51624  0.68925  1.0000
  H   H349      1.0  0.02489  0.66403  0.97295  1.0000
  H   H350      1.0  0.15681  0.67024  0.66695  1.0000
  H   H351      1.0  0.19536  0.51078  0.79553  1.0000
  H   H352      1.0  0.08836  0.54083  0.69981  1.0000
  H   H353      1.0  0.99643  0.51016  0.78336  1.0000
  N   N20       1.0  0.01572  0.56026  0.86749  1.0000
  H   H354      1.0  0.14832  0.61757  0.70964  1.0000
  C   C223      1.0  0.01004  0.60099  0.86323  1.0000
  H   H355      1.0  0.16917  0.57593  0.81248  1.0000
  H   H356      1.0  0.14240  0.49810  0.86152  1.0000
  C   C224      1.0  0.10683  0.53066  0.70783  1.0000
  H   H357      1.0  0.01060  0.50045  0.88010  1.0000
  C   C225      1.0  0.02105  0.54535  0.84542  1.0000
  C   C226      1.0  0.15643  0.49042  0.88561  1.0000
  H   H358      1.0  0.00249  0.54172  0.89359  1.0000
  N   N21       1.0  0.11758  0.48938  0.78949  1.0000
  H   H359      1.0  0.11882  0.55407  0.79251  1.0000
  H   H360      1.0  0.18813  0.61962  0.78054  1.0000
  H   H361      1.0  0.02579  0.51534  0.84810  1.0000
  H   H362      1.0  0.01401  0.51133  0.75571  1.0000
  C   C227      1.0  0.17576  0.55878  0.80135  1.0000
  C   C228      1.0  0.02504  0.56307  0.88437  1.0000
  S   S93       1.0  0.03002  0.57624  0.97952  1.0000
  C   C229      1.0  0.12385  0.52784  0.78485  1.0000
  S   S94       1.0  0.12490  0.51905  0.97950  1.0000
  S   S95       1.0  0.98526  0.67186  0.85058  1.0000
  C   C230      1.0  0.18973  0.61269  0.79927  1.0000
  Fe  Fe45      1.0  0.16708  0.48752  0.95345  1.0000
  H   H363      1.0  0.20456  0.68656  0.68307  1.0000
  H   H364      1.0  0.13638  0.59897  0.97949  1.0000
  H   H365      1.0  0.03229  0.64673  0.70955  1.0000
  H   H366      1.0  0.18395  0.57850  0.84185  1.0000
  H   H367      1.0  0.02938  0.53279  0.88840  1.0000
  N   N22       1.0  0.15461  0.60623  0.67462  1.0000
  C   C231      1.0  0.10164  0.54183  0.99003  1.0000
  H   H368      1.0  0.02747  0.56712  0.83711  1.0000
  H   H369      1.0  0.00591  0.61323  0.87952  1.0000
  H   H370      1.0  0.00278  0.69385  0.69593  1.0000
  H   H371      1.0  0.01208  0.58832  0.71542  1.0000
  Fe  Fe46      1.0  0.14799  0.49166  0.73021  1.0000
  S   S96       1.0  0.98743  0.56408  0.81802  1.0000
  H   H372      1.0  0.01645  0.70419  0.67977  1.0000
  N   N23       1.0  0.01531  0.64309  0.69449  1.0000
  H   H373      1.0  0.16940  0.56423  0.66898  1.0000
  H   H374      1.0  0.14933  0.62044  0.99026  1.0000
  H   H375      1.0  0.13708  0.58316  0.68099  1.0000
  H   H376      1.0  0.01611  0.70012  0.71095  1.0000
  H   H377      1.0  0.10670  0.49937  0.76009  1.0000
  C   C232      1.0  0.13954  0.62483  0.98908  1.0000
  C   C233      1.0  0.10583  0.49302  0.77922  1.0000
  C   C234      1.0  0.20251  0.63057  0.66606  1.0000
  C   C235      1.0  0.14569  0.57524  0.67175  1.0000
  C   C236      1.0  0.19789  0.59133  0.66847  1.0000
  H   H378      1.0  0.14866  0.54471  0.67899  1.0000
  H   H379      1.0  0.13277  0.52601  0.79234  1.0000
  H   H380      1.0  0.11087  0.50591  0.82343  1.0000
  C   C237      1.0  0.01252  0.68731  0.69533  1.0000
  C   C238      1.0  0.98337  0.77228  0.88305  1.0000
  C   C239      1.0  0.47038  0.09969  0.06514  1.0000
  S   S97       1.0  0.24029  0.19128  0.13893  1.0000
  S   S98       1.0  0.24338  0.12661  0.08191  1.0000
  Fe  Fe47      1.0  0.24278  0.25785  0.12966  1.0000
  S   S99       1.0  0.25919  0.29388  0.13667  1.0000
  S   S100      1.0  0.24108  0.24823  0.09163  1.0000
  S   S101      1.0  0.42433  0.42216  0.16695  1.0000
  Fe  Fe48      1.0  0.23723  0.18336  0.10130  1.0000
  H   H381      1.0  0.46741  0.14116  0.21117  1.0000
  Fe  Fe49      1.0  0.46803  0.21851  0.14669  1.0000
  S   S102      1.0  0.46193  0.15787  0.16175  1.0000
  S   S103      1.0  0.46399  0.27614  0.16744  1.0000
  H   H382      1.0  0.27679  0.20869  0.08612  1.0000
  Fe  Fe50      1.0  0.48113  0.13702  0.15734  1.0000
  Fe  Fe51      1.0  0.46016  0.13900  0.12518  1.0000
  S   S104      1.0  0.44405  0.11208  0.10991  1.0000
  H   H383      1.0  0.27882  0.22754  0.14860  1.0000
  S   S105      1.0  0.46472  0.20150  0.11041  1.0000
  Fe  Fe52      1.0  0.28749  0.42693  0.23573  1.0000
  H   H384      1.0  0.29381  0.15326  0.13193  1.0000
  S   S106      1.0  0.27560  0.37422  0.22836  1.0000
  H   H385      1.0  0.47848  0.13835  0.23221  1.0000
  S   S107      1.0  0.33210  0.44685  0.24360  1.0000
  C   C240      1.0  0.46000  0.16339  0.05558  1.0000
  S   S108      1.0  0.30034  0.42253  0.26440  1.0000
  H   H386      1.0  0.46739  0.14689  0.01205  1.0000
  H   H387      1.0  0.38407  0.36291  0.16183  1.0000
  C   C241      1.0  0.27178  0.14729  0.11727  1.0000
  C   C242      1.0  0.43190  0.04979  0.09288  1.0000
  C   C243      1.0  0.44212  0.06023  0.10390  1.0000
  C   C244      1.0  0.45054  0.02951  0.10950  1.0000
  C   C245      1.0  0.32966  0.39526  0.29754  1.0000
  H   H388      1.0  0.29367  0.16760  0.10151  1.0000
  H   H389      1.0  0.42533  0.07332  0.08848  1.0000
  H   H390      1.0  0.45843  0.03701  0.11805  1.0000
  H   H391      1.0  0.24125  0.19927  0.04785  1.0000
  C   C246      1.0  0.43560  0.38228  0.16722  1.0000
  C   C247      1.0  0.44511  0.38162  0.18193  1.0000
  C   C248      1.0  0.45367  0.34905  0.18165  1.0000
  C   C249      1.0  0.45293  0.31669  0.16664  1.0000
  C   C250      1.0  0.44344  0.31736  0.15192  1.0000
  C   C251      1.0  0.43485  0.34984  0.15227  1.0000
  H   H392      1.0  0.44586  0.40619  0.19352  1.0000
  H   H393      1.0  0.46096  0.34910  0.19308  1.0000
  H   H394      1.0  0.44270  0.29286  0.14028  1.0000
  H   H395      1.0  0.42759  0.34987  0.14077  1.0000
  H   H396      1.0  0.39649  0.40207  0.18693  1.0000
  N   N24       1.0  0.47079  0.19852  0.22565  1.0000
  H   H397      1.0  0.46306  0.14424  0.24135  1.0000
  C   C252      1.0  0.29084  0.17756  0.11919  1.0000
  C   C253      1.0  0.25589  0.11245  0.06372  1.0000
  C   C254      1.0  0.25716  0.07185  0.05702  1.0000
  C   C255      1.0  0.26689  0.05882  0.04264  1.0000
  C   C256      1.0  0.27551  0.08635  0.03470  1.0000
  C   C257      1.0  0.27420  0.12711  0.04129  1.0000
  C   C258      1.0  0.26443  0.14018  0.05564  1.0000
  H   H398      1.0  0.25059  0.05015  0.06308  1.0000
  H   H399      1.0  0.26776  0.02742  0.03775  1.0000
  H   H400      1.0  0.28079  0.14869  0.03512  1.0000
  H   H401      1.0  0.26350  0.17161  0.06036  1.0000
  C   C259      1.0  0.27143  0.35168  0.20261  1.0000
  C   C260      1.0  0.26205  0.32445  0.20415  1.0000
  C   C261      1.0  0.25803  0.30710  0.18418  1.0000
  C   C262      1.0  0.26348  0.31627  0.16237  1.0000
  C   C263      1.0  0.27293  0.34326  0.16083  1.0000
  C   C264      1.0  0.27684  0.36109  0.18076  1.0000
  H   H402      1.0  0.25778  0.31695  0.22093  1.0000
  H   H403      1.0  0.25080  0.28629  0.18573  1.0000
  H   H404      1.0  0.27726  0.35045  0.14408  1.0000
  H   H405      1.0  0.28410  0.38173  0.17924  1.0000
  N   N25       1.0  0.32622  0.42585  0.31483  1.0000
  H   H406      1.0  0.45399  0.16013  0.07140  1.0000
  H   H407      1.0  0.35708  0.43273  0.24954  1.0000
  H   H408      1.0  0.24322  0.22791  0.02073  1.0000
  H   H409      1.0  0.45204  0.20978  0.23222  1.0000
  C   C265      1.0  0.37910  0.46509  0.15349  1.0000
  H   H410      1.0  0.26482  0.20479  0.14735  1.0000
  H   H411      1.0  0.37144  0.46873  0.16624  1.0000
  C   C266      1.0  0.37890  0.39164  0.15773  1.0000
  H   H412      1.0  0.31777  0.46726  0.29036  1.0000
  H   H413      1.0  0.29570  0.20557  0.12226  1.0000
  H   H414      1.0  0.46723  0.20635  0.26208  1.0000
  N   N26       1.0  0.38629  0.42761  0.15886  1.0000
  C   C267      1.0  0.45345  0.10067  0.04127  1.0000
  C   C268      1.0  0.32491  0.46651  0.30294  1.0000
  C   C269      1.0  0.47191  0.12911  0.02613  1.0000
  H   H415      1.0  0.38325  0.43104  0.19583  1.0000
  S   S109      1.0  0.28800  0.07132  0.01666  1.0000
  H   H416      1.0  0.39602  0.45641  0.18397  1.0000
  H   H417      1.0  0.25335  0.40577  0.19563  1.0000
  H   H418      1.0  0.27136  0.46127  0.16781  1.0000
  C   C270      1.0  0.46987  0.15369  0.22778  1.0000
  H   H419      1.0  0.44727  0.09624  0.05681  1.0000
  Fe  Fe53      1.0  0.31220  0.46365  0.24178  1.0000
  H   H420      1.0  0.46766  0.18122  0.06019  1.0000
  C   C271      1.0  0.36645  0.47733  0.22762  1.0000
  H   H421      1.0  0.37544  0.38945  0.14014  1.0000
  H   H422      1.0  0.27242  0.44404  0.19760  1.0000
  H   H423      1.0  0.26462  0.22380  0.10539  1.0000
  C   C272      1.0  0.44859  0.98870  0.10459  1.0000
  Fe  Fe54      1.0  0.29199  0.00789  0.00263  1.0000
  H   H424      1.0  0.45665  0.20727  0.20211  1.0000
  H   H425      1.0  0.25360  0.42198  0.16555  1.0000
  H   H426      1.0  0.40229  0.45116  0.14242  1.0000
  N   N27       1.0  0.46393  0.12319  0.04700  1.0000
  C   C273      1.0  0.23661  0.21952  0.03492  1.0000
  C   C274      1.0  0.27454  0.19859  0.14505  1.0000
  H   H427      1.0  0.46468  0.09498  0.08123  1.0000
  H   H428      1.0  0.27382  0.12271  0.13054  1.0000
  H   H429      1.0  0.24066  0.43206  0.18414  1.0000
  C   C275      1.0  0.27435  0.21744  0.10416  1.0000
  H   H430      1.0  0.47988  0.14608  0.03017  1.0000
  S   S110      1.0  0.47876  0.11287  0.12184  1.0000
  H   H431      1.0  0.40220  0.39690  0.14560  1.0000
  C   C276      1.0  0.39067  0.42915  0.18247  1.0000
  H   H432      1.0  0.42199  0.00140  0.07965  1.0000
  H   H433      1.0  0.39357  0.42338  0.12382  1.0000
  H   H434      1.0  0.45967  0.25134  0.21734  1.0000
  H   H435      1.0  0.37113  0.39314  0.17039  1.0000
  H   H436      1.0  0.32287  0.39397  0.28430  1.0000
  H   H437      1.0  0.23701  0.16976  0.99932  1.0000
  H   H438      1.0  0.37514  0.46641  0.23269  1.0000
  H   H439      1.0  0.33814  0.40282  0.28790  1.0000
  C   C277      1.0  0.48003  0.20926  0.20760  1.0000
  H   H440      1.0  0.37556  0.46508  0.13587  1.0000
  H   H441      1.0  0.30746  0.41622  0.31478  1.0000
  H   H442      1.0  0.47802  0.19718  0.19068  1.0000
  Fe  Fe55      1.0  0.29175  0.48008  0.27784  1.0000
  C   C278      1.0  0.42998  0.00902  0.08783  1.0000
  H   H443      1.0  0.48067  0.24290  0.20476  1.0000
  S   S111      1.0  0.28621  0.47790  0.31700  1.0000
  H   H444      1.0  0.27444  0.13551  0.09994  1.0000
  H   H445      1.0  0.26197  0.15227  0.11774  1.0000
  H   H446      1.0  0.27857  0.24678  0.10705  1.0000
  H   H447      1.0  0.44836  0.11742  0.02759  1.0000
  N   N28       1.0  0.27787  0.18519  0.12143  1.0000
  H   H448      1.0  0.47342  0.06907  0.05938  1.0000
  H   H449      1.0  0.45602  0.06993  0.03505  1.0000
  H   H450      1.0  0.27708  0.17523  0.15865  1.0000
  C   C279      1.0  0.39649  0.42458  0.14187  1.0000
  C   C280      1.0  0.45927  0.21748  0.21917  1.0000
  H   H451      1.0  0.45509  0.18199  0.04237  1.0000
  C   C281      1.0  0.25053  0.43083  0.18329  1.0000
  C   C282      1.0  0.35617  0.45838  0.23723  1.0000
  C   C283      1.0  0.47404  0.21371  0.24807  1.0000
  H   H452      1.0  0.47836  0.11574  0.06988  1.0000
  C   C284      1.0  0.34475  0.47239  0.23113  1.0000
  H   H453      1.0  0.47513  0.09944  0.01922  1.0000
  H   H454      1.0  0.47490  0.24742  0.24691  1.0000
  H   H455      1.0  0.33075  0.36416  0.30579  1.0000
  H   H456      1.0  0.33320  0.47509  0.29289  1.0000
  S   S112      1.0  0.30003  0.46271  0.21191  1.0000
  C   C285      1.0  0.25201  0.47813  0.21362  1.0000
  C   C286      1.0  0.26843  0.46811  0.18594  1.0000
  N   N29       1.0  0.25536  0.47006  0.18914  1.0000
  H   H457      1.0  0.24221  0.47999  0.21675  1.0000
  H   H458      1.0  0.34419  0.43507  0.32335  1.0000
  H   H459      1.0  0.23539  0.14050  0.02630  1.0000
  H   H460      1.0  0.25559  0.45354  0.22561  1.0000
  H   H461      1.0  0.48268  0.19978  0.25344  1.0000
  C   C287      1.0  0.31484  0.41495  0.32691  1.0000
  S   S113      1.0  0.27799  0.48209  0.25045  1.0000
  H   H462      1.0  0.23373  0.24809  0.04354  1.0000
  Fe  Fe56      1.0  0.42113  0.48292  0.18514  1.0000
  H   H463      1.0  0.28562  0.46470  0.40258  1.0000
  H   H464      1.0  0.33253  0.38389  0.57408  1.0000
  H   H465      1.0  0.46206  0.40968  0.56172  1.0000
  H   H466      1.0  0.32063  0.37766  0.59569  1.0000
  S   S114      1.0  0.24470  0.31334  0.57435  1.0000
  H   H467      1.0  0.24741  0.25703  0.48696  1.0000
  Fe  Fe57      1.0  0.47060  0.34955  0.62919  1.0000
  S   S115      1.0  0.46745  0.29126  0.61183  1.0000
  S   S116      1.0  0.46534  0.41193  0.61270  1.0000
  H   H468      1.0  0.23548  0.17230  0.52556  1.0000
  H   H469      1.0  0.40489  0.13264  0.64397  1.0000
  C   C288      1.0  0.47892  0.41031  0.52724  1.0000
  N   N30       1.0  0.40260  0.06793  0.64496  1.0000
  H   H470      1.0  0.38974  0.11753  0.64747  1.0000
  Fe  Fe58      1.0  0.29369  0.44485  0.50009  1.0000
  H   H471      1.0  0.32724  0.45773  0.56921  1.0000
  S   S117      1.0  0.29021  0.38046  0.51559  1.0000
  Fe  Fe59      1.0  0.23707  0.25762  0.59493  1.0000
  H   H472      1.0  0.31531  0.38366  0.33513  1.0000
  H   H473      1.0  0.25618  0.25787  0.52523  1.0000
  H   H474      1.0  0.23859  0.30184  0.51785  1.0000
  H   H475      1.0  0.39757  0.11468  0.61968  1.0000
  S   S118      1.0  0.31130  0.45434  0.48040  1.0000
  H   H476      1.0  0.38507  0.04399  0.64692  1.0000
  H   H477      1.0  0.27834  0.45313  0.36353  1.0000
  H   H478      1.0  0.47334  0.40224  0.51290  1.0000
  H   H479      1.0  0.41768  0.02787  0.63748  1.0000
  H   H480      1.0  0.32845  0.41490  0.53514  1.0000
  C   C289      1.0  0.30293  0.39985  0.56781  1.0000
  H   H481      1.0  0.32151  0.34673  0.57075  1.0000
  H   H482      1.0  0.30099  0.36930  0.56162  1.0000
  H   H483      1.0  0.24637  0.20259  0.49068  1.0000
  H   H484      1.0  0.47603  0.44151  0.53243  1.0000
  H   H485      1.0  0.31727  0.37779  0.53179  1.0000
  C   C290      1.0  0.45158  0.43916  0.60942  1.0000
  C   C291      1.0  0.44107  0.42730  0.62128  1.0000
  H   H486      1.0  0.31228  0.43621  0.34086  1.0000
  C   C292      1.0  0.39391  0.03895  0.63783  1.0000
  H   H487      1.0  0.46268  0.14988  0.63760  1.0000
  C   C293      1.0  0.33551  0.42676  0.33193  1.0000
  H   H488      1.0  0.44113  0.40027  0.63274  1.0000
  C   C294      1.0  0.46539  0.37924  0.55602  1.0000
  Fe  Fe60      1.0  0.46672  0.26001  0.64771  1.0000
  H   H489      1.0  0.45946  0.36962  0.54264  1.0000
  H   H490      1.0  0.48239  0.42267  0.57237  1.0000
  C   C295      1.0  0.31895  0.40789  0.53886  1.0000
  C   C296      1.0  0.45291  0.09649  0.64933  1.0000
  H   H491      1.0  0.46437  0.35764  0.57140  1.0000
  C   C297      1.0  0.45588  0.13793  0.64965  1.0000
  C   C298      1.0  0.32290  0.37788  0.57671  1.0000
  C   C299      1.0  0.27758  0.36270  0.53238  1.0000
  C   C300      1.0  0.26727  0.38702  0.53580  1.0000
  C   C301      1.0  0.25739  0.37137  0.54881  1.0000
  C   C302      1.0  0.25768  0.33142  0.55882  1.0000
  C   C303      1.0  0.26806  0.30725  0.55570  1.0000
  C   C304      1.0  0.27790  0.32275  0.54244  1.0000
  H   H492      1.0  0.26685  0.41776  0.52821  1.0000
  H   H493      1.0  0.24944  0.39042  0.55111  1.0000
  H   H494      1.0  0.26850  0.27662  0.56342  1.0000
  H   H495      1.0  0.28582  0.30363  0.53997  1.0000
  C   C305      1.0  0.39851  0.11009  0.63873  1.0000
  H   H496      1.0  0.42109  0.08042  0.63824  1.0000
  H   H497      1.0  0.25480  0.20359  0.52975  1.0000
  N   N31       1.0  0.31563  0.40884  0.56391  1.0000
  H   H498      1.0  0.48125  0.31629  0.55427  1.0000
  S   S119      1.0  0.24124  0.18978  0.59383  1.0000
  C   C306      1.0  0.25006  0.23361  0.53169  1.0000
  H   H499      1.0  0.31247  0.47387  0.56277  1.0000
  N   N32       1.0  0.47788  0.38040  0.54713  1.0000
  H   H500      1.0  0.33675  0.39657  0.34123  1.0000
  H   H501      1.0  0.31369  0.43104  0.52880  1.0000
  C   C307      1.0  0.31776  0.44971  0.57220  1.0000
  H   H502      1.0  0.33317  0.44957  0.34524  1.0000
  H   H503      1.0  0.42245  0.44184  0.62810  1.0000
  C   C308      1.0  0.43050  0.45098  0.61864  1.0000
  H   H504      1.0  0.41380  0.06242  0.61388  1.0000
  C   C309      1.0  0.41427  0.05936  0.63308  1.0000
  H   H505      1.0  0.29720  0.42240  0.55816  1.0000
  H   H506      1.0  0.23343  0.23367  0.48425  1.0000
  H   H507      1.0  0.30005  0.40044  0.58650  1.0000
  Fe  Fe61      1.0  0.23630  0.18752  0.63228  1.0000
  H   H508      1.0  0.45750  0.07706  0.63693  1.0000
  H   H509      1.0  0.47645  0.32922  0.52561  1.0000
  H   H510      1.0  0.24834  0.23768  0.55060  1.0000
  H   H511      1.0  0.39272  0.04155  0.61881  1.0000
  C   C310      1.0  0.45133  0.47452  0.59466  1.0000
  H   H512      1.0  0.39673  0.00682  0.64231  1.0000
  N   N33       1.0  0.23891  0.23616  0.51925  1.0000
  C   C311      1.0  0.24165  0.23219  0.49416  1.0000
  H   H513      1.0  0.31540  0.45173  0.59104  1.0000
  C   C312      1.0  0.29008  0.47819  0.38724  1.0000
  C   C313      1.0  0.48188  0.33955  0.53961  1.0000
  C   C314      1.0  0.28596  0.47167  0.36500  1.0000
  S   S120      1.0  0.24299  0.13707  0.65787  1.0000
  H   H514      1.0  0.26445  0.08181  0.80664  1.0000
  C   C315      1.0  0.43821  0.10581  0.68057  1.0000
  C   C316      1.0  0.26362  0.10906  0.79446  1.0000
  H   H515      1.0  0.26593  0.03884  0.77267  1.0000
  H   H516      1.0  0.43647  0.16694  0.69299  1.0000
  S   S121      1.0  0.30601  0.01921  0.76056  1.0000
  H   H517      1.0  0.28407  0.06511  0.78764  1.0000
  Fe  Fe62      1.0  0.29441  0.01985  0.72962  1.0000
  S   S122      1.0  0.28978  0.08103  0.71089  1.0000
  H   H518      1.0  0.46996  0.00257  0.75721  1.0000
  C   C317      1.0  0.27626  0.13387  0.68358  1.0000
  H   H519      1.0  0.25577  0.07276  0.75744  1.0000
  H   H520      1.0  0.33820  0.01379  0.92189  1.0000
  H   H521      1.0  0.28810  0.08869  0.75984  1.0000
  H   H522      1.0  0.27012  0.06084  0.74450  1.0000
  C   C318      1.0  0.26526  0.06708  0.76126  1.0000
  C   C319      1.0  0.26905  0.13882  0.75643  1.0000
  C   C320      1.0  0.25708  0.08315  0.68310  1.0000
  N   N34       1.0  0.27019  0.10213  0.77213  1.0000
  C   C321      1.0  0.33228  0.98787  0.92605  1.0000
  S   S123      1.0  0.45318  0.21680  0.66641  1.0000
  C   C322      1.0  0.26733  0.06974  0.69468  1.0000
  C   C323      1.0  0.27697  0.09516  0.69513  1.0000
  H   H523      1.0  0.45071  0.26680  0.73563  1.0000
  H   H524      1.0  0.28365  0.15385  0.68383  1.0000
  H   H525      1.0  0.26772  0.03981  0.70330  1.0000
  S   S124      1.0  0.30870  0.99753  0.97985  1.0000
  H   H526      1.0  0.26707  0.13541  0.80313  1.0000
  H   H527      1.0  0.39509  0.06950  0.67996  1.0000
  C   C324      1.0  0.26607  0.14703  0.67168  1.0000
  H   H528      1.0  0.27401  0.13442  0.73949  1.0000
  H   H529      1.0  0.46906  0.04121  0.73413  1.0000
  C   C325      1.0  0.28285  0.09331  0.77638  1.0000
  N   N35       1.0  0.46185  0.98390  0.72675  1.0000
  C   C326      1.0  0.44114  0.14734  0.68079  1.0000
  H   H530      1.0  0.27266  0.16598  0.76403  1.0000
  H   H531      1.0  0.47587  0.24888  0.69318  1.0000
  H   H532      1.0  0.25401  0.11536  0.79194  1.0000
  C   C327      1.0  0.46947  0.22043  0.74948  1.0000
  C   C328      1.0  0.45645  0.25293  0.72169  1.0000
  H   H533      1.0  0.46600  0.18992  0.74653  1.0000
  H   H534      1.0  0.32447  0.99960  0.93657  1.0000
  H   H535      1.0  0.43141  0.09386  0.69259  1.0000
  C   C329      1.0  0.25637  0.12179  0.67148  1.0000
  C   C330      1.0  0.28234  0.98826  0.86186  1.0000
  C   C331      1.0  0.44404  0.08005  0.66470  1.0000
  H   H536      1.0  0.25964  0.14603  0.75251  1.0000
  C   C332      1.0  0.47056  0.00795  0.73799  1.0000
  H   H537      1.0  0.28684  0.11871  0.78497  1.0000
  H   H538      1.0  0.40656  0.03169  0.67552  1.0000
  H   H539      1.0  0.46417  0.23345  0.76429  1.0000
  S   S125      1.0  0.28448  0.98537  0.81390  1.0000
  H   H540      1.0  0.24964  0.06336  0.68307  1.0000
  H   H541      1.0  0.45573  0.27305  0.70570  1.0000
  H   H542      1.0  0.45267  0.22332  0.71777  1.0000
  C   C333      1.0  0.36040  0.99195  0.69997  1.0000
  H   H543      1.0  0.26567  0.17687  0.66294  1.0000
  H   H544      1.0  0.44858  0.98945  0.75466  1.0000
  H   H545      1.0  0.34146  0.00105  0.70706  1.0000
  H   H546      1.0  0.47272  0.19907  0.70492  1.0000
  C   C334      1.0  0.44974  0.99561  0.73555  1.0000
  S   S126      1.0  0.46822  0.32002  0.66510  1.0000
  H   H547      1.0  0.44758  0.02845  0.73165  1.0000
  C   C335      1.0  0.44998  0.16385  0.66532  1.0000
  S   S127      1.0  0.44062  0.02744  0.66302  1.0000
  C   C336      1.0  0.46288  0.99205  0.70132  1.0000
  H   H548      1.0  0.34881  0.99339  0.95751  1.0000
  N   N36       1.0  0.46889  0.24753  0.72837  1.0000
  H   H549      1.0  0.47193  0.98406  0.69405  1.0000
  H   H550      1.0  0.41037  0.08404  0.67643  1.0000
  H   H551      1.0  0.46089  0.02473  0.69649  1.0000
  H   H552      1.0  0.47980  0.99965  0.73187  1.0000
  H   H553      1.0  0.46835  0.30271  0.74718  1.0000
  C   C337      1.0  0.40372  0.06334  0.67034  1.0000
  H   H554      1.0  0.27358  0.00128  0.85892  1.0000
  H   H555      1.0  0.28031  0.99182  0.89928  1.0000
  H   H556      1.0  0.36070  0.01429  0.68560  1.0000
  C   C338      1.0  0.47358  0.28763  0.73299  1.0000
  H   H557      1.0  0.47344  0.30866  0.71727  1.0000
  C   C339      1.0  0.47609  0.22907  0.70926  1.0000
  S   S128      1.0  0.41673  0.98761  0.71304  1.0000
  H   H558      1.0  0.47878  0.21575  0.75486  1.0000
  C   C340      1.0  0.34945  0.98452  0.71213  1.0000
  H   H559      1.0  0.48299  0.28472  0.73799  1.0000
  Fe  Fe63      1.0  0.39829  0.53088  0.20028  1.0000
  S   S129      1.0  0.40870  0.52693  0.16603  1.0000
  H   H560      1.0  0.43514  0.65656  0.25544  1.0000
  Fe  Fe64      1.0  0.42130  0.53876  0.22634  1.0000
  S   S130      1.0  0.43301  0.53355  0.19382  1.0000
  S   S131      1.0  0.42691  0.54976  0.26307  1.0000
  Fe  Fe65      1.0  0.41955  0.57749  0.17742  1.0000
  S   S132      1.0  0.42626  0.63534  0.15790  1.0000
  H   H561      1.0  0.41648  0.71742  0.21444  1.0000
  S   S133      1.0  0.40843  0.58457  0.21043  1.0000
  C   C341      1.0  0.42784  0.66459  0.24361  1.0000
  Fe  Fe66      1.0  0.31098  0.93849  0.00074  1.0000
  C   C342      1.0  0.34255  0.91255  0.01741  1.0000
  S   S134      1.0  0.25223  0.79130  0.10038  1.0000
  H   H562      1.0  0.42561  0.70647  0.18887  1.0000
  C   C343      1.0  0.46903  0.92080  0.02239  1.0000
  H   H563      1.0  0.23714  0.84989  0.13147  1.0000
  S   S135      1.0  0.26961  0.87528  0.00312  1.0000
  Fe  Fe67      1.0  0.39634  0.89666  0.04954  1.0000
  S   S136      1.0  0.40376  0.87350  0.08354  1.0000
  S   S137      1.0  0.37822  0.93073  0.05103  1.0000
  Fe  Fe68      1.0  0.41890  0.86772  0.02159  1.0000
  S   S138      1.0  0.42718  0.83990  0.05351  1.0000
  Fe  Fe69      1.0  0.40911  0.81714  0.06445  1.0000
  S   S139      1.0  0.40299  0.75589  0.08068  1.0000
  Fe  Fe70      1.0  0.42123  0.89858  0.07000  1.0000
  S   S140      1.0  0.43616  0.92608  0.08876  1.0000
  S   S141      1.0  0.40116  0.83980  0.03059  1.0000
  S   S142      1.0  0.41339  0.92681  0.03799  1.0000
  S   S143      1.0  0.47109  0.64136  0.29883  1.0000
  S   S144      1.0  0.30402  0.52128  0.25625  1.0000
  H   H564      1.0  0.33669  0.96697  0.03450  1.0000
  Fe  Fe71      1.0  0.29097  0.51794  0.22778  1.0000
  S   S145      1.0  0.28631  0.56820  0.20068  1.0000
  S   S146      1.0  0.23561  0.64633  0.17736  1.0000
  H   H565      1.0  0.24454  0.60866  0.21901  1.0000
  C   C344      1.0  0.36473  0.92336  0.03725  1.0000
  C   C345      1.0  0.34404  0.94561  0.03125  1.0000
  H   H566      1.0  0.25323  0.78123  0.15370  1.0000
  H   H567      1.0  0.28564  0.75700  0.14970  1.0000
  H   H568      1.0  0.35602  0.97623  0.05208  1.0000
  C   C346      1.0  0.25679  0.81453  0.07314  1.0000
  C   C347      1.0  0.25165  0.80557  0.05253  1.0000
  C   C348      1.0  0.25563  0.82451  0.03126  1.0000
  C   C349      1.0  0.26476  0.85264  0.03037  1.0000
  C   C350      1.0  0.26982  0.86186  0.05103  1.0000
  C   C351      1.0  0.26585  0.84289  0.07229  1.0000
  H   H569      1.0  0.24468  0.78376  0.05290  1.0000
  H   H570      1.0  0.25166  0.81713  0.01539  1.0000
  H   H571      1.0  0.27684  0.88342  0.05062  1.0000
  H   H572      1.0  0.26989  0.85009  0.08811  1.0000
  C   C352      1.0  0.24949  0.62201  0.18298  1.0000
  C   C353      1.0  0.25859  0.61886  0.16577  1.0000
  C   C354      1.0  0.26980  0.60198  0.17141  1.0000
  C   C355      1.0  0.27189  0.58687  0.19411  1.0000
  C   C356      1.0  0.26266  0.58873  0.21112  1.0000
  C   C357      1.0  0.25154  0.60640  0.20558  1.0000
  H   H573      1.0  0.25701  0.62977  0.14819  1.0000
  H   H574      1.0  0.27688  0.60044  0.15812  1.0000
  H   H575      1.0  0.26421  0.57773  0.22872  1.0000
  H   H576      1.0  0.25226  0.71605  0.17825  1.0000
  C   C358      1.0  0.41944  0.66882  0.13682  1.0000
  C   C359      1.0  0.40851  0.66103  0.12782  1.0000
  C   C360      1.0  0.40362  0.68806  0.11077  1.0000
  C   C361      1.0  0.40952  0.72336  0.10257  1.0000
  C   C362      1.0  0.42035  0.73150  0.11185  1.0000
  C   C363      1.0  0.42527  0.70433  0.12879  1.0000
  H   H577      1.0  0.40391  0.63389  0.13375  1.0000
  H   H578      1.0  0.39527  0.68129  0.10371  1.0000
  H   H579      1.0  0.42501  0.75841  0.10575  1.0000
  H   H580      1.0  0.43374  0.71068  0.13552  1.0000
  C   C364      1.0  0.43953  0.57367  0.27278  1.0000
  C   C365      1.0  0.44924  0.58354  0.25784  1.0000
  C   C366      1.0  0.45881  0.60417  0.26612  1.0000
  C   C367      1.0  0.45889  0.61463  0.28949  1.0000
  C   C368      1.0  0.44932  0.60388  0.30455  1.0000
  C   C369      1.0  0.43970  0.58363  0.29620  1.0000
  H   H581      1.0  0.44936  0.57516  0.23994  1.0000
  H   H582      1.0  0.46622  0.61202  0.25434  1.0000
  H   H583      1.0  0.44657  0.93886  0.01052  1.0000
  H   H584      1.0  0.43226  0.57596  0.30795  1.0000
  C   C370      1.0  0.34375  0.50558  0.21517  1.0000
  H   H585      1.0  0.26720  0.79784  0.14155  1.0000
  H   H586      1.0  0.44713  0.70945  0.23554  1.0000
  C   C371      1.0  0.26646  0.71669  0.13996  1.0000
  H   H587      1.0  0.23797  0.90439  0.13265  1.0000
  H   H588      1.0  0.48091  0.49045  0.29695  1.0000
  N   N37       1.0  0.43245  0.68168  0.22092  1.0000
  C   C372      1.0  0.44007  0.65057  0.20922  1.0000
  C   C373      1.0  0.42244  0.69393  0.20627  1.0000
  H   H589      1.0  0.43514  0.62242  0.20691  1.0000
  H   H590      1.0  0.44797  0.64175  0.21929  1.0000
  H   H591      1.0  0.44328  0.66173  0.19157  1.0000
  H   H592      1.0  0.44315  0.73114  0.20771  1.0000
  H   H593      1.0  0.42295  0.63620  0.24167  1.0000
  S   S147      1.0  0.29499  0.95047  0.02516  1.0000
  H   H594      1.0  0.41698  0.66744  0.20308  1.0000
  H   H595      1.0  0.37068  0.86955  0.01966  1.0000
  N   N38       1.0  0.37006  0.81588  0.09267  1.0000
  C   C374      1.0  0.37797  0.79837  0.11050  1.0000
  C   C375      1.0  0.35856  0.79570  0.09497  1.0000
  C   C376      1.0  0.37559  0.80933  0.06938  1.0000
  H   H596      1.0  0.38678  0.81271  0.10905  1.0000
  H   H597      1.0  0.37974  0.76507  0.10852  1.0000
  H   H598      1.0  0.37414  0.80271  0.12836  1.0000
  H   H599      1.0  0.35972  0.76233  0.09256  1.0000
  H   H600      1.0  0.35413  0.79986  0.11239  1.0000
  H   H601      1.0  0.35240  0.80838  0.08173  1.0000
  H   H602      1.0  0.37748  0.77636  0.06657  1.0000
  H   H603      1.0  0.25558  0.50734  0.21870  1.0000
  N   N39       1.0  0.26797  0.74015  0.16076  1.0000
  H   H604      1.0  0.25278  0.49781  0.15519  1.0000
  C   C377      1.0  0.43950  0.71767  0.22453  1.0000
  C   C378      1.0  0.36814  0.86012  0.09570  1.0000
  H   H605      1.0  0.33506  0.51674  0.21022  1.0000
  Fe  Fe72      1.0  0.23753  0.74572  0.10631  1.0000
  C   C379      1.0  0.36330  0.89065  0.02311  1.0000
  H   H606      1.0  0.42166  0.68654  0.25256  1.0000
  H   H607      1.0  0.36237  0.87446  0.08226  1.0000
  H   H608      1.0  0.36989  0.82193  0.05541  1.0000
  H   H609      1.0  0.44924  0.61165  0.32256  1.0000
  H   H610      1.0  0.45134  0.86628  0.06077  1.0000
  C   C380      1.0  0.35403  0.52420  0.20536  1.0000
  C   C381      1.0  0.44778  0.92679  0.02863  1.0000
  H   H611      1.0  0.26581  0.68908  0.18517  1.0000
  H   H612      1.0  0.25691  0.71322  0.13693  1.0000
  H   H613      1.0  0.28223  0.75967  0.18041  1.0000
  H   H614      1.0  0.46014  0.90836  0.06635  1.0000
  C   C382      1.0  0.26183  0.71994  0.18116  1.0000
  H   H615      1.0  0.45502  0.96506  0.10949  1.0000
  H   H616      1.0  0.38419  0.82458  0.06711  1.0000
  H   H617      1.0  0.37666  0.87630  0.09400  1.0000
  H   H618      1.0  0.27066  0.68562  0.14169  1.0000
  H   H619      1.0  0.26381  0.80061  0.17227  1.0000
  H   H620      1.0  0.35311  0.54968  0.19292  1.0000
  H   H621      1.0  0.36392  0.86644  0.11302  1.0000
  C   C383      1.0  0.45933  0.88308  0.05439  1.0000
  H   H622      1.0  0.46455  0.84186  0.01598  1.0000
  H   H623      1.0  0.43403  0.74182  0.23330  1.0000
  H   H624      1.0  0.38442  0.49286  0.15422  1.0000
  H   H625      1.0  0.47031  0.94689  0.03351  1.0000
  H   H626      1.0  0.43953  0.91106  0.03429  1.0000
  H   H627      1.0  0.26233  0.73770  0.19699  1.0000
  C   C384      1.0  0.35503  0.95076  0.04120  1.0000
  S   S148      1.0  0.37803  0.53459  0.19782  1.0000
  N   N40       1.0  0.45827  0.89870  0.03011  1.0000
  H   H628      1.0  0.44871  0.84757  0.01984  1.0000
  H   H629      1.0  0.27044  0.73214  0.12399  1.0000
  H   H630      1.0  0.28484  0.71103  0.16780  1.0000
  C   C385      1.0  0.36544  0.51035  0.21151  1.0000
  H   H631      1.0  0.46847  0.93312  0.00415  1.0000
  C   C386      1.0  0.26285  0.78185  0.15698  1.0000
  C   C387      1.0  0.28074  0.74213  0.16485  1.0000
  S   S149      1.0  0.23954  0.67717  0.10895  1.0000
  C   C388      1.0  0.35227  0.88520  0.01339  1.0000
  Fe  Fe73      1.0  0.28412  0.92190  0.99897  1.0000
  H   H632      1.0  0.24065  0.50621  0.17604  1.0000
  H   H633      1.0  0.46716  0.86188  0.05627  1.0000
  S   S150      1.0  0.32891  0.90383  0.00449  1.0000
  H   H634      1.0  0.44835  0.95294  0.04006  1.0000
  H   H635      1.0  0.25405  0.53306  0.17759  1.0000
  C   C389      1.0  0.45694  0.86424  0.01499  1.0000
  C   C390      1.0  0.43826  0.97816  0.09393  1.0000
  H   H636      1.0  0.47216  0.54563  0.32066  1.0000
  H   H637      1.0  0.27235  0.49741  0.18996  1.0000
  C   C391      1.0  0.25048  0.50317  0.17380  1.0000
  H   H638      1.0  0.24107  0.87972  0.10571  1.0000
  H   H639      1.0  0.32266  0.49058  0.31546  1.0000
  H   H640      1.0  0.47711  0.90043  0.02312  1.0000
  H   H641      1.0  0.35126  0.85959  0.00264  1.0000
  C   C392      1.0  0.23525  0.87946  0.12189  1.0000
  S   S151      1.0  0.41019  0.48518  0.21895  1.0000
  H   H642      1.0  0.45632  0.87496  0.99650  1.0000
  C   C393      1.0  0.24000  0.53353  0.61039  1.0000
  S   S152      1.0  0.24451  0.78065  0.61065  1.0000
  H   H643      1.0  0.39623  0.56188  0.43813  1.0000
  Fe  Fe74      1.0  0.24520  0.71254  0.60758  1.0000
  S   S153      1.0  0.26126  0.67299  0.59624  1.0000
  H   H644      1.0  0.24191  0.87327  0.59589  1.0000
  S   S154      1.0  0.30448  0.55177  0.47824  1.0000
  Fe  Fe75      1.0  0.28717  0.53595  0.49684  1.0000
  S   S155      1.0  0.27210  0.58339  0.50137  1.0000
  Fe  Fe76      1.0  0.41351  0.56736  0.57455  1.0000
  S   S156      1.0  0.41188  0.55850  0.53662  1.0000
  Fe  Fe77      1.0  0.40770  0.65873  0.56975  1.0000
  S   S157      1.0  0.40582  0.65693  0.53099  1.0000
  S   S158      1.0  0.40254  0.71555  0.59029  1.0000
  Fe  Fe78      1.0  0.39551  0.59963  0.53846  1.0000
  S   S159      1.0  0.38058  0.58965  0.51369  1.0000
  Fe  Fe79      1.0  0.42217  0.61579  0.53086  1.0000
  S   S160      1.0  0.43725  0.60812  0.50339  1.0000
  S   S161      1.0  0.39622  0.60425  0.57714  1.0000
  S   S162      1.0  0.42496  0.62186  0.56906  1.0000
  H   H645      1.0  0.40549  0.65945  0.46152  1.0000
  S   S163      1.0  0.47327  0.71780  0.35247  1.0000
  Fe  Fe80      1.0  0.46833  0.68156  0.38562  1.0000
  S   S164      1.0  0.45389  0.70735  0.41035  1.0000
  S   S165      1.0  0.46854  0.62215  0.36800  1.0000
  S   S166      1.0  0.41684  0.51607  0.60184  1.0000
  H   H646      1.0  0.34791  0.51847  0.55761  1.0000
  H   H647      1.0  0.36782  0.54863  0.55362  1.0000
  C   C394      1.0  0.40974  0.74737  0.60911  1.0000
  C   C395      1.0  0.42172  0.74173  0.61398  1.0000
  C   C396      1.0  0.42691  0.76741  0.62933  1.0000
  C   C397      1.0  0.42027  0.79935  0.63985  1.0000
  C   C398      1.0  0.40832  0.80510  0.63487  1.0000
  C   C399      1.0  0.40310  0.77923  0.61966  1.0000
  H   H648      1.0  0.42700  0.71787  0.60577  1.0000
  H   H649      1.0  0.43619  0.76283  0.63289  1.0000
  H   H650      1.0  0.41776  0.56084  0.48484  1.0000
  H   H651      1.0  0.39384  0.78402  0.61601  1.0000
  C   C400      1.0  0.44175  0.63716  0.47794  1.0000
  C   C401      1.0  0.43649  0.67513  0.47178  1.0000
  C   C402      1.0  0.44025  0.69626  0.45099  1.0000
  C   C403      1.0  0.44930  0.67973  0.43623  1.0000
  C   C404      1.0  0.45453  0.64180  0.44241  1.0000
  C   C405      1.0  0.45078  0.62072  0.46314  1.0000
  H   H652      1.0  0.42964  0.68843  0.48311  1.0000
  H   H653      1.0  0.43618  0.72567  0.44640  1.0000
  H   H654      1.0  0.46151  0.62871  0.43126  1.0000
  H   H655      1.0  0.45492  0.59142  0.46773  1.0000
  C   C406      1.0  0.29168  0.48840  0.34463  1.0000
  H   H656      1.0  0.23712  0.63644  0.61123  1.0000
  C   C407      1.0  0.34335  0.53378  0.52235  1.0000
  H   H657      1.0  0.40996  0.52957  0.46644  1.0000
  C   C408      1.0  0.36220  0.54980  0.53897  1.0000
  C   C409      1.0  0.36624  0.56824  0.51782  1.0000
  H   H658      1.0  0.30576  0.52670  0.33162  1.0000
  C   C410      1.0  0.34737  0.55234  0.50122  1.0000
  C   C411      1.0  0.30002  0.50162  0.38949  1.0000
  Fe  Fe81      1.0  0.23702  0.76910  0.64691  1.0000
  H   H659      1.0  0.39875  0.63132  0.48578  1.0000
  C   C412      1.0  0.26389  0.64808  0.56977  1.0000
  C   C413      1.0  0.27399  0.62205  0.56723  1.0000
  C   C414      1.0  0.27651  0.60165  0.54654  1.0000
  C   C415      1.0  0.26899  0.60729  0.52806  1.0000
  C   C416      1.0  0.25882  0.63304  0.53067  1.0000
  C   C417      1.0  0.25624  0.65323  0.55146  1.0000
  H   H660      1.0  0.27998  0.61800  0.58125  1.0000
  H   H661      1.0  0.28440  0.58215  0.54475  1.0000
  H   H662      1.0  0.25294  0.63761  0.51649  1.0000
  H   H663      1.0  0.24845  0.67321  0.55317  1.0000
  H   H664      1.0  0.25446  0.91768  0.63267  1.0000
  H   H665      1.0  0.48162  0.78894  0.37716  1.0000
  N   N41       1.0  0.40726  0.59417  0.45978  1.0000
  C   C418      1.0  0.25325  0.58112  0.62511  1.0000
  H   H666      1.0  0.24613  0.92562  0.59357  1.0000
  H   H667      1.0  0.25016  0.86543  0.63512  1.0000
  C   C419      1.0  0.39600  0.58983  0.44830  1.0000
  Fe  Fe82      1.0  0.30136  0.49823  0.45627  1.0000
  H   H668      1.0  0.36170  0.58347  0.48254  1.0000
  H   H669      1.0  0.46123  0.79553  0.42927  1.0000
  H   H670      1.0  0.40307  0.82938  0.64278  1.0000
  C   C420      1.0  0.30147  0.51253  0.34694  1.0000
  C   C421      1.0  0.23899  0.90497  0.60003  1.0000
  C   C422      1.0  0.40649  0.63158  0.47305  1.0000
  H   H671      1.0  0.46728  0.77598  0.38970  1.0000
  C   C423      1.0  0.41204  0.62399  0.62860  1.0000
  N   N42       1.0  0.23628  0.90841  0.62519  1.0000
  H   H672      1.0  0.25703  0.55728  0.63720  1.0000
  H   H673      1.0  0.25941  0.62150  0.42296  1.0000
  H   H674      1.0  0.24542  0.53206  0.59377  1.0000
  N   N43       1.0  0.27743  0.59938  0.42604  1.0000
  C   C424      1.0  0.26758  0.62863  0.43173  1.0000
  C   C425      1.0  0.27392  0.55778  0.43361  1.0000
  C   C426      1.0  0.28801  0.60987  0.43827  1.0000
  C   C427      1.0  0.28023  0.60105  0.40074  1.0000
  H   H675      1.0  0.26991  0.66043  0.42637  1.0000
  H   H676      1.0  0.26536  0.62780  0.45082  1.0000
  H   H677      1.0  0.28122  0.53495  0.42991  1.0000
  H   H678      1.0  0.27163  0.55560  0.45261  1.0000
  H   H679      1.0  0.26606  0.54852  0.42455  1.0000
  H   H680      1.0  0.29564  0.58847  0.43431  1.0000
  H   H681      1.0  0.28623  0.60848  0.45746  1.0000
  H   H682      1.0  0.29089  0.64116  0.43316  1.0000
  H   H683      1.0  0.27252  0.59269  0.39092  1.0000
  H   H684      1.0  0.28771  0.57935  0.39613  1.0000
  H   H685      1.0  0.28290  0.63202  0.39435  1.0000
  H   H686      1.0  0.44069  0.52487  0.58030  1.0000
  H   H687      1.0  0.39409  0.61651  0.43630  1.0000
  H   H688      1.0  0.42582  0.59959  0.45052  1.0000
  S   S167      1.0  0.32921  0.51086  0.52624  1.0000
  H   H689      1.0  0.46409  0.84787  0.42109  1.0000
  S   S168      1.0  0.30571  0.51125  0.41705  1.0000
  H   H690      1.0  0.41612  0.62405  0.43012  1.0000
  Fe  Fe83      1.0  0.47518  0.65682  0.33583  1.0000
  C   C428      1.0  0.24703  0.89744  0.63802  1.0000
  C   C429      1.0  0.43299  0.60670  0.62835  1.0000
  H   H691      1.0  0.41372  0.65091  0.61663  1.0000
  H   H692      1.0  0.24137  0.60591  0.58724  1.0000
  S   S169      1.0  0.23927  0.70089  0.64513  1.0000
  H   H693      1.0  0.34175  0.55352  0.48656  1.0000
  H   H694      1.0  0.43510  0.63392  0.61684  1.0000
  N   N44       1.0  0.42219  0.61430  0.64329  1.0000
  H   H695      1.0  0.40201  0.55565  0.48936  1.0000
  H   H696      1.0  0.47682  0.74212  0.42341  1.0000
  C   C430      1.0  0.35087  0.53264  0.54116  1.0000
  H   H697      1.0  0.23670  0.55099  0.65563  1.0000
  H   H698      1.0  0.25411  0.61121  0.63291  1.0000
  C   C431      1.0  0.46824  0.81874  0.42785  1.0000
  C   C432      1.0  0.30563  0.51885  0.36916  1.0000
  H   H699      1.0  0.31324  0.53750  0.37062  1.0000
  C   C433      1.0  0.35873  0.56930  0.49899  1.0000
  H   H700      1.0  0.41801  0.56935  0.43167  1.0000
  N   N45       1.0  0.47837  0.80528  0.41255  1.0000
  S   S170      1.0  0.29592  0.49578  0.52391  1.0000
  C   C434      1.0  0.40934  0.55844  0.47578  1.0000
  H   H701      1.0  0.41024  0.59794  0.61784  1.0000
  H   H702      1.0  0.47102  0.82339  0.44573  1.0000
  C   C435      1.0  0.41721  0.59688  0.44219  1.0000
  H   H703      1.0  0.38838  0.58758  0.46134  1.0000
  Fe  Fe84      1.0  0.31319  0.50703  0.50337  1.0000
  H   H704      1.0  0.42583  0.67733  0.64716  1.0000
  H   H705      1.0  0.41457  0.63464  0.48296  1.0000
  C   C436      1.0  0.43025  0.48627  0.60381  1.0000
  C   C437      1.0  0.23628  0.60586  0.60425  1.0000
  N   N46       1.0  0.24076  0.57367  0.62062  1.0000
  H   H706      1.0  0.40377  0.63115  0.63912  1.0000
  H   H707      1.0  0.43187  0.58079  0.61694  1.0000
  S   S171      1.0  0.42734  0.83042  0.65929  1.0000
  H   H708      1.0  0.25892  0.58177  0.60874  1.0000
  H   H709      1.0  0.41839  0.55067  0.64746  1.0000
  H   H710      1.0  0.48157  0.57463  0.33693  1.0000
  C   C438      1.0  0.41973  0.57739  0.65815  1.0000
  H   H711      1.0  0.45940  0.48414  0.58549  1.0000
  H   H712      1.0  0.47883  0.52318  0.34633  1.0000
  H   H713      1.0  0.24324  0.50841  0.62233  1.0000
  H   H714      1.0  0.44083  0.59893  0.63880  1.0000
  H   H715      1.0  0.23930  0.97274  0.62442  1.0000
  H   H716      1.0  0.24528  0.89969  0.65707  1.0000
  C   C439      1.0  0.48036  0.54381  0.33067  1.0000
  C   C440      1.0  0.44072  0.49777  0.59171  1.0000
  H   H717      1.0  0.47032  0.82800  0.38128  1.0000
  C   C441      1.0  0.47421  0.79931  0.38915  1.0000
  C   C442      1.0  0.42399  0.64904  0.65795  1.0000
  H   H718      1.0  0.23369  0.60474  0.65052  1.0000
  C   C443      1.0  0.23351  0.57444  0.64265  1.0000
  S   S172      1.0  0.28366  0.48412  0.47405  1.0000
  C   C444      1.0  0.25389  0.86029  0.70070  1.0000
  S   S173      1.0  0.30013  0.90515  0.97663  1.0000
  H   H719      1.0  0.42720  0.56905  0.66949  1.0000
  H   H720      1.0  0.41155  0.58181  0.66943  1.0000
  Fe  Fe85      1.0  0.31577  0.96508  0.74493  1.0000
  H   H721      1.0  0.25409  0.86247  0.92752  1.0000
  H   H722      1.0  0.35516  0.96330  0.91980  1.0000
  S   S174      1.0  0.45820  0.77125  0.91557  1.0000
  S   S175      1.0  0.47477  0.82736  0.80378  1.0000
  S   S176      1.0  0.47433  0.75398  0.85731  1.0000
  Fe  Fe86      1.0  0.29268  0.92726  0.73204  1.0000
  C   C445      1.0  0.43687  0.80860  0.96990  1.0000
  S   S177      1.0  0.28913  0.87130  0.71171  1.0000
  H   H723      1.0  0.45765  0.92095  0.72441  1.0000
  H   H724      1.0  0.26101  0.84590  0.95387  1.0000
  S   S178      1.0  0.33536  0.94404  0.74662  1.0000
  H   H725      1.0  0.34022  0.81782  0.70241  1.0000
  S   S179      1.0  0.30354  0.92025  0.76383  1.0000
  Fe  Fe87      1.0  0.42391  0.92588  0.72557  1.0000
  S   S180      1.0  0.43641  0.91929  0.69450  1.0000
  S   S181      1.0  0.42980  0.92387  0.76293  1.0000
  Fe  Fe88      1.0  0.40311  0.95288  0.69547  1.0000
  H   H726      1.0  0.33814  0.89912  0.67380  1.0000
  C   C446      1.0  0.33445  0.89636  0.69200  1.0000
  S   S182      1.0  0.40928  0.89147  0.71065  1.0000
  H   H727      1.0  0.44887  0.75720  0.84162  1.0000
  C   C447      1.0  0.34891  0.95593  0.73089  1.0000
  C   C448      1.0  0.43350  0.82061  0.83558  1.0000
  H   H728      1.0  0.32679  0.79718  0.69320  1.0000
  H   H729      1.0  0.31965  0.87005  0.66119  1.0000
  C   C449      1.0  0.37036  0.94213  0.72495  1.0000
  C   C450      1.0  0.35943  0.93474  0.73712  1.0000
  H   H730      1.0  0.44708  0.75251  0.87270  1.0000
  H   H731      1.0  0.37835  0.92565  0.73008  1.0000
  H   H732      1.0  0.35914  0.91247  0.75153  1.0000
  C   C451      1.0  0.27545  0.85666  0.70116  1.0000
  C   C452      1.0  0.27554  0.82544  0.68526  1.0000
  H   H733      1.0  0.34205  0.89226  0.70355  1.0000
  C   C453      1.0  0.26456  0.87436  0.70864  1.0000
  Fe  Fe89      1.0  0.42148  0.88829  0.67838  1.0000
  N   N47       1.0  0.43921  0.80727  0.85729  1.0000
  H   H734      1.0  0.26433  0.89824  0.72093  1.0000
  C   C454      1.0  0.46194  0.85350  0.79330  1.0000
  C   C455      1.0  0.45822  0.84497  0.77120  1.0000
  C   C456      1.0  0.44831  0.86576  0.76177  1.0000
  C   C457      1.0  0.44208  0.89576  0.77427  1.0000
  C   C458      1.0  0.44579  0.90439  0.79636  1.0000
  C   C459      1.0  0.45571  0.88356  0.80579  1.0000
  H   H735      1.0  0.46304  0.82200  0.76131  1.0000
  H   H736      1.0  0.44551  0.85861  0.74482  1.0000
  H   H737      1.0  0.44109  0.92783  0.80606  1.0000
  H   H738      1.0  0.45872  0.89157  0.82240  1.0000
  C   C460      1.0  0.43773  0.85097  0.96850  1.0000
  S   S183      1.0  0.30281  0.95760  0.91764  1.0000
  C   C461      1.0  0.44331  0.78462  0.95369  1.0000
  C   C462      1.0  0.45086  0.80262  0.93631  1.0000
  C   C463      1.0  0.45189  0.84494  0.93518  1.0000
  C   C464      1.0  0.44527  0.86898  0.95110  1.0000
  S   S184      1.0  0.38453  0.98179  0.69044  1.0000
  H   H739      1.0  0.44244  0.75188  0.95462  1.0000
  H   H740      1.0  0.45763  0.85919  0.92184  1.0000
  H   H741      1.0  0.44597  0.90177  0.94989  1.0000
  H   H742      1.0  0.32246  0.93040  0.95456  1.0000
  H   H743      1.0  0.46369  0.93293  0.75128  1.0000
  H   H744      1.0  0.44778  0.86431  0.85933  1.0000
  N   N48       1.0  0.33849  0.95366  0.93849  1.0000
  S   S185      1.0  0.47943  0.84693  0.87341  1.0000
  H   H745      1.0  0.31510  0.83571  0.72315  1.0000
  H   H746      1.0  0.43474  0.74448  0.85524  1.0000
  H   H747      1.0  0.43503  0.80401  0.89407  1.0000
  N   N49       1.0  0.27273  0.87361  0.92770  1.0000
  C   C465      1.0  0.27072  0.91480  0.93663  1.0000
  C   C466      1.0  0.28347  0.85431  0.93765  1.0000
  C   C467      1.0  0.27436  0.87677  0.90211  1.0000
  C   C468      1.0  0.26239  0.84868  0.93457  1.0000
  H   H748      1.0  0.26283  0.93073  0.92918  1.0000
  H   H749      1.0  0.27848  0.93417  0.93230  1.0000
  H   H750      1.0  0.26922  0.91333  0.95586  1.0000
  H   H751      1.0  0.28528  0.82312  0.93136  1.0000
  H   H752      1.0  0.29144  0.87250  0.93290  1.0000
  H   H753      1.0  0.28252  0.85155  0.95699  1.0000
  H   H754      1.0  0.27581  0.84623  0.89471  1.0000
  H   H755      1.0  0.28220  0.89513  0.89653  1.0000
  H   H756      1.0  0.26652  0.89187  0.89399  1.0000
  C   C469      1.0  0.31640  0.86861  0.67970  1.0000
  H   H757      1.0  0.42269  0.79676  0.87645  1.0000
  C   C470      1.0  0.46422  0.94002  0.73220  1.0000
  H   H758      1.0  0.32863  0.85645  0.73235  1.0000
  H   H759      1.0  0.43109  0.79436  0.98318  1.0000
  H   H760      1.0  0.47319  0.92978  0.72550  1.0000
  C   C471      1.0  0.25398  0.82887  0.68494  1.0000
  C   C472      1.0  0.33274  0.82348  0.69067  1.0000
  Fe  Fe90      1.0  0.29729  0.96439  0.95642  1.0000
  H   H761      1.0  0.28390  0.81143  0.67940  1.0000
  C   C473      1.0  0.32146  0.86066  0.71981  1.0000
  H   H762      1.0  0.31127  0.89751  0.68305  1.0000
  H   H763      1.0  0.26510  0.78766  0.66491  1.0000
  H   H764      1.0  0.43961  0.81581  0.82008  1.0000
  H   H765      1.0  0.45420  0.82270  0.87606  1.0000
  C   C474      1.0  0.33024  0.92017  0.94354  1.0000
  H   H766      1.0  0.42536  0.80346  0.83327  1.0000
  H   H767      1.0  0.34757  0.94259  0.97018  1.0000
  H   H768      1.0  0.31656  0.88948  0.72394  1.0000
  S   S186      1.0  0.30534  0.96973  0.71274  1.0000
  C   C475      1.0  0.44991  0.83098  0.85950  1.0000
  C   C476      1.0  0.26488  0.81184  0.67702  1.0000
  H   H769      1.0  0.24551  0.87364  0.70697  1.0000
  C   C477      1.0  0.28979  0.97740  0.84261  1.0000
  H   H770      1.0  0.32674  0.90903  0.92739  1.0000
  H   H771      1.0  0.43093  0.85367  0.83532  1.0000
  C   C478      1.0  0.30110  0.96067  0.84681  1.0000
  H   H772      1.0  0.35354  0.91286  0.93274  1.0000
  S   S187      1.0  0.42962  0.88298  0.98791  1.0000
  Fe  Fe91      1.0  0.47380  0.78699  0.89057  1.0000
  C   C479      1.0  0.30488  0.95503  0.86980  1.0000
  S   S188      1.0  0.41459  0.94775  0.66236  1.0000
  N   N50       1.0  0.32626  0.86228  0.69552  1.0000
  C   C480      1.0  0.34871  0.93885  0.92386  1.0000
  C   C481      1.0  0.37094  0.97091  0.70631  1.0000
  H   H773      1.0  0.26358  0.81726  0.92825  1.0000
  H   H774      1.0  0.42830  0.84692  0.87872  1.0000
  H   H775      1.0  0.30997  0.84365  0.68211  1.0000
  Fe  Fe92      1.0  0.48099  0.81215  0.84039  1.0000
  H   H776      1.0  0.33455  0.89390  0.95317  1.0000
  H   H777      1.0  0.45660  0.82528  0.84510  1.0000
  S   S189      1.0  0.24024  0.81229  0.67568  1.0000
  H   H778      1.0  0.32992  0.92602  0.69612  1.0000
  C   C482      1.0  0.44261  0.76343  0.85666  1.0000
  C   C483      1.0  0.43091  0.81407  0.87748  1.0000
  H   H779      1.0  0.41596  0.65587  0.66927  1.0000
  H   H780      1.0  0.43159  0.64295  0.66928  1.0000
  H   H781      1.0  0.34581  0.92816  0.90709  1.0000
  H   H782      1.0  0.44296  0.97795  0.72751  1.0000
  S   S190      1.0  0.28111  0.97776  0.74702  1.0000
  H   H783      1.0  0.30696  0.95206  0.83233  1.0000
  C   C484      1.0  0.29746  0.96613  0.88901  1.0000
  H   H784      1.0  0.33652  0.82368  0.67249  1.0000
  C   C485      1.0  0.34273  0.96761  0.96050  1.0000
  Fe  Fe93      1.0  0.42847  0.97931  0.68108  1.0000
  Fe  Fe94      1.0  0.29318  0.97463  0.77746  1.0000
  H   H785      1.0  0.31364  0.94200  0.87263  1.0000
  H   H786      1.0  0.45654  0.97403  0.69222  1.0000
  S   S191      1.0  0.28043  0.97972  0.97741  1.0000
  H   H787      1.0  0.32883  0.97823  0.90948  1.0000
  H   H788      1.0  0.33522  0.97792  0.97228  1.0000
  C   C486      1.0  0.28613  0.98280  0.88485  1.0000
  S   S192      1.0  0.65684  0.03584  0.03711  1.0000
  S   S193      1.0  0.53732  0.09919  0.02310  1.0000
  S   S194      1.0  0.49196  0.18738  0.07153  1.0000
  Fe  Fe95      1.0  0.64547  0.00391  0.27428  1.0000
  H   H789      1.0  0.54664  0.00828  0.01980  1.0000
  S   S195      1.0  0.65600  0.03503  0.24473  1.0000
  S   S196      1.0  0.62754  0.03513  0.28460  1.0000
  Fe  Fe96      1.0  0.67209  0.02306  0.26588  1.0000
  S   S197      1.0  0.68779  0.06432  0.26861  1.0000
  Fe  Fe97      1.0  0.53520  0.06393  0.28623  1.0000
  H   H790      1.0  0.49659  0.47855  0.29690  1.0000
  S   S198      1.0  0.52925  0.11209  0.25877  1.0000
  H   H791      1.0  0.60825  0.05965  0.19124  1.0000
  H   H792      1.0  0.71526  0.12745  0.31844  1.0000
  C   C487      1.0  0.68262  0.09873  0.31110  1.0000
  S   S199      1.0  0.55113  0.07862  0.30622  1.0000
  C   C488      1.0  0.69128  0.08901  0.29392  1.0000
  H   H793      1.0  0.62976  0.07304  0.18398  1.0000
  C   C489      1.0  0.70613  0.12028  0.31629  1.0000
  H   H794      1.0  0.51808  0.15133  0.00444  1.0000
  C   C490      1.0  0.70305  0.09986  0.29663  1.0000
  H   H795      1.0  0.69486  0.20303  0.30285  1.0000
  H   H796      1.0  0.56297  0.06995  0.03569  1.0000
  H   H797      1.0  0.70983  0.09210  0.28352  1.0000
  S   S200      1.0  0.67794  0.08952  0.99462  1.0000
  H   H798      1.0  0.70120  0.26212  0.32275  1.0000
  C   C491      1.0  0.59151  0.03432  0.29592  1.0000
  C   C492      1.0  0.60341  0.04623  0.29324  1.0000
  H   H799      1.0  0.58451  0.05659  0.29996  1.0000
  H   H800      1.0  0.60544  0.07775  0.29527  1.0000
  C   C493      1.0  0.49971  0.10200  0.20692  1.0000
  C   C494      1.0  0.50724  0.13502  0.20527  1.0000
  C   C495      1.0  0.51622  0.13762  0.22125  1.0000
  C   C496      1.0  0.51789  0.10707  0.23887  1.0000
  C   C497      1.0  0.51037  0.07408  0.24048  1.0000
  C   C498      1.0  0.50133  0.07170  0.22466  1.0000
  H   H801      1.0  0.50622  0.15831  0.19157  1.0000
  H   H802      1.0  0.52203  0.16316  0.21973  1.0000
  H   H803      1.0  0.51152  0.05035  0.25391  1.0000
  H   H804      1.0  0.49558  0.04598  0.22610  1.0000
  C   C499      1.0  0.52427  0.12212  0.03593  1.0000
  C   C500      1.0  0.51645  0.14693  0.02299  1.0000
  C   C501      1.0  0.50658  0.16650  0.03416  1.0000
  C   C502      1.0  0.50426  0.16077  0.05826  1.0000
  C   C503      1.0  0.51189  0.13506  0.07108  1.0000
  C   C504      1.0  0.52190  0.11618  0.05998  1.0000
  H   H805      1.0  0.51749  0.13662  0.30300  1.0000
  H   H806      1.0  0.50072  0.18631  0.02411  1.0000
  H   H807      1.0  0.51024  0.13050  0.08963  1.0000
  H   H808      1.0  0.52789  0.09710  0.07017  1.0000
  H   H809      1.0  0.52258  0.19814  0.27900  1.0000
  C   C505      1.0  0.58871  0.99364  0.29353  1.0000
  C   C506      1.0  0.55158  0.00071  0.03573  1.0000
  H   H810      1.0  0.71469  0.20212  0.32014  1.0000
  Fe  Fe98      1.0  0.64477  0.99967  0.01654  1.0000
  H   H811      1.0  0.68648  0.00250  0.30499  1.0000
  N   N51       1.0  0.70942  0.24038  0.29109  1.0000
  H   H812      1.0  0.54724  0.22566  0.99945  1.0000
  H   H813      1.0  0.72133  0.18782  0.29262  1.0000
  H   H814      1.0  0.67352  0.09069  0.30921  1.0000
  H   H815      1.0  0.70835  0.27737  0.25947  1.0000
  H   H816      1.0  0.71796  0.23270  0.25741  1.0000
  C   C507      1.0  0.53731  0.17389  0.31225  1.0000
  N   N52       1.0  0.62230  0.03490  0.21198  1.0000
  H   H817      1.0  0.56272  0.05513  0.00632  1.0000
  C   C508      1.0  0.71834  0.21424  0.30304  1.0000
  H   H818      1.0  0.54793  0.02179  0.04908  1.0000
  H   H819      1.0  0.48889  0.19627  0.21210  1.0000
  S   S201      1.0  0.48794  0.09744  0.18791  1.0000
  C   C509      1.0  0.61383  0.02850  0.99816  1.0000
  Fe  Fe99      1.0  0.53067  0.98429  0.31613  1.0000
  N   N53       1.0  0.52501  0.19002  0.31561  1.0000
  H   H820      1.0  0.72635  0.23143  0.30631  1.0000
  H   H821      1.0  0.70113  0.98828  0.29450  1.0000
  H   H822      1.0  0.63268  0.01926  0.18121  1.0000
  C   C510      1.0  0.69916  0.21582  0.28642  1.0000
  C   C511      1.0  0.62128  0.06830  0.22830  1.0000
  H   H823      1.0  0.57643  0.05269  0.02061  1.0000
  H   H824      1.0  0.62976  0.07176  0.23697  1.0000
  H   H825      1.0  0.72259  0.27592  0.27215  1.0000
  C   C512      1.0  0.56678  0.04763  0.02318  1.0000
  H   H826      1.0  0.56765  0.01648  0.06673  1.0000
  C   C513      1.0  0.52189  0.21596  0.29504  1.0000
  Fe  Fe100     1.0  0.66985  0.02942  0.00674  1.0000
  S   S202      1.0  0.52358  0.04927  0.31791  1.0000
  H   H827      1.0  0.61436  0.06233  0.24236  1.0000
  H   H828      1.0  0.70186  0.18950  0.27563  1.0000
  C   C514      1.0  0.62538  0.99622  0.22474  1.0000
  H   H829      1.0  0.54381  0.19863  0.31117  1.0000
  H   H830      1.0  0.53852  0.15698  0.29599  1.0000
  H   H831      1.0  0.61134  0.00588  0.18878  1.0000
  S   S203      1.0  0.54129  0.99859  0.28274  1.0000
  H   H832      1.0  0.53059  0.27437  0.00856  1.0000
  Fe  Fe101     1.0  0.55626  0.01166  0.30547  1.0000
  H   H833      1.0  0.61896  0.09803  0.21937  1.0000
  H   H834      1.0  0.63745  0.11581  0.99852  1.0000
  C   C515      1.0  0.52564  0.26085  0.99477  1.0000
  S   S204      1.0  0.62658  0.03316  0.01467  1.0000
  C   C516      1.0  0.61271  0.01780  0.28815  1.0000
  S   S205      1.0  0.48739  0.19799  0.14323  1.0000
  C   C517      1.0  0.71480  0.25736  0.26902  1.0000
  H   H835      1.0  0.52040  0.23569  0.00325  1.0000
  C   C518      1.0  0.63167  0.04387  0.19385  1.0000
  H   H836      1.0  0.60609  0.08591  0.00900  1.0000
  H   H837      1.0  0.69228  0.23435  0.27715  1.0000
  C   C519      1.0  0.61086  0.03106  0.20108  1.0000
  C   C520      1.0  0.57069  0.99552  0.05288  1.0000
  H   H838      1.0  0.64047  0.04610  0.20151  1.0000
  C   C521      1.0  0.60495  0.05973  0.99876  1.0000
  S   S206      1.0  0.66135  0.99786  0.29660  1.0000
  H   H839      1.0  0.64948  0.07967  0.99485  1.0000
  H   H840      1.0  0.60362  0.02433  0.21440  1.0000
  H   H841      1.0  0.52795  0.24187  0.29222  1.0000
  C   C522      1.0  0.70544  0.27401  0.30606  1.0000
  H   H842      1.0  0.51266  0.22872  0.29691  1.0000
  N   N54       1.0  0.56448  0.00520  0.03127  1.0000
  H   H843      1.0  0.63381  0.99844  0.23359  1.0000
  H   H844      1.0  0.69886  0.29490  0.29748  1.0000
  H   H845      1.0  0.61845  0.98812  0.23837  1.0000
  H   H846      1.0  0.48730  0.46695  0.32239  1.0000
  C   C523      1.0  0.51688  0.15570  0.31850  1.0000
  H   H847      1.0  0.71305  0.29247  0.31043  1.0000
  H   H848      1.0  0.50750  0.16655  0.32110  1.0000
  H   H849      1.0  0.58046  0.99846  0.04997  1.0000
  H   H850      1.0  0.53973  0.15242  0.32684  1.0000
  H   H851      1.0  0.70922  0.02339  0.32658  1.0000
  Fe  Fe102     1.0  0.48350  0.17567  0.10800  1.0000
  S   S207      1.0  0.54321  0.46888  0.41165  1.0000
  H   H852      1.0  0.69986  0.28950  0.56734  1.0000
  S   S208      1.0  0.53537  0.10143  0.36925  1.0000
  S   S209      1.0  0.65235  0.40756  0.52205  1.0000
  H   H853      1.0  0.73261  0.44212  0.38324  1.0000
  Fe  Fe103     1.0  0.66851  0.40976  0.49756  1.0000
  S   S210      1.0  0.67462  0.34778  0.48470  1.0000
  Fe  Fe104     1.0  0.55068  0.31580  0.43043  1.0000
  S   S211      1.0  0.55643  0.31075  0.46738  1.0000
  S   S212      1.0  0.55538  0.26753  0.40348  1.0000
  Fe  Fe105     1.0  0.54655  0.40883  0.43211  1.0000
  S   S213      1.0  0.55248  0.40990  0.46860  1.0000
  H   H854      1.0  0.56346  0.36522  0.57020  1.0000
  Fe  Fe106     1.0  0.56726  0.36609  0.45845  1.0000
  S   S214      1.0  0.58614  0.35867  0.47142  1.0000
  Fe  Fe107     1.0  0.54124  0.35489  0.47570  1.0000
  S   S215      1.0  0.53221  0.36271  0.51171  1.0000
  S   S216      1.0  0.56232  0.36914  0.42127  1.0000
  S   S217      1.0  0.53445  0.35630  0.43924  1.0000
  H   H855      1.0  0.48498  0.37010  0.58078  1.0000
  S   S218      1.0  0.66149  0.46377  0.47629  1.0000
  S   S219      1.0  0.49701  0.25954  0.57951  1.0000
  Fe  Fe108     1.0  0.71730  0.19102  0.36651  1.0000
  S   S220      1.0  0.72334  0.18942  0.40339  1.0000
  S   S221      1.0  0.70049  0.15990  0.35725  1.0000
  Fe  Fe109     1.0  0.72479  0.25765  0.39820  1.0000
  S   S222      1.0  0.72107  0.31215  0.42068  1.0000
  S   S223      1.0  0.71732  0.25941  0.36303  1.0000
  C   C524      1.0  0.52249  0.33298  0.53012  1.0000
  C   C525      1.0  0.51857  0.34819  0.55167  1.0000
  C   C526      1.0  0.51090  0.32590  0.56706  1.0000
  C   C527      1.0  0.50701  0.28808  0.56105  1.0000
  C   C528      1.0  0.51092  0.27281  0.53952  1.0000
  C   C529      1.0  0.51861  0.29513  0.52409  1.0000
  H   H856      1.0  0.52153  0.37740  0.55653  1.0000
  H   H857      1.0  0.50804  0.33786  0.58363  1.0000
  H   H858      1.0  0.50797  0.24354  0.53471  1.0000
  H   H859      1.0  0.52155  0.28300  0.50760  1.0000
  H   H860      1.0  0.51900  0.44009  0.41836  1.0000
  C   C530      1.0  0.68731  0.33918  0.46606  1.0000
  C   C531      1.0  0.68910  0.30102  0.45617  1.0000
  C   C532      1.0  0.69928  0.29247  0.44187  1.0000
  C   C533      1.0  0.70786  0.32188  0.43767  1.0000
  C   C534      1.0  0.70609  0.35999  0.44766  1.0000
  C   C535      1.0  0.69583  0.36874  0.46167  1.0000
  H   H861      1.0  0.68257  0.27794  0.45953  1.0000
  H   H862      1.0  0.70056  0.26299  0.43437  1.0000
  H   H863      1.0  0.71269  0.38289  0.44456  1.0000
  H   H864      1.0  0.69458  0.39818  0.46924  1.0000
  C   C536      1.0  0.60496  0.46201  0.47758  1.0000
  C   C537      1.0  0.66355  0.42074  0.63071  1.0000
  H   H865      1.0  0.51904  0.13539  0.33385  1.0000
  C   C538      1.0  0.66437  0.43661  0.65293  1.0000
  C   C539      1.0  0.59746  0.39352  0.47613  1.0000
  C   C540      1.0  0.60841  0.37794  0.48399  1.0000
  C   C541      1.0  0.61758  0.40411  0.48853  1.0000
  C   C542      1.0  0.61593  0.44641  0.48540  1.0000
  H   H866      1.0  0.70486  0.00964  0.35624  1.0000
  C   C543      1.0  0.59580  0.43581  0.47292  1.0000
  H   H867      1.0  0.60983  0.34535  0.48665  1.0000
  H   H868      1.0  0.62593  0.39153  0.49454  1.0000
  H   H869      1.0  0.58328  0.39484  0.51939  1.0000
  H   H870      1.0  0.58747  0.44841  0.46686  1.0000
  C   C544      1.0  0.54962  0.22123  0.39452  1.0000
  C   C545      1.0  0.55553  0.20128  0.37595  1.0000
  C   C546      1.0  0.55143  0.16442  0.36819  1.0000
  C   C547      1.0  0.54133  0.14694  0.37889  1.0000
  C   C548      1.0  0.53543  0.16688  0.39745  1.0000
  C   C549      1.0  0.53951  0.20380  0.40521  1.0000
  H   H871      1.0  0.56338  0.21431  0.36758  1.0000
  H   H872      1.0  0.55618  0.14933  0.35411  1.0000
  H   H873      1.0  0.52761  0.15370  0.40592  1.0000
  H   H874      1.0  0.53488  0.21858  0.41953  1.0000
  H   H875      1.0  0.68498  0.28762  0.57994  1.0000
  Fe  Fe110     1.0  0.66235  0.44771  0.54452  1.0000
  H   H876      1.0  0.57845  0.36292  0.55817  1.0000
  C   C550      1.0  0.69738  0.13131  0.33307  1.0000
  H   H877      1.0  0.67882  0.12825  0.34338  1.0000
  H   H878      1.0  0.66233  0.38847  0.62934  1.0000
  H   H879      1.0  0.48825  0.41179  0.52010  1.0000
  H   H880      1.0  0.70430  0.33630  0.53303  1.0000
  S   S224      1.0  0.67881  0.44693  0.52073  1.0000
  H   H881      1.0  0.55994  0.35704  0.50728  1.0000
  C   C551      1.0  0.57008  0.38195  0.55881  1.0000
  H   H882      1.0  0.49483  0.39457  0.55953  1.0000
  H   H883      1.0  0.68454  0.36260  0.58435  1.0000
  Fe  Fe111     1.0  0.48731  0.28180  0.61240  1.0000
  H   H884      1.0  0.55583  0.44488  0.54503  1.0000
  H   H885      1.0  0.69948  0.36450  0.57194  1.0000
  C   C552      1.0  0.55456  0.41545  0.53690  1.0000
  C   C553      1.0  0.57472  0.41274  0.52080  1.0000
  H   H886      1.0  0.52603  0.19499  0.35241  1.0000
  H   H887      1.0  0.69257  0.36755  0.52093  1.0000
  C   C554      1.0  0.68998  0.36521  0.56774  1.0000
  C   C555      1.0  0.69464  0.33774  0.53008  1.0000
  C   C556      1.0  0.56347  0.35155  0.52476  1.0000
  H   H888      1.0  0.54746  0.39905  0.54720  1.0000
  N   N55       1.0  0.56571  0.39046  0.53532  1.0000
  S   S225      1.0  0.66337  0.42382  0.58269  1.0000
  H   H889      1.0  0.57182  0.41889  0.50278  1.0000
  H   H890      1.0  0.55107  0.42267  0.51942  1.0000
  H   H891      1.0  0.57172  0.33224  0.52265  1.0000
  H   H892      1.0  0.57194  0.41064  0.56726  1.0000
  N   N56       1.0  0.68743  0.33262  0.55207  1.0000
  C   C557      1.0  0.67472  0.33505  0.54712  1.0000
  C   C558      1.0  0.69032  0.29242  0.56335  1.0000
  H   H893      1.0  0.69284  0.31382  0.51779  1.0000
  H   H894      1.0  0.66894  0.33210  0.56327  1.0000
  H   H895      1.0  0.67241  0.31123  0.53517  1.0000
  H   H896      1.0  0.67234  0.36487  0.53853  1.0000
  H   H897      1.0  0.68844  0.26726  0.55194  1.0000
  N   N57       1.0  0.59173  0.28323  0.41376  1.0000
  C   C559      1.0  0.58550  0.28615  0.39179  1.0000
  C   C560      1.0  0.59675  0.32304  0.41790  1.0000
  C   C561      1.0  0.60138  0.25171  0.41230  1.0000
  C   C562      1.0  0.58326  0.27198  0.43312  1.0000
  H   H898      1.0  0.58136  0.25688  0.38842  1.0000
  H   H899      1.0  0.59161  0.29417  0.37670  1.0000
  H   H900      1.0  0.57818  0.30982  0.39233  1.0000
  H   H901      1.0  0.60152  0.32198  0.43437  1.0000
  H   H902      1.0  0.60312  0.33282  0.40357  1.0000
  H   H903      1.0  0.58967  0.34741  0.41946  1.0000
  H   H904      1.0  0.60621  0.24870  0.42869  1.0000
  H   H905      1.0  0.60798  0.25923  0.39791  1.0000
  H   H906      1.0  0.59786  0.22132  0.40919  1.0000
  H   H907      1.0  0.58753  0.27031  0.45012  1.0000
  H   H908      1.0  0.57922  0.24216  0.43062  1.0000
  H   H909      1.0  0.57583  0.29488  0.43444  1.0000
  H   H910      1.0  0.49130  0.33925  0.53290  1.0000
  H   H911      1.0  0.57656  0.44257  0.52796  1.0000
  S   S226      1.0  0.49057  0.34073  0.62861  1.0000
  H   H912      1.0  0.68780  0.39596  0.55983  1.0000
  H   H913      1.0  0.72277  0.37643  0.37968  1.0000
  Fe  Fe112     1.0  0.53962  0.06179  0.33793  1.0000
  C   C563      1.0  0.66424  0.44615  0.61031  1.0000
  S   S227      1.0  0.54578  0.99528  0.33889  1.0000
  S   S228      1.0  0.62718  0.48090  0.49121  1.0000
  C   C564      1.0  0.66599  0.47828  0.65516  1.0000
  Fe  Fe113     1.0  0.64601  0.46408  0.50261  1.0000
  H   H914      1.0  0.72842  0.37438  0.34988  1.0000
  H   H915      1.0  0.53028  0.23961  0.33547  1.0000
  H   H916      1.0  0.55673  0.33373  0.53524  1.0000
  C   C565      1.0  0.48537  0.39252  0.56572  1.0000
  H   H917      1.0  0.69465  0.03700  0.33796  1.0000
  C   C566      1.0  0.52399  0.21422  0.33661  1.0000
  C   C567      1.0  0.51861  0.47076  0.41068  1.0000
  H   H918      1.0  0.51487  0.22751  0.33952  1.0000
  H   H919      1.0  0.49956  0.47293  0.40883  1.0000
  C   C568      1.0  0.70173  0.01256  0.33825  1.0000
  C   C569      1.0  0.68565  0.12006  0.33045  1.0000
  H   H920      1.0  0.73128  0.33291  0.37025  1.0000
  C   C570      1.0  0.73049  0.36669  0.36825  1.0000
  S   S229      1.0  0.48635  0.24611  0.64678  1.0000
  H   H921      1.0  0.67965  0.98526  0.34523  1.0000
  Fe  Fe114     1.0  0.56293  0.42321  0.79800  1.0000
  S   S230      1.0  0.55670  0.43470  0.83507  1.0000
  S   S231      1.0  0.58108  0.40946  0.77965  1.0000
  Fe  Fe115     1.0  0.53727  0.42527  0.78110  1.0000
  S   S232      1.0  0.52923  0.43728  0.81665  1.0000
  S   S233      1.0  0.52793  0.43200  0.74679  1.0000
  H   H922      1.0  0.63867  0.04753  0.96503  1.0000
  Fe  Fe116     1.0  0.54255  0.38925  0.82980  1.0000
  S   S234      1.0  0.53478  0.33742  0.85316  1.0000
  C   C571      1.0  0.60182  0.99250  0.97241  1.0000
  S   S235      1.0  0.54955  0.37486  0.79382  1.0000
  Fe  Fe117     1.0  0.71720  0.17531  0.88708  1.0000
  S   S236      1.0  0.71645  0.20375  0.85097  1.0000
  S   S237      1.0  0.70616  0.12059  0.89788  1.0000
  Fe  Fe118     1.0  0.71968  0.26270  0.86711  1.0000
  S   S238      1.0  0.71113  0.32427  0.85677  1.0000
  S   S239      1.0  0.71877  0.23525  0.90372  1.0000
  H   H923      1.0  0.50310  0.99619  0.89937  1.0000
  H   H924      1.0  0.62309  0.42846  0.75571  1.0000
  H   H925      1.0  0.56667  0.34432  0.75834  1.0000
  Fe  Fe119     1.0  0.55110  0.14042  0.93869  1.0000
  S   S240      1.0  0.56007  0.11937  0.97150  1.0000
  S   S241      1.0  0.55687  0.20335  0.92440  1.0000
  Fe  Fe120     1.0  0.53753  0.06127  0.93788  1.0000
  S   S242      1.0  0.54557  0.03476  0.97025  1.0000
  H   H926      1.0  0.56051  0.38581  0.68858  1.0000
  Fe  Fe121     1.0  0.56293  0.05896  0.95542  1.0000
  S   S243      1.0  0.57963  0.01755  0.95842  1.0000
  S   S244      1.0  0.53303  0.12254  0.95318  1.0000
  S   S245      1.0  0.55514  0.08090  0.92148  1.0000
  H   H927      1.0  0.63755  0.41372  0.84820  1.0000
  S   S246      1.0  0.65431  0.43164  0.74106  1.0000
  H   H928      1.0  0.71434  0.10090  0.97505  1.0000
  Fe  Fe122     1.0  0.67008  0.41880  0.76335  1.0000
  S   S247      1.0  0.67461  0.35416  0.77662  1.0000
  H   H929      1.0  0.71040  0.31496  0.78560  1.0000
  H   H930      1.0  0.53485  0.30442  0.95773  1.0000
  C   C572      1.0  0.59290  0.02358  0.97315  1.0000
  C   C573      1.0  0.63930  0.15027  0.95519  1.0000
  C   C574      1.0  0.72199  0.09215  0.96314  1.0000
  H   H931      1.0  0.64323  0.44012  0.82228  1.0000
  C   C575      1.0  0.54071  0.27990  0.96541  1.0000
  C   C576      1.0  0.69780  0.11316  0.92433  1.0000
  C   C577      1.0  0.69538  0.14482  0.93939  1.0000
  C   C578      1.0  0.68932  0.13701  0.96093  1.0000
  C   C579      1.0  0.68552  0.09769  0.96745  1.0000
  C   C580      1.0  0.68770  0.06623  0.95219  1.0000
  C   C581      1.0  0.69382  0.07400  0.93070  1.0000
  H   H932      1.0  0.69816  0.17530  0.93442  1.0000
  C   C582      1.0  0.72383  0.16212  0.94923  1.0000
  H   H933      1.0  0.68476  0.03586  0.95699  1.0000
  H   H934      1.0  0.69561  0.04939  0.91907  1.0000
  C   C583      1.0  0.70075  0.33180  0.83484  1.0000
  C   C584      1.0  0.69491  0.29931  0.82622  1.0000
  C   C585      1.0  0.68691  0.30651  0.80839  1.0000
  C   C586      1.0  0.68464  0.34623  0.79912  1.0000
  C   C587      1.0  0.69037  0.37873  0.80794  1.0000
  C   C588      1.0  0.69837  0.37151  0.82574  1.0000
  H   H935      1.0  0.69648  0.26874  0.83346  1.0000
  H   H936      1.0  0.68244  0.28123  0.80178  1.0000
  H   H937      1.0  0.68871  0.40946  0.80097  1.0000
  H   H938      1.0  0.70280  0.39684  0.83237  1.0000
  C   C589      1.0  0.54146  0.29921  0.87175  1.0000
  C   C590      1.0  0.53489  0.26502  0.87934  1.0000
  C   C591      1.0  0.53959  0.23467  0.89478  1.0000
  C   C592      1.0  0.55086  0.23860  0.90327  1.0000
  C   C593      1.0  0.55740  0.27286  0.89578  1.0000
  C   C594      1.0  0.55280  0.30278  0.87995  1.0000
  H   H939      1.0  0.52611  0.26191  0.87310  1.0000
  H   H940      1.0  0.53446  0.20844  0.90018  1.0000
  H   H941      1.0  0.56612  0.27632  0.90225  1.0000
  H   H942      1.0  0.55794  0.32895  0.87443  1.0000
  C   C595      1.0  0.51948  0.39582  0.73338  1.0000
  C   C596      1.0  0.51441  0.40689  0.71210  1.0000
  C   C597      1.0  0.50784  0.37897  0.70057  1.0000
  C   C598      1.0  0.50632  0.33950  0.71016  1.0000
  C   C599      1.0  0.51142  0.32843  0.73142  1.0000
  C   C600      1.0  0.51794  0.35639  0.74300  1.0000
  H   H943      1.0  0.51557  0.43725  0.70443  1.0000
  C   C601      1.0  0.61227  0.99504  0.98467  1.0000
  H   H944      1.0  0.51033  0.29797  0.73900  1.0000
  H   H945      1.0  0.52177  0.34737  0.75936  1.0000
  Fe  Fe123     1.0  0.48793  0.30667  0.66312  1.0000
  C   C602      1.0  0.71655  0.23467  0.78821  1.0000
  C   C603      1.0  0.71752  0.30433  0.77302  1.0000
  C   C604      1.0  0.59499  0.43303  0.78136  1.0000
  Fe  Fe124     1.0  0.64969  0.48040  0.76635  1.0000
  N   N58       1.0  0.73028  0.12582  0.95892  1.0000
  H   H946      1.0  0.54693  0.26943  0.95113  1.0000
  H   H947      1.0  0.62848  0.42212  0.82354  1.0000
  Fe  Fe125     1.0  0.54227  0.09690  0.98444  1.0000
  N   N59       1.0  0.72444  0.26916  0.78291  1.0000
  H   H948      1.0  0.66213  0.12430  0.95351  1.0000
  H   H949      1.0  0.63460  0.33912  0.84835  1.0000
  H   H950      1.0  0.64552  0.17469  0.95840  1.0000
  H   H951      1.0  0.65239  0.13271  0.99246  1.0000
  S   S248      1.0  0.49820  0.30274  0.69647  1.0000
  S   S249      1.0  0.65766  0.99539  0.98564  1.0000
  H   H952      1.0  0.72645  0.06442  0.97093  1.0000
  H   H953      1.0  0.63780  0.15138  0.93626  1.0000
  H   H954      1.0  0.50399  0.38794  0.68423  1.0000
  S   S250      1.0  0.66502  0.46556  0.78938  1.0000
  H   H955      1.0  0.70927  0.24281  0.80101  1.0000
  N   N60       1.0  0.53378  0.24583  0.97597  1.0000
  C   C605      1.0  0.52683  0.22858  0.95800  1.0000
  H   H956      1.0  0.55849  0.41365  0.75018  1.0000
  H   H957      1.0  0.62521  0.34766  0.82425  1.0000
  H   H958      1.0  0.68754  0.16158  0.97258  1.0000
  Fe  Fe126     1.0  0.54370  0.48175  0.81960  1.0000
  C   C606      1.0  0.54969  0.35314  0.72718  1.0000
  C   C607      1.0  0.65553  0.10100  0.95051  1.0000
  N   N61       1.0  0.64407  0.10981  0.96314  1.0000
  H   H959      1.0  0.54348  0.37138  0.71605  1.0000
  C   C608      1.0  0.59673  0.46335  0.79693  1.0000
  H   H960      1.0  0.72970  0.18855  0.94645  1.0000
  S   S251      1.0  0.52229  0.03377  0.91995  1.0000
  H   H961      1.0  0.66381  0.41655  0.66832  1.0000
  H   H962      1.0  0.71315  0.29647  0.75705  1.0000
  H   H963      1.0  0.52086  0.25211  0.94972  1.0000
  H   H964      1.0  0.62677  0.08450  0.96764  1.0000
  H   H965      1.0  0.71623  0.17173  0.96096  1.0000
  H   H966      1.0  0.51926  0.28467  0.98808  1.0000
  C   C609      1.0  0.54195  0.21393  0.98562  1.0000
  H   H967      1.0  0.73039  0.24773  0.74954  1.0000
  Fe  Fe127     1.0  0.66569  0.47812  0.72128  1.0000
  S   S252      1.0  0.55096  0.47265  0.78317  1.0000
  H   H968      1.0  0.54613  0.29366  0.97837  1.0000
  H   H969      1.0  0.58944  0.47338  0.80839  1.0000
  N   N62       1.0  0.64217  0.37522  0.81971  1.0000
  C   C610      1.0  0.65450  0.36686  0.82659  1.0000
  C   C611      1.0  0.63458  0.34203  0.82907  1.0000
  H   H970      1.0  0.64586  0.34956  0.78635  1.0000
  H   H971      1.0  0.64707  0.40362  0.78670  1.0000
  H   H972      1.0  0.65510  0.36513  0.84578  1.0000
  H   H973      1.0  0.65820  0.33759  0.81982  1.0000
  H   H974      1.0  0.54835  0.20252  0.97195  1.0000
  H   H975      1.0  0.57542  0.37861  0.69793  1.0000
  H   H976      1.0  0.57023  0.31121  0.73497  1.0000
  C   C612      1.0  0.60464  0.42049  0.76664  1.0000
  H   H977      1.0  0.63767  0.31216  0.82220  1.0000
  C   C613      1.0  0.64192  0.37764  0.79413  1.0000
  C   C614      1.0  0.63766  0.41438  0.82892  1.0000
  H   H978      1.0  0.54596  0.35471  0.74534  1.0000
  H   H979      1.0  0.63411  0.07681  0.93977  1.0000
  C   C615      1.0  0.56975  0.34364  0.73975  1.0000
  N   N63       1.0  0.56182  0.36878  0.72475  1.0000
  H   H980      1.0  0.71824  0.08340  0.94667  1.0000
  H   H981      1.0  0.63273  0.38246  0.78826  1.0000
  H   H982      1.0  0.57892  0.35518  0.73869  1.0000
  S   S253      1.0  0.68183  0.46050  0.74151  1.0000
  H   H983      1.0  0.48558  0.22484  0.71346  1.0000
  H   H984      1.0  0.72149  0.20765  0.79578  1.0000
  H   H985      1.0  0.66050  0.39104  0.81950  1.0000
  C   C616      1.0  0.56159  0.41149  0.73175  1.0000
  C   C617      1.0  0.59461  0.05753  0.98616  1.0000
  C   C618      1.0  0.56627  0.36700  0.70031  1.0000
  C   C619      1.0  0.61584  0.43812  0.76734  1.0000
  H   H986      1.0  0.54948  0.32082  0.72234  1.0000
  H   H987      1.0  0.56654  0.33518  0.69443  1.0000
  H   H988      1.0  0.60343  0.39713  0.75448  1.0000
  H   H989      1.0  0.53710  0.18723  0.99330  1.0000
  H   H990      1.0  0.52126  0.20341  0.96536  1.0000
  C   C620      1.0  0.63555  0.07836  0.95861  1.0000
  H   H991      1.0  0.72030  0.15605  0.93215  1.0000
  H   H992      1.0  0.71240  0.22500  0.77238  1.0000
  H   H993      1.0  0.57059  0.42446  0.73017  1.0000
  C   C621      1.0  0.61758  0.46837  0.78298  1.0000
  H   H994      1.0  0.63067  0.15783  0.96445  1.0000
  H   H995      1.0  0.55548  0.43133  0.72126  1.0000
  H   H996      1.0  0.65453  0.10026  0.93147  1.0000
  H   H997      1.0  0.53274  0.21595  0.94389  1.0000
  H   H998      1.0  0.65951  0.07102  0.95640  1.0000
  C   C622      1.0  0.60795  0.48075  0.79777  1.0000
  H   H999      1.0  0.72322  0.33074  0.76852  1.0000
  C   C623      1.0  0.64591  0.10973  0.98831  1.0000
  H   H1000     1.0  0.58795  0.08201  0.98660  1.0000
  H   H1001     1.0  0.72274  0.28900  0.81786  1.0000
  H   H1002     1.0  0.72828  0.14566  0.99385  1.0000
  C   C624      1.0  0.72970  0.28084  0.80444  1.0000
  C   C625      1.0  0.69330  0.85980  0.29516  1.0000
  C   C626      1.0  0.69367  0.97874  0.30664  1.0000
  H   H1003     1.0  0.56744  0.94475  0.01874  1.0000
  H   H1004     1.0  0.59599  0.93365  0.28645  1.0000
  S   S254      1.0  0.65133  0.94011  0.03362  1.0000
  Fe  Fe128     1.0  0.66525  0.93723  0.28064  1.0000
  H   H1005     1.0  0.62664  0.97044  0.21291  1.0000
  S   S255      1.0  0.67026  0.88674  0.30756  1.0000
  C   C627      1.0  0.68433  0.86291  0.31265  1.0000
  H   H1006     1.0  0.55029  0.87683  0.26741  1.0000
  C   C628      1.0  0.50608  0.85851  0.32167  1.0000
  S   S256      1.0  0.64844  0.94137  0.26069  1.0000
  H   H1007     1.0  0.68985  0.91652  0.05855  1.0000
  H   H1008     1.0  0.69868  0.80653  0.06482  1.0000
  H   H1009     1.0  0.71091  0.83601  0.28603  1.0000
  H   H1010     1.0  0.69177  0.87244  0.27786  1.0000
  C   C629      1.0  0.69308  0.85654  0.02853  1.0000
  H   H1011     1.0  0.70283  0.85139  0.02957  1.0000
  C   C630      1.0  0.70415  0.83910  0.29985  1.0000
  Fe  Fe129     1.0  0.66537  0.93899  0.00404  1.0000
  H   H1012     1.0  0.49425  0.59098  0.30246  1.0000
  C   C631      1.0  0.54460  0.83485  0.30725  1.0000
  N   N64       1.0  0.55276  0.86906  0.30409  1.0000
  C   C632      1.0  0.54963  0.89456  0.28337  1.0000
  H   H1013     1.0  0.55562  0.92073  0.28049  1.0000
  S   S257      1.0  0.67181  0.96291  0.08793  1.0000
  C   C633      1.0  0.56512  0.85318  0.30100  1.0000
  H   H1014     1.0  0.56632  0.83441  0.28546  1.0000
  H   H1015     1.0  0.50051  0.55084  0.28511  1.0000
  H   H1016     1.0  0.69026  0.95002  0.30045  1.0000
  N   N65       1.0  0.68689  0.85398  0.05170  1.0000
  C   C634      1.0  0.65820  0.96592  0.16516  1.0000
  H   H1017     1.0  0.57142  0.87862  0.29864  1.0000
  C   C635      1.0  0.67403  0.86120  0.04917  1.0000
  H   H1018     1.0  0.67031  0.83836  0.03813  1.0000
  C   C636      1.0  0.69134  0.88522  0.06637  1.0000
  H   H1019     1.0  0.50956  0.51876  0.32039  1.0000
  H   H1020     1.0  0.69152  0.88700  0.01969  1.0000
  H   H1021     1.0  0.67219  0.89151  0.04061  1.0000
  H   H1022     1.0  0.54642  0.81561  0.32316  1.0000
  H   H1023     1.0  0.68668  0.88477  0.08385  1.0000
  H   H1024     1.0  0.66902  0.86053  0.06628  1.0000
  H   H1025     1.0  0.50171  0.86919  0.30615  1.0000
  C   C637      1.0  0.65011  0.96660  0.14728  1.0000
  H   H1026     1.0  0.70101  0.88076  0.06883  1.0000
  H   H1027     1.0  0.68153  0.75309  0.32584  1.0000
  H   H1028     1.0  0.68473  0.71192  0.30674  1.0000
  H   H1029     1.0  0.68574  0.78889  0.05201  1.0000
  H   H1030     1.0  0.64071  0.96636  0.15174  1.0000
  S   S258      1.0  0.57383  0.97660  0.29682  1.0000
  H   H1031     1.0  0.64771  0.96724  0.11020  1.0000
  Fe  Fe130     1.0  0.65937  0.97221  0.23128  1.0000
  H   H1032     1.0  0.61693  0.95478  0.28187  1.0000
  H   H1033     1.0  0.68446  0.81018  0.08019  1.0000
  C   C638      1.0  0.59800  0.96522  0.28829  1.0000
  C   C639      1.0  0.68905  0.81303  0.06269  1.0000
  H   H1034     1.0  0.57857  0.98037  0.00909  1.0000
  H   H1035     1.0  0.54036  0.90730  0.28522  1.0000
  C   C640      1.0  0.60991  0.97713  0.28564  1.0000
  H   H1036     1.0  0.70870  0.68704  0.32542  1.0000
  H   H1037     1.0  0.69620  0.74546  0.31318  1.0000
  H   H1038     1.0  0.54945  0.96906  0.04177  1.0000
  C   C641      1.0  0.49272  0.55993  0.29649  1.0000
  C   C642      1.0  0.48883  0.48973  0.30773  1.0000
  N   N66       1.0  0.49084  0.53040  0.31635  1.0000
  C   C643      1.0  0.67034  0.96565  0.15895  1.0000
  S   S259      1.0  0.67644  0.96219  0.25024  1.0000
  H   H1039     1.0  0.68985  0.83362  0.01693  1.0000
  H   H1040     1.0  0.56780  0.83393  0.31637  1.0000
  H   H1041     1.0  0.54532  0.81490  0.29218  1.0000
  H   H1042     1.0  0.68370  0.96431  0.13083  1.0000
  H   H1043     1.0  0.53519  0.84619  0.30905  1.0000
  H   H1044     1.0  0.56437  0.98349  0.99668  1.0000
  C   C644      1.0  0.66621  0.96599  0.11742  1.0000
  C   C645      1.0  0.68831  0.72923  0.32077  1.0000
  Fe  Fe131     1.0  0.66433  0.97653  0.05183  1.0000
  C   C646      1.0  0.65406  0.96705  0.12362  1.0000
  S   S260      1.0  0.65257  0.96392  0.19477  1.0000
  H   H1045     1.0  0.56911  0.96376  0.05957  1.0000
  C   C647      1.0  0.56890  0.97715  0.01325  1.0000
  H   H1046     1.0  0.48480  0.56294  0.28567  1.0000
  S   S261      1.0  0.67854  0.97307  0.02282  1.0000
  H   H1047     1.0  0.55790  0.91963  0.32310  1.0000
  H   H1048     1.0  0.69749  0.65178  0.32020  1.0000
  C   C648      1.0  0.67429  0.96525  0.13529  1.0000
  C   C649      1.0  0.55168  0.89401  0.32475  1.0000
  S   S262      1.0  0.51847  0.92949  0.31518  1.0000
  H   H1049     1.0  0.67670  0.96495  0.17236  1.0000
  C   C650      1.0  0.70628  0.82203  0.32214  1.0000
  H   H1050     1.0  0.71473  0.94970  0.32101  1.0000
  H   H1051     1.0  0.49644  0.80248  0.32538  1.0000
  S   S263      1.0  0.71991  0.79462  0.32669  1.0000
  H   H1052     1.0  0.54255  0.90746  0.32725  1.0000
  H   H1053     1.0  0.70381  0.91203  0.32683  1.0000
  Fe  Fe132     1.0  0.72670  0.75729  0.35831  1.0000
  S   S264      1.0  0.71917  0.75805  0.39502  1.0000
  C   C651      1.0  0.66671  0.50367  0.63476  1.0000
  Fe  Fe133     1.0  0.72098  0.68919  0.39570  1.0000
  S   S265      1.0  0.70609  0.64316  0.40247  1.0000
  C   C652      1.0  0.69604  0.72661  0.35898  1.0000
  C   C653      1.0  0.69748  0.82653  0.33984  1.0000
  H   H1054     1.0  0.66156  0.58674  0.45730  1.0000
  S   S266      1.0  0.68055  0.56054  0.49377  1.0000
  S   S267      1.0  0.48703  0.67291  0.39668  1.0000
  H   H1055     1.0  0.70425  0.74202  0.35265  1.0000
  H   H1056     1.0  0.69831  0.70747  0.37460  1.0000
  C   C654      1.0  0.51732  0.83010  0.36138  1.0000
  H   H1057     1.0  0.63013  0.57399  0.47724  1.0000
  H   H1058     1.0  0.60356  0.49463  0.47505  1.0000
  H   H1059     1.0  0.64810  0.56086  0.45273  1.0000
  S   S268      1.0  0.49283  0.55061  0.38802  1.0000
  Fe  Fe134     1.0  0.49211  0.70734  0.36291  1.0000
  S   S269      1.0  0.50548  0.75785  0.36690  1.0000
  H   H1060     1.0  0.67965  0.84860  0.34871  1.0000
  C   C655      1.0  0.70683  0.94167  0.33239  1.0000
  H   H1061     1.0  0.49121  0.75546  0.41115  1.0000
  C   C656      1.0  0.50691  0.52938  0.39531  1.0000
  C   C657      1.0  0.51737  0.55039  0.39068  1.0000
  N   N67       1.0  0.69148  0.70206  0.34084  1.0000
  H   H1062     1.0  0.66797  0.53591  0.63612  1.0000
  H   H1063     1.0  0.51699  0.58106  0.38301  1.0000
  C   C658      1.0  0.52909  0.49164  0.40595  1.0000
  H   H1064     1.0  0.63032  0.60843  0.50058  1.0000
  C   C659      1.0  0.68091  0.68067  0.35041  1.0000
  H   H1065     1.0  0.53646  0.54784  0.39214  1.0000
  H   H1066     1.0  0.52685  0.88635  0.35784  1.0000
  H   H1067     1.0  0.65648  0.54810  0.47771  1.0000
  H   H1068     1.0  0.63808  0.55989  0.50244  1.0000
  C   C660      1.0  0.70072  0.67180  0.33335  1.0000
  C   C661      1.0  0.50872  0.80589  0.35245  1.0000
  H   H1069     1.0  0.69913  0.81504  0.35727  1.0000
  Fe  Fe135     1.0  0.48784  0.61604  0.37648  1.0000
  H   H1070     1.0  0.50300  0.55829  0.33784  1.0000
  S   S270      1.0  0.72745  0.68874  0.35808  1.0000
  C   C662      1.0  0.69972  0.61916  0.42834  1.0000
  C   C663      1.0  0.70106  0.63391  0.45036  1.0000
  C   C664      1.0  0.69524  0.61529  0.47013  1.0000
  C   C665      1.0  0.68819  0.58122  0.46830  1.0000
  C   C666      1.0  0.68697  0.56610  0.44632  1.0000
  C   C667      1.0  0.69260  0.58521  0.42649  1.0000
  H   H1071     1.0  0.70646  0.66002  0.45214  1.0000
  H   H1072     1.0  0.69626  0.62734  0.48700  1.0000
  H   H1073     1.0  0.68161  0.53992  0.44455  1.0000
  H   H1074     1.0  0.69150  0.57344  0.40959  1.0000
  C   C668      1.0  0.52028  0.86822  0.35060  1.0000
  H   H1075     1.0  0.68938  0.95728  0.36452  1.0000
  H   H1076     1.0  0.52176  0.81924  0.37679  1.0000
  C   C669      1.0  0.51471  0.88267  0.33052  1.0000
  H   H1077     1.0  0.67721  0.66167  0.33725  1.0000
  S   S271      1.0  0.49457  0.64892  0.34369  1.0000
  N   N68       1.0  0.64657  0.60463  0.47946  1.0000
  C   C670      1.0  0.65394  0.61919  0.49762  1.0000
  C   C671      1.0  0.64313  0.63927  0.46366  1.0000
  C   C672      1.0  0.63580  0.58614  0.49039  1.0000
  C   C673      1.0  0.65344  0.57382  0.46610  1.0000
  H   H1078     1.0  0.65663  0.59380  0.50996  1.0000
  H   H1079     1.0  0.64916  0.64294  0.50793  1.0000
  H   H1080     1.0  0.66233  0.63216  0.48999  1.0000
  H   H1081     1.0  0.63762  0.62918  0.44967  1.0000
  H   H1082     1.0  0.63790  0.66313  0.47315  1.0000
  H   H1083     1.0  0.65109  0.65382  0.45519  1.0000
  H   H1084     1.0  0.68942  0.75037  0.36474  1.0000
  H   H1085     1.0  0.67380  0.70264  0.35635  1.0000
  H   H1086     1.0  0.68333  0.93278  0.34082  1.0000
  C   C674      1.0  0.68649  0.84605  0.33499  1.0000
  C   C675      1.0  0.52840  0.53148  0.39587  1.0000
  C   C676      1.0  0.48349  0.76643  0.42219  1.0000
  H   H1087     1.0  0.66638  0.50790  0.59716  1.0000
  H   H1088     1.0  0.68315  0.66010  0.36564  1.0000
  C   C677      1.0  0.50306  0.82055  0.33256  1.0000
  C   C678      1.0  0.68699  0.96173  0.34609  1.0000
  C   C679      1.0  0.66580  0.48785  0.61255  1.0000
  H   H1089     1.0  0.55370  0.87569  0.34086  1.0000
  C   C680      1.0  0.50140  0.52825  0.33060  1.0000
  H   H1090     1.0  0.49528  0.82669  0.39944  1.0000
  H   H1091     1.0  0.70367  0.65186  0.34833  1.0000
  C   C681      1.0  0.50760  0.48946  0.40523  1.0000
  Fe  Fe136     1.0  0.67060  0.50131  0.50136  1.0000
  S   S272      1.0  0.65473  0.50476  0.52684  1.0000
  N   N69       1.0  0.69732  0.97364  0.33086  1.0000
  H   H1092     1.0  0.49096  0.84160  0.42827  1.0000
  H   H1093     1.0  0.50028  0.50621  0.34577  1.0000
  C   C682      1.0  0.48755  0.83636  0.41095  1.0000
  H   H1094     1.0  0.48664  0.76962  0.43993  1.0000
  H   H1095     1.0  0.70976  0.93661  0.35045  1.0000
  H   H1096     1.0  0.48405  0.86607  0.40359  1.0000
  Fe  Fe137     1.0  0.71713  0.70234  0.86876  1.0000
  S   S273      1.0  0.71655  0.69345  0.90787  1.0000
  S   S274      1.0  0.70107  0.67536  0.85261  1.0000
  Fe  Fe138     1.0  0.72187  0.75891  0.90829  1.0000
  S   S275      1.0  0.71694  0.81006  0.93330  1.0000
  S   S276      1.0  0.72132  0.76949  0.86943  1.0000
  S   S277      1.0  0.54185  0.54999  0.82688  1.0000
  Fe  Fe139     1.0  0.49330  0.73589  0.86365  1.0000
  S   S278      1.0  0.50017  0.79208  0.84454  1.0000
  S   S279      1.0  0.49866  0.66786  0.86122  1.0000
  H   H1097     1.0  0.67996  0.63673  0.84070  1.0000
  Fe  Fe140     1.0  0.49813  0.82241  0.87898  1.0000
  S   S280      1.0  0.51417  0.84952  0.89453  1.0000
  H   H1098     1.0  0.49872  0.56846  0.77503  1.0000
  H   H1099     1.0  0.60063  0.96615  0.96233  1.0000
  H   H1100     1.0  0.66727  0.58366  0.70419  1.0000
  N   N70       1.0  0.71315  0.56074  0.88548  1.0000
  H   H1101     1.0  0.69075  0.61946  0.74055  1.0000
  H   H1102     1.0  0.70930  0.60400  0.91184  1.0000
  C   C683      1.0  0.50970  0.97234  0.90302  1.0000
  S   S281      1.0  0.69106  0.54896  0.77492  1.0000
  H   H1103     1.0  0.67571  0.58692  0.81135  1.0000
  H   H1104     1.0  0.53520  0.54268  0.75639  1.0000
  S   S282      1.0  0.66745  0.50030  0.68270  1.0000
  H   H1105     1.0  0.53680  0.95812  0.92569  1.0000
  S   S283      1.0  0.65994  0.52842  0.74536  1.0000
  H   H1106     1.0  0.50273  0.53275  0.75308  1.0000
  C   C684      1.0  0.51616  0.90089  0.90171  1.0000
  C   C685      1.0  0.50766  0.93197  0.89728  1.0000
  C   C686      1.0  0.52665  0.91069  0.91206  1.0000
  H   H1107     1.0  0.60915  0.50415  0.80992  1.0000
  H   H1108     1.0  0.61901  0.97079  0.98396  1.0000
  C   C687      1.0  0.52061  0.59495  0.77984  1.0000
  H   H1109     1.0  0.49956  0.92501  0.88931  1.0000
  C   C688      1.0  0.70116  0.56502  0.87631  1.0000
  H   H1110     1.0  0.52383  0.51899  0.74181  1.0000
  H   H1111     1.0  0.69744  0.59677  0.87771  1.0000
  C   C689      1.0  0.52961  0.58200  0.83615  1.0000
  C   C690      1.0  0.53057  0.62461  0.83338  1.0000
  C   C691      1.0  0.52110  0.65135  0.84020  1.0000
  C   C692      1.0  0.51064  0.63586  0.85062  1.0000
  C   C693      1.0  0.50967  0.59324  0.85321  1.0000
  C   C694      1.0  0.51903  0.56645  0.84585  1.0000
  H   H1112     1.0  0.53867  0.63699  0.82567  1.0000
  H   H1113     1.0  0.52191  0.68386  0.83739  1.0000
  H   H1114     1.0  0.50163  0.58082  0.86121  1.0000
  H   H1115     1.0  0.51815  0.53381  0.84822  1.0000
  H   H1116     1.0  0.52677  0.51910  0.79438  1.0000
  S   S284      1.0  0.49225  0.76475  0.89826  1.0000
  C   C695      1.0  0.68277  0.86097  0.97108  1.0000
  C   C696      1.0  0.68285  0.82275  0.96099  1.0000
  C   C697      1.0  0.69307  0.80713  0.94880  1.0000
  C   C698      1.0  0.70345  0.82928  0.94689  1.0000
  C   C699      1.0  0.70337  0.86749  0.95703  1.0000
  C   C700      1.0  0.69309  0.88346  0.96882  1.0000
  H   H1117     1.0  0.67495  0.80500  0.96261  1.0000
  H   H1118     1.0  0.69297  0.77769  0.94120  1.0000
  C   C701      1.0  0.67427  0.60156  0.69454  1.0000
  H   H1119     1.0  0.69642  0.61231  0.67682  1.0000
  C   C702      1.0  0.69863  0.63947  0.83117  1.0000
  C   C703      1.0  0.70773  0.62453  0.81621  1.0000
  C   C704      1.0  0.70525  0.59659  0.79935  1.0000
  C   C705      1.0  0.69369  0.58267  0.79738  1.0000
  C   C706      1.0  0.68465  0.59700  0.81265  1.0000
  C   C707      1.0  0.68710  0.62537  0.82929  1.0000
  H   H1120     1.0  0.71662  0.63518  0.81727  1.0000
  H   H1121     1.0  0.71233  0.58591  0.78761  1.0000
  H   H1122     1.0  0.52623  0.57250  0.73654  1.0000
  H   H1123     1.0  0.71817  0.50882  0.86544  1.0000
  C   C708      1.0  0.50538  0.56132  0.76079  1.0000
  H   H1124     1.0  0.68311  0.54010  0.72096  1.0000
  H   H1125     1.0  0.67058  0.63304  0.69132  1.0000
  H   H1126     1.0  0.52978  0.59256  0.78619  1.0000
  H   H1127     1.0  0.71133  0.88494  0.95566  1.0000
  H   H1128     1.0  0.69117  0.65748  0.69108  1.0000
  C   C709      1.0  0.72120  0.58811  0.87179  1.0000
  H   H1129     1.0  0.50479  0.58635  0.74717  1.0000
  Fe  Fe141     1.0  0.67568  0.50904  0.76628  1.0000
  N   N71       1.0  0.52979  0.72976  0.89383  1.0000
  C   C710      1.0  0.54002  0.75503  0.89760  1.0000
  C   C711      1.0  0.52414  0.74482  0.87241  1.0000
  C   C712      1.0  0.52111  0.73265  0.91376  1.0000
  C   C713      1.0  0.53380  0.68673  0.89146  1.0000
  H   H1130     1.0  0.54453  0.74470  0.91365  1.0000
  H   H1131     1.0  0.53715  0.78768  0.89942  1.0000
  H   H1132     1.0  0.54669  0.75389  0.88278  1.0000
  H   H1133     1.0  0.51612  0.72747  0.86948  1.0000
  H   H1134     1.0  0.52129  0.77747  0.87332  1.0000
  H   H1135     1.0  0.53029  0.74222  0.85687  1.0000
  H   H1136     1.0  0.51333  0.71358  0.91156  1.0000
  H   H1137     1.0  0.51772  0.76469  0.91572  1.0000
  H   H1138     1.0  0.52511  0.72219  0.93032  1.0000
  H   H1139     1.0  0.52619  0.66709  0.88867  1.0000
  H   H1140     1.0  0.53816  0.67426  0.90726  1.0000
  H   H1141     1.0  0.54022  0.68325  0.87637  1.0000
  H   H1142     1.0  0.51565  0.49347  0.78012  1.0000
  C   C714      1.0  0.51781  0.52302  0.78734  1.0000
  C   C715      1.0  0.69428  0.62521  0.69408  1.0000
  H   H1143     1.0  0.69486  0.54434  0.88592  1.0000
  C   C716      1.0  0.52867  0.95104  0.91787  1.0000
  C   C717      1.0  0.52605  0.54742  0.75017  1.0000
  N   N72       1.0  0.68524  0.60128  0.70750  1.0000
  H   H1144     1.0  0.70664  0.55194  0.92097  1.0000
  C   C718      1.0  0.68978  0.55883  0.71112  1.0000
  H   H1145     1.0  0.67586  0.58736  0.67746  1.0000
  H   H1146     1.0  0.53331  0.88698  0.91552  1.0000
  H   H1147     1.0  0.52022  0.62133  0.76706  1.0000
  H   H1148     1.0  0.51147  0.52879  0.80231  1.0000
  N   N73       1.0  0.51745  0.55673  0.76951  1.0000
  C   C719      1.0  0.68266  0.61932  0.73027  1.0000
  H   H1149     1.0  0.72178  0.58098  0.85311  1.0000
  H   H1150     1.0  0.71183  0.49655  0.89396  1.0000
  H   H1151     1.0  0.72156  0.56939  0.91743  1.0000
  H   H1152     1.0  0.70127  0.55801  0.85760  1.0000
  C   C720      1.0  0.71262  0.57190  0.91002  1.0000
  H   H1153     1.0  0.69793  0.55709  0.72128  1.0000
  C   C721      1.0  0.71766  0.51813  0.88377  1.0000
  H   H1154     1.0  0.71802  0.62041  0.87277  1.0000
  H   H1155     1.0  0.69320  0.91294  0.97634  1.0000
  H   H1156     1.0  0.51453  0.60227  0.79498  1.0000
  H   H1157     1.0  0.67601  0.60157  0.74102  1.0000
  H   H1158     1.0  0.67911  0.65126  0.72833  1.0000
  H   H1159     1.0  0.70268  0.62535  0.70340  1.0000
  H   H1160     1.0  0.69178  0.54398  0.69436  1.0000
  H   H1161     1.0  0.72673  0.51403  0.89050  1.0000
  C   C722      1.0  0.52020  0.98219  0.91331  1.0000
  H   H1162     1.0  0.73033  0.58599  0.87830  1.0000
  S   S285      1.0  0.63158  0.49095  0.78530  1.0000
  S   S286      1.0  0.66989  0.87775  0.98768  1.0000
  Fe  Fe142     1.0  0.78838  0.43664  0.03740  1.0000
  H   H1163     1.0  0.81630  0.36512  0.27357  1.0000
  S   S287      1.0  0.79559  0.38585  0.01508  1.0000
  Fe  Fe143     1.0  0.97264  0.26290  0.09662  1.0000
  H   H1164     1.0  0.92987  0.34367  0.05725  1.0000
  S   S288      1.0  0.96369  0.24457  0.06423  1.0000
  H   H1165     1.0  0.82390  0.36104  0.10914  1.0000
  S   S289      1.0  0.96202  0.28591  0.18143  1.0000
  S   S290      1.0  0.97256  0.22669  0.13084  1.0000
  Fe  Fe144     1.0  0.79322  0.41914  0.25832  1.0000
  S   S291      1.0  0.79008  0.35967  0.27944  1.0000
  S   S292      1.0  0.97193  0.32432  0.11238  1.0000
  S   S293      1.0  0.81001  0.42385  0.23536  1.0000
  Fe  Fe145     1.0  0.92778  0.42687  0.27761  1.0000
  S   S294      1.0  0.78214  0.45850  0.23383  1.0000
  S   S295      1.0  0.94029  0.42686  0.24515  1.0000
  Fe  Fe146     1.0  0.90122  0.43438  0.29140  1.0000
  S   S296      1.0  0.88449  0.42451  0.27119  1.0000
  S   S297      1.0  0.73961  0.29847  0.31874  1.0000
  H   H1166     1.0  0.96989  0.21675  0.22028  1.0000
  C   C723      1.0  0.91074  0.38129  0.22957  1.0000
  S   S298      1.0  0.91440  0.38066  0.28995  1.0000
  C   C724      1.0  0.77597  0.34405  0.29081  1.0000
  C   C725      1.0  0.76542  0.36345  0.28378  1.0000
  H   H1167     1.0  0.91787  0.45876  0.22845  1.0000
  H   H1168     1.0  0.77562  0.40534  0.12361  1.0000
  H   H1169     1.0  0.84353  0.43403  0.24525  1.0000
  H   H1170     1.0  0.89555  0.43206  0.18723  1.0000
  H   H1171     1.0  0.76577  0.38909  0.27132  1.0000
  C   C726      1.0  0.86143  0.43003  0.25726  1.0000
  H   H1172     1.0  0.83172  0.34968  0.27249  1.0000
  S   S299      1.0  0.80249  0.47997  0.02537  1.0000
  C   C727      1.0  0.86949  0.44400  0.27273  1.0000
  H   H1173     1.0  0.82755  0.30553  0.30812  1.0000
  C   C728      1.0  0.84950  0.44476  0.25750  1.0000
  Fe  Fe147     1.0  0.81378  0.47771  0.25605  1.0000
  H   H1174     1.0  0.92733  0.41386  0.19984  1.0000
  C   C729      1.0  0.95596  0.32573  0.19869  1.0000
  C   C730      1.0  0.95809  0.36679  0.19320  1.0000
  C   C731      1.0  0.95330  0.39717  0.20775  1.0000
  C   C732      1.0  0.94629  0.38697  0.22789  1.0000
  C   C733      1.0  0.94405  0.34593  0.23328  1.0000
  C   C734      1.0  0.94890  0.31552  0.21878  1.0000
  H   H1175     1.0  0.96351  0.37515  0.17784  1.0000
  H   H1176     1.0  0.95507  0.42883  0.20340  1.0000
  H   H1177     1.0  0.93870  0.33758  0.24871  1.0000
  H   H1178     1.0  0.94718  0.28385  0.22319  1.0000
  C   C735      1.0  0.93145  0.30465  0.02819  1.0000
  C   C736      1.0  0.93494  0.31902  0.04931  1.0000
  C   C737      1.0  0.94489  0.30153  0.06038  1.0000
  C   C738      1.0  0.95140  0.26907  0.05056  1.0000
  C   C739      1.0  0.94797  0.25496  0.02934  1.0000
  C   C740      1.0  0.93807  0.27266  0.01817  1.0000
  H   H1179     1.0  0.94740  0.31265  0.07671  1.0000
  H   H1180     1.0  0.95289  0.22969  0.02167  1.0000
  H   H1181     1.0  0.83467  0.33463  0.07399  1.0000
  N   N74       1.0  0.90891  0.41326  0.21110  1.0000
  C   C741      1.0  0.78727  0.43573  0.14526  1.0000
  H   H1182     1.0  0.91933  0.38455  0.23777  1.0000
  Fe  Fe148     1.0  0.97295  0.28806  0.14686  1.0000
  C   C742      1.0  0.75439  0.34901  0.29245  1.0000
  H   H1183     1.0  0.82912  0.43895  0.04828  1.0000
  Fe  Fe149     1.0  0.91871  0.39537  0.32627  1.0000
  H   H1184     1.0  0.90360  0.38292  0.24356  1.0000
  C   C743      1.0  0.78813  0.44078  0.10251  1.0000
  H   H1185     1.0  0.84367  0.35617  0.30644  1.0000
  H   H1186     1.0  0.97146  0.20026  0.17936  1.0000
  H   H1187     1.0  0.96503  0.36059  0.99844  1.0000
  Fe  Fe150     1.0  0.80937  0.43040  0.00190  1.0000
  H   H1188     1.0  0.82137  0.45813  0.07359  1.0000
  C   C744      1.0  0.81638  0.40206  0.31429  1.0000
  H   H1189     1.0  0.78342  0.29534  0.31248  1.0000
  H   H1190     1.0  0.78324  0.42340  0.16136  1.0000
  H   H1191     1.0  0.88994  0.41114  0.21478  1.0000
  H   H1192     1.0  0.80152  0.47981  0.08710  1.0000
  S   S300      1.0  0.77567  0.45911  0.01017  1.0000
  N   N75       1.0  0.82630  0.39430  0.07631  1.0000
  C   C745      1.0  0.82552  0.39252  0.10199  1.0000
  S   S301      1.0  0.79760  0.47073  0.28013  1.0000
  C   C746      1.0  0.82856  0.43651  0.06762  1.0000
  H   H1193     1.0  0.83981  0.40955  0.30661  1.0000
  C   C747      1.0  0.78297  0.42550  0.12374  1.0000
  C   C748      1.0  0.80190  0.47717  0.12464  1.0000
  H   H1194     1.0  0.83706  0.44718  0.07368  1.0000
  N   N76       1.0  0.82495  0.37072  0.30548  1.0000
  H   H1195     1.0  0.83382  0.40259  0.10923  1.0000
  S   S302      1.0  0.91878  0.32770  0.01515  1.0000
  H   H1196     1.0  0.81810  0.41251  0.10884  1.0000
  C   C749      1.0  0.84544  0.47378  0.27329  1.0000
  H   H1197     1.0  0.91734  0.43294  0.17842  1.0000
  C   C750      1.0  0.75375  0.31546  0.30848  1.0000
  H   H1198     1.0  0.97373  0.14694  0.18659  1.0000
  Fe  Fe151     1.0  0.79926  0.46727  0.21226  1.0000
  H   H1199     1.0  0.81538  0.38172  0.04829  1.0000
  C   C751      1.0  0.81502  0.38135  0.06758  1.0000
  C   C752      1.0  0.77533  0.31067  0.30698  1.0000
  C   C753      1.0  0.82133  0.32999  0.31456  1.0000
  H   H1200     1.0  0.93541  0.26084  0.00213  1.0000
  H   H1201     1.0  0.74630  0.36388  0.28659  1.0000
  C   C754      1.0  0.95605  0.37571  0.99879  1.0000
  C   C755      1.0  0.97657  0.19160  0.22387  1.0000
  S   S303      1.0  0.78228  0.42674  0.07585  1.0000
  H   H1202     1.0  0.86446  0.40782  0.24486  1.0000
  H   H1203     1.0  0.98123  0.19939  0.23951  1.0000
  H   H1204     1.0  0.81881  0.43318  0.30765  1.0000
  C   C756      1.0  0.86539  0.47281  0.28861  1.0000
  H   H1205     1.0  0.83695  0.36773  0.04864  1.0000
  H   H1206     1.0  0.91085  0.35023  0.22270  1.0000
  H   H1207     1.0  0.82746  0.40284  0.27246  1.0000
  C   C757      1.0  0.90915  0.45386  0.22101  1.0000
  C   C758      1.0  0.79757  0.46708  0.10313  1.0000
  H   H1208     1.0  0.84478  0.37565  0.07422  1.0000
  S   S304      1.0  0.93334  0.43751  0.31370  1.0000
  S   S305      1.0  0.91457  0.48006  0.27777  1.0000
  H   H1209     1.0  0.85013  0.35658  0.00918  1.0000
  C   C759      1.0  0.83611  0.36684  0.06798  1.0000
  H   H1210     1.0  0.80726  0.39688  0.30875  1.0000
  C   C760      1.0  0.82513  0.37212  0.27987  1.0000
  H   H1211     1.0  0.90218  0.45745  0.23518  1.0000
  H   H1212     1.0  0.89675  0.37796  0.19366  1.0000
  H   H1213     1.0  0.81291  0.34989  0.07407  1.0000
  C   C761      1.0  0.79683  0.46152  0.14591  1.0000
  H   H1214     1.0  0.80745  0.40180  0.07312  1.0000
  C   C762      1.0  0.76429  0.29663  0.31594  1.0000
  C   C763      1.0  0.91848  0.40957  0.19279  1.0000
  H   H1215     1.0  0.81229  0.32327  0.30903  1.0000
  H   H1216     1.0  0.91878  0.37897  0.18526  1.0000
  S   S306      1.0  0.82794  0.40064  0.00436  1.0000
  H   H1217     1.0  0.97162  0.16335  0.22823  1.0000
  C   C764      1.0  0.89727  0.40836  0.20119  1.0000
  H   H1218     1.0  0.90768  0.47880  0.20766  1.0000
  H   H1219     1.0  0.95025  0.35692  0.01092  1.0000
  S   S307      1.0  0.80301  0.47470  0.17243  1.0000
  C   C765      1.0  0.97834  0.17616  0.18344  1.0000
  H   H1220     1.0  0.95670  0.40593  0.00647  1.0000
  C   C766      1.0  0.83692  0.37882  0.31309  1.0000
  C   C767      1.0  0.92359  0.46839  0.37751  1.0000
  S   S308      1.0  0.92324  0.35479  0.35833  1.0000
  C   C768      1.0  0.75277  0.00936  0.42569  1.0000
  S   S309      1.0  0.74371  0.25395  0.38394  1.0000
  H   H1221     1.0  0.92258  0.10581  0.39614  1.0000
  H   H1222     1.0  0.77636  0.01911  0.42329  1.0000
  S   S310      1.0  0.75708  0.14298  0.39642  1.0000
  H   H1223     1.0  0.92330  0.46281  0.35877  1.0000
  S   S311      1.0  0.79975  0.03251  0.52195  1.0000
  C   C769      1.0  0.84972  0.05627  0.46128  1.0000
  Fe  Fe152     1.0  0.78431  0.02263  0.49981  1.0000
  S   S312      1.0  0.76822  0.06570  0.49662  1.0000
  Fe  Fe153     1.0  0.90792  0.14285  0.43019  1.0000
  S   S313      1.0  0.89975  0.14418  0.46663  1.0000
  S   S314      1.0  0.90348  0.18337  0.39810  1.0000
  Fe  Fe154     1.0  0.92278  0.06560  0.44090  1.0000
  S   S315      1.0  0.91608  0.06063  0.47823  1.0000
  Fe  Fe155     1.0  0.89783  0.07643  0.46508  1.0000
  S   S316      1.0  0.88311  0.04250  0.48618  1.0000
  Fe  Fe156     1.0  0.91819  0.12823  0.47852  1.0000
  S   S317      1.0  0.92312  0.15880  0.51124  1.0000
  S   S318      1.0  0.90449  0.07572  0.42756  1.0000
  S   S319      1.0  0.92641  0.13263  0.44225  1.0000
  H   H1224     1.0  0.75868  0.09309  0.58169  1.0000
  Fe  Fe157     1.0  0.97652  0.14249  0.65450  1.0000
  H   H1225     1.0  0.76653  0.00210  0.46198  1.0000
  S   S320      1.0  0.97076  0.13097  0.56600  1.0000
  C   C770      1.0  0.75649  0.06546  0.57254  1.0000
  C   C771      1.0  0.93634  0.15012  0.52647  1.0000
  C   C772      1.0  0.93745  0.16906  0.54759  1.0000
  C   C773      1.0  0.94782  0.16315  0.56018  1.0000
  C   C774      1.0  0.95724  0.13844  0.55164  1.0000
  C   C775      1.0  0.95607  0.11926  0.53062  1.0000
  C   C776      1.0  0.94567  0.12484  0.51816  1.0000
  H   H1226     1.0  0.93030  0.18879  0.55414  1.0000
  H   H1227     1.0  0.94860  0.17823  0.57626  1.0000
  H   H1228     1.0  0.96330  0.10016  0.52381  1.0000
  H   H1229     1.0  0.94495  0.11010  0.50195  1.0000
  C   C777      1.0  0.84266  0.03466  0.47813  1.0000
  H   H1230     1.0  0.88686  0.10932  0.52634  1.0000
  C   C778      1.0  0.86205  0.05925  0.46348  1.0000
  C   C779      1.0  0.86754  0.04035  0.48254  1.0000
  H   H1231     1.0  0.93102  0.45267  0.42050  1.0000
  H   H1232     1.0  0.84287  0.99912  0.51040  1.0000
  Fe  Fe158     1.0  0.74171  0.18594  0.38642  1.0000
  C   C780      1.0  0.93601  0.47590  0.40969  1.0000
  H   H1233     1.0  0.84561  0.07102  0.44641  1.0000
  C   C781      1.0  0.76021  0.12507  0.42497  1.0000
  C   C782      1.0  0.77124  0.10533  0.42868  1.0000
  C   C783      1.0  0.77387  0.08802  0.45067  1.0000
  C   C784      1.0  0.76544  0.08989  0.46920  1.0000
  C   C785      1.0  0.75446  0.11019  0.46563  1.0000
  C   C786      1.0  0.75184  0.12779  0.44361  1.0000
  H   H1234     1.0  0.77779  0.10342  0.41442  1.0000
  H   H1235     1.0  0.78244  0.07332  0.45325  1.0000
  H   H1236     1.0  0.74789  0.11198  0.47987  1.0000
  H   H1237     1.0  0.74331  0.14286  0.44096  1.0000
  C   C787      1.0  0.91743  0.30745  0.36922  1.0000
  C   C788      1.0  0.90886  0.28736  0.35782  1.0000
  C   C789      1.0  0.90461  0.24977  0.36709  1.0000
  C   C790      1.0  0.90881  0.23178  0.38788  1.0000
  C   C791      1.0  0.91739  0.25183  0.39927  1.0000
  C   C792      1.0  0.92167  0.28935  0.38996  1.0000
  H   H1238     1.0  0.93866  0.08341  0.34050  1.0000
  H   H1239     1.0  0.89800  0.23456  0.35808  1.0000
  H   H1240     1.0  0.92073  0.23849  0.41526  1.0000
  H   H1241     1.0  0.92829  0.30452  0.39897  1.0000
  H   H1242     1.0  0.75999  0.38437  0.36329  1.0000
  H   H1243     1.0  0.93083  0.17371  0.39038  1.0000
  C   C793      1.0  0.92439  0.10097  0.37742  1.0000
  C   C794      1.0  0.91340  0.08053  0.54856  1.0000
  H   H1244     1.0  0.89632  0.11720  0.57491  1.0000
  C   C795      1.0  0.74397  0.37376  0.39884  1.0000
  H   H1245     1.0  0.74505  0.34005  0.40152  1.0000
  C   C796      1.0  0.89752  0.03803  0.53896  1.0000
  H   H1246     1.0  0.89702  0.06354  0.58261  1.0000
  H   H1247     1.0  0.74778  0.05493  0.57991  1.0000
  C   C797      1.0  0.86049  0.01853  0.49935  1.0000
  N   N77       1.0  0.90044  0.07878  0.54636  1.0000
  Fe  Fe159     1.0  0.81104  0.00320  0.49345  1.0000
  H   H1248     1.0  0.94394  0.11346  0.40019  1.0000
  C   C798      1.0  0.89656  0.11011  0.52889  1.0000
  H   H1249     1.0  0.92480  0.17949  0.36232  1.0000
  C   C799      1.0  0.89429  0.08657  0.56897  1.0000
  H   H1250     1.0  0.91833  0.07543  0.53168  1.0000
  H   H1251     1.0  0.88782  0.03583  0.53680  1.0000
  H   H1252     1.0  0.91592  0.11096  0.55405  1.0000
  S   S321      1.0  0.93789  0.03101  0.42178  1.0000
  C   C800      1.0  0.80045  0.02015  0.62868  1.0000
  H   H1253     1.0  0.91672  0.05720  0.56147  1.0000
  H   H1254     1.0  0.80265  0.05146  0.63083  1.0000
  H   H1255     1.0  0.73819  0.44035  0.35358  1.0000
  H   H1256     1.0  0.91624  0.11144  0.36847  1.0000
  H   H1257     1.0  0.78437  0.02459  0.56564  1.0000
  C   C801      1.0  0.75148  0.37128  0.35899  1.0000
  S   S322      1.0  0.82721  0.03084  0.47373  1.0000
  H   H1258     1.0  0.90111  0.10521  0.51175  1.0000
  H   H1259     1.0  0.91831  0.44442  0.38705  1.0000
  H   H1260     1.0  0.76151  0.00483  0.54374  1.0000
  C   C802      1.0  0.79815  0.99445  0.64855  1.0000
  H   H1261     1.0  0.77023  0.04735  0.60942  1.0000
  H   H1262     1.0  0.89868  0.14138  0.53369  1.0000
  H   H1263     1.0  0.75265  0.33743  0.36027  1.0000
  H   H1264     1.0  0.75130  0.01487  0.40686  1.0000
  H   H1265     1.0  0.80180  0.02605  0.59108  1.0000
  H   H1266     1.0  0.77639  0.05795  0.54590  1.0000
  H   H1267     1.0  0.94717  0.07564  0.37935  1.0000
  C   C803      1.0  0.93267  0.16752  0.37171  1.0000
  Fe  Fe160     1.0  0.97743  0.14767  0.60113  1.0000
  H   H1268     1.0  0.73653  0.38357  0.41096  1.0000
  S   S323      1.0  0.73558  0.18379  0.34975  1.0000
  N   N78       1.0  0.93486  0.12348  0.36844  1.0000
  C   C804      1.0  0.94157  0.42698  0.38081  1.0000
  H   H1269     1.0  0.75537  0.07495  0.55393  1.0000
  H   H1270     1.0  0.90031  0.01347  0.55165  1.0000
  H   H1271     1.0  0.77219  0.99401  0.39818  1.0000
  H   H1272     1.0  0.92572  0.06748  0.37562  1.0000
  H   H1273     1.0  0.78007  0.07522  0.57364  1.0000
  C   C805      1.0  0.77716  0.04846  0.56457  1.0000
  H   H1274     1.0  0.93667  0.40237  0.39068  1.0000
  N   N79       1.0  0.76586  0.03314  0.57488  1.0000
  H   H1275     1.0  0.82106  0.32774  0.33387  1.0000
  H   H1276     1.0  0.90198  0.03143  0.52183  1.0000
  H   H1277     1.0  0.95343  0.12522  0.37505  1.0000
  H   H1278     1.0  0.81598  0.40194  0.33357  1.0000
  C   C806      1.0  0.84814  0.01578  0.49724  1.0000
  H   H1279     1.0  0.75513  0.03901  0.43244  1.0000
  S   S324      1.0  0.97199  0.19294  0.62813  1.0000
  C   C807      1.0  0.94534  0.10892  0.38123  1.0000
  H   H1280     1.0  0.86731  0.07614  0.45039  1.0000
  H   H1281     1.0  0.74994  0.37996  0.34048  1.0000
  H   H1282     1.0  0.75219  0.38745  0.40424  1.0000
  N   N80       1.0  0.93596  0.46759  0.38478  1.0000
  H   H1283     1.0  0.90550  0.30078  0.34188  1.0000
  H   H1284     1.0  0.94038  0.18571  0.36537  1.0000
  H   H1285     1.0  0.95092  0.42511  0.38606  1.0000
  C   C808      1.0  0.77331  0.98984  0.41719  1.0000
  H   H1286     1.0  0.94160  0.41969  0.36217  1.0000
  Fe  Fe161     1.0  0.73614  0.25242  0.34894  1.0000
  C   C809      1.0  0.74007  0.43041  0.37177  1.0000
  S   S325      1.0  0.79562  0.99858  0.47034  1.0000
  H   H1287     1.0  0.83716  0.37776  0.33235  1.0000
  H   H1288     1.0  0.88449  0.08557  0.56784  1.0000
  N   N81       1.0  0.74151  0.38555  0.37446  1.0000
  C   C810      1.0  0.79993  0.00582  0.60602  1.0000
  H   H1289     1.0  0.86462  0.00372  0.51417  1.0000
  H   H1290     1.0  0.74823  0.44568  0.37630  1.0000
  S   S326      1.0  0.98072  0.09582  0.62747  1.0000
  H   H1291     1.0  0.94521  0.47561  0.41577  1.0000
  C   C811      1.0  0.93701  0.11644  0.34348  1.0000
  C   C812      1.0  0.76722  0.02149  0.59969  1.0000
  H   H1292     1.0  0.74420  0.00074  0.43457  1.0000
  H   H1293     1.0  0.97293  0.26666  0.65705  1.0000
  H   H1294     1.0  0.75877  0.01095  0.60824  1.0000
  H   H1295     1.0  0.77393  0.99604  0.60185  1.0000
  H   H1296     1.0  0.92922  0.12703  0.33343  1.0000
  H   H1297     1.0  0.94484  0.13304  0.33611  1.0000
  H   H1298     1.0  0.95603  0.98518  0.39704  1.0000
  C   C813      1.0  0.76260  0.99709  0.56254  1.0000
  S   S327      1.0  0.90471  0.44592  0.32870  1.0000
  H   H1299     1.0  0.76395  0.27077  0.32826  1.0000
  H   H1300     1.0  0.75414  0.98448  0.56987  1.0000
  H   H1301     1.0  0.80814  0.37763  0.91083  1.0000
  H   H1302     1.0  0.88152  0.19199  0.83670  1.0000
  Fe  Fe162     1.0  0.91681  0.04945  0.81935  1.0000
  S   S328      1.0  0.90911  0.05899  0.78416  1.0000
  S   S329      1.0  0.92090  0.11001  0.83521  1.0000
  H   H1303     1.0  0.80678  0.28606  0.91948  1.0000
  S   S330      1.0  0.87690  0.02612  0.79136  1.0000
  Fe  Fe163     1.0  0.92213  0.01021  0.77246  1.0000
  H   H1304     1.0  0.94632  0.00932  0.69439  1.0000
  C   C814      1.0  0.88495  0.16257  0.84451  1.0000
  H   H1305     1.0  0.94431  0.31974  0.97711  1.0000
  S   S331      1.0  0.73685  0.16218  0.88382  1.0000
  H   H1306     1.0  0.90981  0.43004  0.91553  1.0000
  C   C815      1.0  0.93935  0.39970  0.97680  1.0000
  C   C816      1.0  0.88838  0.13277  0.80726  1.0000
  Fe  Fe164     1.0  0.79708  0.98856  0.71459  1.0000
  Fe  Fe165     1.0  0.91921  0.35775  0.92991  1.0000
  S   S332      1.0  0.90898  0.38350  0.96030  1.0000
  S   S333      1.0  0.93360  0.39145  0.90837  1.0000
  Fe  Fe166     1.0  0.90683  0.27565  0.93547  1.0000
  S   S334      1.0  0.89586  0.29618  0.96710  1.0000
  S   S335      1.0  0.90337  0.21151  0.92357  1.0000
  Fe  Fe167     1.0  0.89292  0.35550  0.94677  1.0000
  S   S336      1.0  0.87583  0.39341  0.94005  1.0000
  Fe  Fe168     1.0  0.91283  0.32228  0.97821  1.0000
  H   H1307     1.0  0.73633  0.10479  0.92556  1.0000
  S   S337      1.0  0.90300  0.33380  0.91464  1.0000
  S   S338      1.0  0.92393  0.29769  0.94833  1.0000
  C   C817      1.0  0.86143  0.37197  0.97907  1.0000
  H   H1308     1.0  0.75465  0.03733  0.81163  1.0000
  S   S339      1.0  0.75037  0.22691  0.92907  1.0000
  S   S340      1.0  0.73962  0.25594  0.86283  1.0000
  H   H1309     1.0  0.96443  0.22920  0.67361  1.0000
  C   C818      1.0  0.93165  0.47064  0.92373  1.0000
  C   C819      1.0  0.88655  0.08940  0.84204  1.0000
  S   S341      1.0  0.80869  0.01801  0.73949  1.0000
  Fe  Fe169     1.0  0.79325  0.01448  0.76570  1.0000
  S   S342      1.0  0.78899  0.05819  0.79466  1.0000
  C   C820      1.0  0.75554  0.13882  0.80908  1.0000
  C   C821      1.0  0.76368  0.13030  0.82624  1.0000
  C   C822      1.0  0.77386  0.10549  0.82148  1.0000
  C   C823      1.0  0.77589  0.08839  0.79971  1.0000
  C   C824      1.0  0.76758  0.09597  0.78274  1.0000
  C   C825      1.0  0.75750  0.12138  0.78737  1.0000
  H   H1310     1.0  0.76231  0.14370  0.84296  1.0000
  H   H1311     1.0  0.78027  0.09987  0.83467  1.0000
  H   H1312     1.0  0.76907  0.08308  0.76590  1.0000
  H   H1313     1.0  0.75125  0.12785  0.77398  1.0000
  H   H1314     1.0  0.88103  0.15901  0.86254  1.0000
  C   C826      1.0  0.76777  0.34352  0.95008  1.0000
  C   C827      1.0  0.76201  0.34302  0.92907  1.0000
  C   C828      1.0  0.75651  0.30780  0.92260  1.0000
  C   C829      1.0  0.75684  0.27237  0.93698  1.0000
  C   C830      1.0  0.76265  0.27273  0.95799  1.0000
  C   C831      1.0  0.76802  0.30822  0.96462  1.0000
  H   H1315     1.0  0.76176  0.37016  0.91770  1.0000
  H   H1316     1.0  0.75209  0.30797  0.90640  1.0000
  H   H1317     1.0  0.76294  0.24546  0.96923  1.0000
  H   H1318     1.0  0.82388  0.33665  0.96294  1.0000
  H   H1319     1.0  0.89409  0.43355  0.86065  1.0000
  C   C832      1.0  0.96776  0.26068  0.67376  1.0000
  Fe  Fe170     1.0  0.73850  0.22423  0.89832  1.0000
  C   C833      1.0  0.86251  0.39460  0.95799  1.0000
  H   H1320     1.0  0.93960  0.43101  0.98324  1.0000
  C   C834      1.0  0.80240  0.36573  0.92563  1.0000
  C   C835      1.0  0.97944  0.30738  0.69322  1.0000
  C   C836      1.0  0.73401  0.25670  0.76605  1.0000
  H   H1321     1.0  0.92552  0.45941  0.93731  1.0000
  C   C837      1.0  0.91635  0.13679  0.86054  1.0000
  C   C838      1.0  0.91960  0.17757  0.86188  1.0000
  C   C839      1.0  0.91582  0.20082  0.88104  1.0000
  C   C840      1.0  0.90871  0.18356  0.89918  1.0000
  C   C841      1.0  0.90547  0.14274  0.89786  1.0000
  C   C842      1.0  0.90931  0.11940  0.87879  1.0000
  H   H1322     1.0  0.92507  0.19138  0.84795  1.0000
  H   H1323     1.0  0.91842  0.23208  0.88176  1.0000
  H   H1324     1.0  0.90006  0.12892  0.91188  1.0000
  H   H1325     1.0  0.90693  0.08789  0.87839  1.0000
  C   C843      1.0  0.94160  0.04451  0.72428  1.0000
  C   C844      1.0  0.94319  0.08133  0.73474  1.0000
  C   C845      1.0  0.95053  0.11092  0.72364  1.0000
  C   C846      1.0  0.95640  0.10411  0.70201  1.0000
  C   C847      1.0  0.95485  0.06724  0.69157  1.0000
  C   C848      1.0  0.94748  0.03764  0.70266  1.0000
  H   H1326     1.0  0.93875  0.08705  0.75137  1.0000
  H   H1327     1.0  0.95168  0.13925  0.73191  1.0000
  C   C849      1.0  0.95048  0.33890  0.96605  1.0000
  H   H1328     1.0  0.95992  0.28214  0.67399  1.0000
  S   S343      1.0  0.93242  0.00620  0.73750  1.0000
  C   C850      1.0  0.93708  0.44378  0.90804  1.0000
  H   H1329     1.0  0.74417  0.00100  0.80409  1.0000
  H   H1330     1.0  0.88850  0.41462  0.88878  1.0000
  H   H1331     1.0  0.86883  0.35284  0.98479  1.0000
  N   N82       1.0  0.80898  0.33660  0.94098  1.0000
  H   H1332     1.0  0.84866  0.02841  0.70572  1.0000
  H   H1333     1.0  0.73525  0.25543  0.81201  1.0000
  H   H1334     1.0  0.90353  0.40282  0.87907  1.0000
  H   H1335     1.0  0.79465  0.35141  0.91847  1.0000
  H   H1336     1.0  0.74031  0.10927  0.98881  1.0000
  C   C851      1.0  0.94532  0.45895  0.89101  1.0000
  C   C852      1.0  0.84106  0.39905  0.98589  1.0000
  H   H1337     1.0  0.95929  0.06156  0.67495  1.0000
  H   H1338     1.0  0.74612  0.13863  0.93800  1.0000
  H   H1339     1.0  0.79675  0.34584  0.97006  1.0000
  C   C853      1.0  0.95918  0.40472  0.95971  1.0000
  H   H1340     1.0  0.95573  0.40834  0.94193  1.0000
  H   H1341     1.0  0.85349  0.43699  0.93463  1.0000
  C   C854      1.0  0.75080  0.00739  0.81695  1.0000
  C   C855      1.0  0.85275  0.41924  0.95087  1.0000
  H   H1342     1.0  0.95996  0.43587  0.96615  1.0000
  C   C856      1.0  0.81393  0.30239  0.92740  1.0000
  H   H1343     1.0  0.89468  0.16525  0.84589  1.0000
  H   H1344     1.0  0.79878  0.39242  0.93522  1.0000
  C   C857      1.0  0.73992  0.11337  0.94221  1.0000
  H   H1345     1.0  0.86455  0.12233  0.84509  1.0000
  C   C858      1.0  0.91125  0.47862  0.87691  1.0000
  Fe  Fe171     1.0  0.78436  0.41294  0.98669  1.0000
  N   N83       1.0  0.88230  0.12785  0.83045  1.0000
  C   C859      1.0  0.80083  0.32071  0.95981  1.0000
  S   S344      1.0  0.96549  0.14277  0.68886  1.0000
  S   S345      1.0  0.77488  0.38861  0.95654  1.0000
  H   H1346     1.0  0.82511  0.36996  0.93743  1.0000
  H   H1347     1.0  0.86582  0.15478  0.81911  1.0000
  S   S346      1.0  0.93085  0.00338  0.80670  1.0000
  H   H1348     1.0  0.81890  0.27974  0.93851  1.0000
  Fe  Fe172     1.0  0.73631  0.19462  0.84885  1.0000
  H   H1349     1.0  0.85228  0.04896  0.78735  1.0000
  H   H1350     1.0  0.89820  0.13344  0.80858  1.0000
  H   H1351     1.0  0.95926  0.32239  0.96527  1.0000
  C   C860      1.0  0.84260  0.00262  0.70888  1.0000
  H   H1352     1.0  0.93321  0.38216  0.98881  1.0000
  H   H1353     1.0  0.77238  0.30819  0.98087  1.0000
  H   H1354     1.0  0.73933  0.23002  0.77309  1.0000
  S   S347      1.0  0.79886  0.01472  0.67671  1.0000
  H   H1355     1.0  0.96010  0.27843  0.71703  1.0000
  H   H1356     1.0  0.77317  0.01397  0.82987  1.0000
  H   H1357     1.0  0.88409  0.06248  0.83257  1.0000
  H   H1358     1.0  0.88278  0.08566  0.86015  1.0000
  C   C861      1.0  0.81875  0.35753  0.95109  1.0000
  C   C862      1.0  0.85350  0.01847  0.78116  1.0000
  S   S348      1.0  0.78113  0.99160  0.73993  1.0000
  S   S349      1.0  0.74306  0.17225  0.81364  1.0000
  H   H1359     1.0  0.79339  0.30451  0.95280  1.0000
  H   H1360     1.0  0.74597  0.01102  0.83405  1.0000
  Fe  Fe173     1.0  0.89667  0.00901  0.79561  1.0000
  H   H1361     1.0  0.89637  0.08819  0.84278  1.0000
  H   H1362     1.0  0.83500  0.01388  0.77354  1.0000
  H   H1363     1.0  0.94715  0.34089  0.94816  1.0000
  H   H1364     1.0  0.88547  0.16153  0.79798  1.0000
  C   C863      1.0  0.84208  0.42148  0.96471  1.0000
  S   S350      1.0  0.79858  0.45475  0.97222  1.0000
  C   C864      1.0  0.86937  0.12639  0.82791  1.0000
  H   H1365     1.0  0.86718  0.10035  0.81733  1.0000
  C   C865      1.0  0.96794  0.25705  0.71557  1.0000
  H   H1366     1.0  0.81534  0.38349  0.96147  1.0000
  H   H1367     1.0  0.83474  0.44094  0.95910  1.0000
  H   H1368     1.0  0.94962  0.43844  0.87884  1.0000
  H   H1369     1.0  0.88656  0.10708  0.79619  1.0000
  H   H1370     1.0  0.74161  0.16135  0.97814  1.0000
  C   C866      1.0  0.84366  0.99862  0.77332  1.0000
  H   H1371     1.0  0.89480  0.44385  0.92417  1.0000
  H   H1372     1.0  0.97196  0.33034  0.69415  1.0000
  H   H1373     1.0  0.96826  0.39051  0.95807  1.0000
  H   H1374     1.0  0.77028  0.99988  0.78890  1.0000
  N   N84       1.0  0.97511  0.26539  0.69386  1.0000
  C   C867      1.0  0.89642  0.42726  0.87899  1.0000
  C   C868      1.0  0.86485  0.99920  0.78120  1.0000
  H   H1375     1.0  0.82016  0.31325  0.91308  1.0000
  H   H1376     1.0  0.82254  0.03876  0.69333  1.0000
  N   N85       1.0  0.83651  0.99351  0.68774  1.0000
  N   N86       1.0  0.95128  0.37977  0.97536  1.0000
  H   H1377     1.0  0.80549  0.29916  0.97203  1.0000
  S   S351      1.0  0.90390  0.00127  0.83140  1.0000
  C   C869      1.0  0.85078  0.37422  0.99290  1.0000
  H   H1378     1.0  0.96458  0.22543  0.71630  1.0000
  C   C870      1.0  0.82942  0.02982  0.67984  1.0000
  H   H1379     1.0  0.90589  0.48169  0.92262  1.0000
  H   H1380     1.0  0.76464  0.98791  0.85274  1.0000
  N   N87       1.0  0.90035  0.46432  0.88951  1.0000
  H   H1381     1.0  0.93538  0.40203  0.95953  1.0000
  C   C871      1.0  0.90282  0.45462  0.91405  1.0000
  C   C872      1.0  0.73535  0.13591  0.98095  1.0000
  H   H1382     1.0  0.85152  0.00750  0.66482  1.0000
  H   H1383     1.0  0.83505  0.05651  0.67578  1.0000
  H   H1384     1.0  0.83613  0.01080  0.72325  1.0000
  H   H1385     1.0  0.91847  0.45453  0.87717  1.0000
  H   H1386     1.0  0.97324  0.25991  0.73110  1.0000
  H   H1387     1.0  0.74519  0.08665  0.94912  1.0000
  H   H1388     1.0  0.82461  0.02388  0.66402  1.0000
  H   H1389     1.0  0.74024  0.28176  0.76187  1.0000
  H   H1390     1.0  0.98243  0.20410  0.69396  1.0000
  H   H1391     1.0  0.73543  0.30756  0.80133  1.0000
  C   C873      1.0  0.76885  0.98475  0.83507  1.0000
  H   H1392     1.0  0.81418  0.64491  0.25564  1.0000
  H   H1393     1.0  0.81919  0.59235  0.25915  1.0000
  C   C874      1.0  0.76818  0.53941  0.09024  1.0000
  C   C875      1.0  0.76274  0.61907  0.29113  1.0000
  S   S352      1.0  0.80414  0.52180  0.23191  1.0000
  C   C876      1.0  0.75940  0.63751  0.31218  1.0000
  Fe  Fe174     1.0  0.78770  0.51061  0.25465  1.0000
  S   S353      1.0  0.77521  0.56491  0.26331  1.0000
  C   C877      1.0  0.77046  0.58446  0.29065  1.0000
  C   C878      1.0  0.80459  0.57196  0.29507  1.0000
  H   H1394     1.0  0.76731  0.60115  0.04122  1.0000
  H   H1395     1.0  0.77384  0.55815  0.10050  1.0000
  H   H1396     1.0  0.77068  0.50680  0.09435  1.0000
  C   C879      1.0  0.79706  0.64140  0.29016  1.0000
  H   H1397     1.0  0.81461  0.62758  0.31960  1.0000
  H   H1398     1.0  0.78044  0.54108  0.31168  1.0000
  C   C880      1.0  0.81150  0.61407  0.26223  1.0000
  H   H1399     1.0  0.80134  0.57056  0.31360  1.0000
  H   H1400     1.0  0.85047  0.50993  0.30120  1.0000
  C   C881      1.0  0.78230  0.54304  0.05753  1.0000
  H   H1401     1.0  0.76331  0.52989  0.03313  1.0000
  C   C882      1.0  0.94491  0.57381  0.32497  1.0000
  C   C883      1.0  0.76612  0.59272  0.06013  1.0000
  N   N88       1.0  0.76972  0.54960  0.06506  1.0000
  H   H1402     1.0  0.75275  0.52709  0.05746  1.0000
  H   H1403     1.0  0.78378  0.55004  0.03855  1.0000
  H   H1404     1.0  0.75881  0.54439  0.09665  1.0000
  H   H1405     1.0  0.75940  0.63203  0.27505  1.0000
  H   H1406     1.0  0.94662  0.54674  0.31522  1.0000
  N   N89       1.0  0.80762  0.61381  0.28707  1.0000
  H   H1407     1.0  0.77151  0.61362  0.06958  1.0000
  H   H1408     1.0  0.76484  0.49024  0.05552  1.0000
  H   H1409     1.0  0.96293  0.59389  0.32033  1.0000
  H   H1410     1.0  0.78818  0.56261  0.06676  1.0000
  H   H1411     1.0  0.80424  0.60484  0.25142  1.0000
  H   H1412     1.0  0.82536  0.60707  0.29883  1.0000
  H   H1413     1.0  0.78977  0.63274  0.27928  1.0000
  C   C884      1.0  0.77470  0.56812  0.31161  1.0000
  C   C885      1.0  0.81730  0.62751  0.30078  1.0000
  H   H1414     1.0  0.81989  0.65896  0.29516  1.0000
  H   H1415     1.0  0.78529  0.51085  0.06108  1.0000
  H   H1416     1.0  0.79749  0.56049  0.28471  1.0000
  H   H1417     1.0  0.75663  0.59880  0.06536  1.0000
  H   H1418     1.0  0.81237  0.55037  0.29327  1.0000
  H   H1419     1.0  0.75357  0.66437  0.31220  1.0000
  C   C886      1.0  0.76232  0.52307  0.05222  1.0000
  H   H1420     1.0  0.79910  0.67356  0.28511  1.0000
  H   H1421     1.0  0.87144  0.48395  0.30062  1.0000
  Fe  Fe175     1.0  0.79015  0.49975  0.99677  1.0000
  H   H1422     1.0  0.80924  0.49739  0.12486  1.0000
  C   C887      1.0  0.85347  0.48755  0.28886  1.0000
  S   S354      1.0  0.83043  0.49324  0.27476  1.0000
  H   H1423     1.0  0.79346  0.64040  0.30850  1.0000
  Fe  Fe176     1.0  0.91930  0.48755  0.31476  1.0000
  Fe  Fe177     1.0  0.74582  0.69102  0.37054  1.0000
  H   H1424     1.0  0.95979  0.88269  0.47359  1.0000
  C   C888      1.0  0.95741  0.85193  0.46843  1.0000
  C   C889      1.0  0.76392  0.62191  0.33305  1.0000
  S   S355      1.0  0.74291  0.80137  0.43306  1.0000
  S   S356      1.0  0.74581  0.75996  0.36806  1.0000
  Fe  Fe178     1.0  0.79284  0.93649  0.48721  1.0000
  Fe  Fe179     1.0  0.79679  0.96833  0.53615  1.0000
  S   S357      1.0  0.79011  0.88642  0.46170  1.0000
  H   H1425     1.0  0.98095  0.83411  0.43109  1.0000
  H   H1426     1.0  0.77147  0.95036  0.45838  1.0000
  H   H1427     1.0  0.95758  0.79186  0.43861  1.0000
  S   S358      1.0  0.80902  0.93915  0.50868  1.0000
  C   C890      1.0  0.93156  0.61760  0.34723  1.0000
  C   C891      1.0  0.76412  0.97284  0.45482  1.0000
  C   C892      1.0  0.93953  0.97806  0.41702  1.0000
  Fe  Fe180     1.0  0.96006  0.81148  0.38247  1.0000
  S   S359      1.0  0.96592  0.74859  0.39566  1.0000
  S   S360      1.0  0.94476  0.84117  0.40366  1.0000
  Fe  Fe181     1.0  0.96785  0.73160  0.35832  1.0000
  H   H1428     1.0  0.84633  0.91034  0.47733  1.0000
  C   C893      1.0  0.93350  0.58197  0.33467  1.0000
  H   H1429     1.0  0.83115  0.85194  0.45164  1.0000
  H   H1430     1.0  0.83946  0.94629  0.41752  1.0000
  C   C894      1.0  0.95123  0.92210  0.39953  1.0000
  C   C895      1.0  0.94291  0.89413  0.40826  1.0000
  C   C896      1.0  0.93294  0.90830  0.42151  1.0000
  C   C897      1.0  0.93123  0.95007  0.42584  1.0000
  S   S361      1.0  0.76094  0.64601  0.35980  1.0000
  H   H1431     1.0  0.95892  0.91169  0.38925  1.0000
  H   H1432     1.0  0.92644  0.88689  0.42832  1.0000
  C   C898      1.0  0.83659  0.87505  0.44169  1.0000
  S   S362      1.0  0.96059  0.79298  0.34524  1.0000
  C   C899      1.0  0.94081  0.64472  0.34998  1.0000
  H   H1433     1.0  0.81900  0.95835  0.45344  1.0000
  H   H1434     1.0  0.92282  0.62440  0.35488  1.0000
  H   H1435     1.0  0.84102  0.97506  0.65314  1.0000
  C   C900      1.0  0.75851  0.93854  0.42110  1.0000
  C   C901      1.0  0.83675  0.91712  0.47480  1.0000
  H   H1436     1.0  0.93862  0.53017  0.37371  1.0000
  H   H1437     1.0  0.81548  0.90566  0.45803  1.0000
  N   N90       1.0  0.76217  0.97765  0.42969  1.0000
  H   H1438     1.0  0.75605  0.96219  0.46482  1.0000
  Fe  Fe182     1.0  0.73841  0.75712  0.40507  1.0000
  H   H1439     1.0  0.93910  0.67193  0.35961  1.0000
  H   H1440     1.0  0.83935  0.97776  0.44199  1.0000
  H   H1441     1.0  0.97985  0.85237  0.48276  1.0000
  Fe  Fe183     1.0  0.97957  0.81288  0.34386  1.0000
  C   C902      1.0  0.75630  0.82334  0.44108  1.0000
  C   C903      1.0  0.76716  0.81763  0.42870  1.0000
  C   C904      1.0  0.77742  0.83653  0.43551  1.0000
  C   C905      1.0  0.77699  0.86153  0.45473  1.0000
  C   C906      1.0  0.76615  0.86701  0.46722  1.0000
  C   C907      1.0  0.75590  0.84819  0.46038  1.0000
  H   H1442     1.0  0.76767  0.79859  0.41387  1.0000
  H   H1443     1.0  0.78573  0.83180  0.42571  1.0000
  H   H1444     1.0  0.76565  0.88551  0.48226  1.0000
  H   H1445     1.0  0.74759  0.85261  0.47023  1.0000
  N   N91       1.0  0.83396  0.91638  0.45007  1.0000
  C   C908      1.0  0.79535  0.95401  0.64536  1.0000
  H   H1446     1.0  0.83459  0.94759  0.48182  1.0000
  S   S363      1.0  0.79545  0.94591  0.57470  1.0000
  S   S364      1.0  0.96446  0.66880  0.34374  1.0000
  H   H1447     1.0  0.97198  0.77022  0.44487  1.0000
  S   S365      1.0  0.73955  0.68805  0.40843  1.0000
  H   H1448     1.0  0.76956  0.97220  0.56387  1.0000
  S   S366      1.0  0.97837  0.83606  0.38011  1.0000
  H   H1449     1.0  0.79246  0.90849  0.62059  1.0000
  H   H1450     1.0  0.97633  0.88157  0.44355  1.0000
  S   S367      1.0  0.78058  0.96029  0.51555  1.0000
  H   H1451     1.0  0.92348  0.96058  0.43591  1.0000
  C   C909      1.0  0.97677  0.82271  0.47720  1.0000
  H   H1452     1.0  0.79354  0.93373  0.66034  1.0000
  C   C910      1.0  0.79475  0.93975  0.62271  1.0000
  C   C911      1.0  0.97323  0.85142  0.43887  1.0000
  C   C912      1.0  0.94261  0.49912  0.37106  1.0000
  H   H1453     1.0  0.95315  0.83576  0.48384  1.0000
  C   C913      1.0  0.84125  0.94618  0.43629  1.0000
  H   H1454     1.0  0.95203  0.49936  0.37578  1.0000
  C   C914      1.0  0.77158  0.58711  0.33259  1.0000
  C   C915      1.0  0.79701  0.96545  0.60283  1.0000
  H   H1455     1.0  0.84610  0.86582  0.44349  1.0000
  N   N92       1.0  0.96792  0.82864  0.45922  1.0000
  H   H1456     1.0  0.75651  0.94144  0.40242  1.0000
  S   S368      1.0  0.92156  0.54779  0.33290  1.0000
  H   H1457     1.0  0.83156  0.89452  0.48568  1.0000
  C   C916      1.0  0.94955  0.96381  0.40393  1.0000
  H   H1458     1.0  0.85090  0.93960  0.43814  1.0000
  H   H1459     1.0  0.77509  0.57471  0.34864  1.0000
  H   H1460     1.0  0.97309  0.80564  0.49287  1.0000
  H   H1461     1.0  0.93181  0.50635  0.41319  1.0000
  H   H1462     1.0  0.81875  0.92636  0.42920  1.0000
  H   H1463     1.0  0.95059  0.85656  0.45511  1.0000
  H   H1464     1.0  0.83463  0.87342  0.42306  1.0000
  C   C917      1.0  0.82125  0.92711  0.44756  1.0000
  H   H1465     1.0  0.96670  0.85718  0.42518  1.0000
  H   H1466     1.0  0.78058  0.96648  0.41997  1.0000
  C   C918      1.0  0.96428  0.78847  0.45216  1.0000
  H   H1467     1.0  0.76562  0.91442  0.42291  1.0000
  H   H1468     1.0  0.96026  0.77026  0.46707  1.0000
  C   C919      1.0  0.95223  0.63648  0.34037  1.0000
  H   H1469     1.0  0.75047  0.92709  0.43092  1.0000
  H   H1470     1.0  0.91905  0.49861  0.38013  1.0000
  H   H1471     1.0  0.94254  0.49420  0.35211  1.0000
  C   C920      1.0  0.95417  0.60072  0.32791  1.0000
  C   C921      1.0  0.94300  0.91679  0.76731  1.0000
  S   S369      1.0  0.74135  0.74046  0.90686  1.0000
  S   S370      1.0  0.75755  0.77823  0.85306  1.0000
  Fe  Fe184     1.0  0.91731  0.95574  0.81589  1.0000
  S   S371      1.0  0.74342  0.61510  0.91840  1.0000
  H   H1472     1.0  0.96284  0.81570  0.87886  1.0000
  S   S372      1.0  0.92019  0.89090  0.83207  1.0000
  S   S373      1.0  0.97837  0.58849  0.88130  1.0000
  Fe  Fe185     1.0  0.95944  0.61202  0.88086  1.0000
  S   S374      1.0  0.96386  0.67505  0.89098  1.0000
  S   S375      1.0  0.94432  0.58108  0.90181  1.0000
  Fe  Fe186     1.0  0.96587  0.69178  0.85285  1.0000
  S   S376      1.0  0.96317  0.75783  0.83815  1.0000
  N   N93       1.0  0.93789  0.88346  0.75518  1.0000
  S   S377      1.0  0.95998  0.63022  0.84258  1.0000
  H   H1473     1.0  0.95345  0.87496  0.73276  1.0000
  H   H1474     1.0  0.93600  0.92017  0.72362  1.0000
  C   C922      1.0  0.96362  0.79599  0.89499  1.0000
  Fe  Fe187     1.0  0.78727  0.92918  0.75361  1.0000
  H   H1475     1.0  0.89361  0.52485  0.89617  1.0000
  S   S378      1.0  0.77209  0.88535  0.76117  1.0000
  C   C923      1.0  0.75467  0.93556  0.82561  1.0000
  H   H1476     1.0  0.85761  0.90936  0.75908  1.0000
  C   C924      1.0  0.93063  0.90097  0.73631  1.0000
  Fe  Fe188     1.0  0.97929  0.60962  0.84346  1.0000
  H   H1477     1.0  0.94407  0.83174  0.73598  1.0000
  S   S379      1.0  0.80234  0.92454  0.72642  1.0000
  C   C925      1.0  0.94215  0.52781  0.90443  1.0000
  C   C926      1.0  0.94788  0.50070  0.88925  1.0000
  H   H1478     1.0  0.82358  0.95187  0.67770  1.0000
  N   N94       1.0  0.76011  0.97464  0.81821  1.0000
  H   H1479     1.0  0.74969  0.93748  0.84266  1.0000
  H   H1480     1.0  0.77392  0.64403  0.97379  1.0000
  C   C927      1.0  0.93037  0.85892  0.77180  1.0000
  S   S380      1.0  0.83303  0.93307  0.75438  1.0000
  H   H1481     1.0  0.92967  0.53321  0.93367  1.0000
  C   C928      1.0  0.93238  0.85494  0.83450  1.0000
  C   C929      1.0  0.93017  0.81471  0.84270  1.0000
  C   C930      1.0  0.93943  0.78469  0.84418  1.0000
  C   C931      1.0  0.95107  0.79442  0.83726  1.0000
  C   C932      1.0  0.95331  0.83478  0.82929  1.0000
  C   C933      1.0  0.94407  0.86491  0.82813  1.0000
  H   H1482     1.0  0.92118  0.80660  0.84783  1.0000
  H   H1483     1.0  0.93752  0.75393  0.85040  1.0000
  H   H1484     1.0  0.96229  0.84287  0.82411  1.0000
  H   H1485     1.0  0.94598  0.89590  0.82243  1.0000
  H   H1486     1.0  0.92329  0.87812  0.78050  1.0000
  H   H1487     1.0  0.95323  0.84357  0.75914  1.0000
  H   H1488     1.0  0.77607  0.96083  0.83622  1.0000
  H   H1489     1.0  0.85083  0.95490  0.67476  1.0000
  H   H1490     1.0  0.95410  0.51207  0.87582  1.0000
  C   C934      1.0  0.75487  0.60276  0.93799  1.0000
  C   C935      1.0  0.76053  0.63243  0.94963  1.0000
  C   C936      1.0  0.76963  0.62087  0.96485  1.0000
  C   C937      1.0  0.77313  0.57959  0.96875  1.0000
  C   C938      1.0  0.76741  0.55001  0.95719  1.0000
  C   C939      1.0  0.75837  0.56156  0.94194  1.0000
  H   H1491     1.0  0.75781  0.66416  0.94712  1.0000
  C   C940      1.0  0.84504  0.95908  0.76534  1.0000
  H   H1492     1.0  0.76996  0.51813  0.95994  1.0000
  H   H1493     1.0  0.75406  0.53826  0.93314  1.0000
  C   C941      1.0  0.76112  0.80930  0.82771  1.0000
  C   C942      1.0  0.75330  0.81641  0.80982  1.0000
  C   C943      1.0  0.75681  0.83983  0.78965  1.0000
  C   C944      1.0  0.76808  0.85687  0.78721  1.0000
  C   C945      1.0  0.77582  0.85045  0.80532  1.0000
  C   C946      1.0  0.77237  0.82662  0.82536  1.0000
  H   H1494     1.0  0.74465  0.80324  0.81129  1.0000
  H   H1495     1.0  0.75076  0.84447  0.77573  1.0000
  H   H1496     1.0  0.78454  0.86312  0.80367  1.0000
  H   H1497     1.0  0.77851  0.82132  0.83905  1.0000
  H   H1498     1.0  0.88874  0.50465  0.87001  1.0000
  H   H1499     1.0  0.92596  0.83451  0.76313  1.0000
  H   H1500     1.0  0.82195  0.96667  0.70708  1.0000
  C   C947      1.0  0.93407  0.51248  0.92173  1.0000
  C   C948      1.0  0.86624  0.95972  0.77313  1.0000
  H   H1501     1.0  0.95777  0.80975  0.90881  1.0000
  C   C949      1.0  0.76617  0.97086  0.79513  1.0000
  Fe  Fe189     1.0  0.74057  0.74816  0.86794  1.0000
  H   H1502     1.0  0.94881  0.90486  0.78123  1.0000
  H   H1503     1.0  0.94836  0.93698  0.75514  1.0000
  Fe  Fe190     1.0  0.81351  0.95430  0.75202  1.0000
  H   H1504     1.0  0.87488  0.94439  0.77305  1.0000
  H   H1505     1.0  0.92662  0.87686  0.72668  1.0000
  C   C950      1.0  0.82859  0.95918  0.69303  1.0000
  H   H1506     1.0  0.74841  0.92606  0.81272  1.0000
  H   H1507     1.0  0.93565  0.84392  0.78576  1.0000
  H   H1508     1.0  0.83356  0.93115  0.69919  1.0000
  N   N95       1.0  0.77784  0.69423  0.88952  1.0000
  C   C951      1.0  0.77376  0.72724  0.90485  1.0000
  C   C952      1.0  0.78507  0.71151  0.86963  1.0000
  C   C953      1.0  0.76745  0.67469  0.88088  1.0000
  C   C954      1.0  0.78502  0.66350  0.90271  1.0000
  H   H1509     1.0  0.76812  0.71543  0.91987  1.0000
  H   H1510     1.0  0.76835  0.75106  0.89538  1.0000
  H   H1511     1.0  0.78134  0.74264  0.91181  1.0000
  H   H1512     1.0  0.78820  0.68757  0.85755  1.0000
  H   H1513     1.0  0.77986  0.73486  0.85936  1.0000
  H   H1514     1.0  0.79297  0.72666  0.87545  1.0000
  H   H1515     1.0  0.76196  0.69685  0.87050  1.0000
  H   H1516     1.0  0.76164  0.66220  0.89543  1.0000
  H   H1517     1.0  0.77013  0.64912  0.86958  1.0000
  H   H1518     1.0  0.78827  0.63819  0.89164  1.0000
  H   H1519     1.0  0.77976  0.64959  0.91767  1.0000
  H   H1520     1.0  0.79288  0.67719  0.90973  1.0000
  H   H1521     1.0  0.76151  0.91051  0.82739  1.0000
  C   C955      1.0  0.84538  0.98228  0.66926  1.0000
  H   H1522     1.0  0.90970  0.48709  0.85841  1.0000
  H   H1523     1.0  0.95996  0.76607  0.89134  1.0000
  Fe  Fe191     1.0  0.98286  0.65263  0.88834  1.0000
  H   H1524     1.0  0.97335  0.73448  0.92100  1.0000
  C   C956      1.0  0.97669  0.76539  0.92336  1.0000
  N   N96       1.0  0.97607  0.79139  0.90180  1.0000
  C   C957      1.0  0.85640  0.93990  0.76522  1.0000
  H   H1525     1.0  0.77335  0.94679  0.79556  1.0000
  C   C958      1.0  0.89090  0.49656  0.88829  1.0000
  H   H1526     1.0  0.98031  0.85222  0.88973  1.0000
  S   S381      1.0  0.79892  0.95230  0.78011  1.0000
  H   H1527     1.0  0.93593  0.93652  0.77549  1.0000
  C   C959      1.0  0.94759  0.85723  0.74529  1.0000
  H   H1528     1.0  0.92328  0.92115  0.74319  1.0000
  S   S382      1.0  0.90909  0.96053  0.78100  1.0000
  H   H1529     1.0  0.91473  0.50574  0.88489  1.0000
  H   H1530     1.0  0.84795  0.97570  0.71545  1.0000
  H   H1531     1.0  0.75997  0.96244  0.78188  1.0000
  H   H1532     1.0  0.98014  0.74175  0.87964  1.0000
  H   H1533     1.0  0.97132  0.77878  0.93797  1.0000
  C   C960      1.0  0.98062  0.83195  0.90573  1.0000
  Fe  Fe192     1.0  0.73599  0.67619  0.90343  1.0000
  S   S383      1.0  0.73635  0.68205  0.86434  1.0000
  H   H1534     1.0  0.88260  0.48655  0.89783  1.0000
  S   S384      1.0  0.78461  0.56618  0.98812  1.0000
  H   H1535     1.0  0.97529  0.84733  0.91973  1.0000
  H   H1536     1.0  0.98304  0.79076  0.86640  1.0000
