data_image0
_chemical_formula_structural       S2FeSFeS2FeS2FeSFeS3Fe2S2FeSHS2FeS2FeS2FeSFeS3FeS2CH3NSHFeSCHCHC6H4CHC6H4SC6H5CHSH2NC6H4C6H9C6H5C2H2C2FeH3C2H4CSH4C2H4FeCNCHC3SHCH3CFeH5CFeH2S2CH4CH2CNC4H13NHNC4H12NC4H12N2CHC2H4CH5C4H7NCHCH3CH3C3HCH4NH2CH2SC3H3C2SH3SCH3CH3C2H2NH2SFeHSCHSHFeS2FeS2FeSFeS4FeSHSFeS3HSCFeHCHSHFeS2HCH2C2HSHFeHC2HCHC2HFeH3CSHC7H4SCH2FeC6H4C6H4CSCH4C2HFeH3NC4H12NHCHCHSCHCS2CHCHCNC4H11SHNC4H11CSH2FeHCHCHFeC2HC2FeC2H2SHSHSNH2C3FeH2CFeCHFeHSFeSHFeSC2SCHCNS2HFeS2FeHSHFeHS2H3S2H2SFeSH5SFeS2FeC2SCHFeCSC6H4SH2NC6H6C4HSCHC3HC2SH2CH2SHC2H2FeCSHC3HSH8FeSH2C3HCH2C6H3SHNHSHC3H4FeHCH4NHCHC3HFeH2NH3CHFeCHC2H3C2SC2H4CH2C3HC2H2FeC2H2NC4H9CH5NH6FeH3CH5S2HC2HCHC2FeC2H2CHFeS2H2CFeS2FeS2FeSFeS4H2FeSC2FeSFeC2NH2CHSHCHCH2C5H3C6H8NC2HC6H4CH5CHSHC2H2NH2NH5C5H6FeHC6H5SFeH4CHFeCHSH2SHCHCHCHCH3C2H3C2HCH2NHC3H4C2HS2HNHCSCH2SH6C3HS2H4C2H2CFeNH2C2NH4SHSH2CSH3SFeHC2H2CHS2FeSCFeSH3FeS2HSFeS2NCSH2SFeH2FeSCHSFeHFeSNSH2FeS2FeSHFeSFeS3C2H2CHCHC6H3C6FeH3CH2CSC2SFeH2C7H5CH5CH2CH4C6HCH2SHFeHCH3S2C7H3NC4H14CSH2SH2SHCH3CHNC4H12C2H3CSH2CFeSHSHC4HCH2SCHC2HC2HC2SHCH5NHCS2CH2CH3NHFeH2CH6FeHCHCHC2SHCHSH5FeH2SH3S2CFeCS2CHSFeSFeCSHCS2FeHSH3SHFeSFeSCHCS2H2CSCSHFeSHFe2HSFeHC6HSH4CH3CHC6H4CH2N2C2HC3H2CSCH2CHFe2H2CHCHC3H6C6H3CHCH3FeH2CH4NH3C2HSCHCHFeHCHSH2CSC2SH5C3HC2H2CH2NCNC2H3CH8CNSH2SH4C2H5NC4H11SH2CH2C3H5CHCSFeH2NH3SHSFeSFeSFe2SFeS3CFeS2FeS2FeSFeS3CSFeS2FeSFeS2HFeSHFeS2H3C6H3CH3CH2CH2C6H4C4H2C7H4C2NHCHC6H5CH2CHCH4CH3C3H2NHSH4SH2FeH3C2H2CH2CH3CHCH3CH4CNC3HSCHNC2H8NC4H12C3NH2FeSHCHSH3NC4H13CHSCNCSH5CH2C3H2SHCHC5HFeH4CFeS2FeS2Fe2S3FeS2FeS2FeSFeS3FeSFeS2FeS2FeSFeS3HSCFeS2FeS2C2HC6H4C6H4C6H6C7H4C6SH3C6H5CH3C4HNSNCH2CH2SH2NH4NC2SH3C2HC2HFeCH8CHNC4H13CH8C2H4N2C3H12C3H4CH3CH4CHCH3CSH5FeHFeC4HC2H4CHC2H2CHCH3NCH4CHCNH2CHCH2CSH6CH2SC2SH2NHS3FeS2FeS2FeSFeS3CHSFeHC2H2CHSHSFeS2CH2CNH3NC6H4C6H6CH2C6H7C6H4NC4H14SH2CNC4H13FeH2FeCH2FeHCH3SH3C2FeCH5C2NC3H4C2HSNCHSH4CH2C2H6SH3CHC2HSHCHC2H2CFeCHCH2FeS2FeS2FeSFeS3H2C2S2FeS2FeS2FeSFeS3CHSFeS2FeS2FeSFeS3C6H6C6H4C2H3NC3H3C2SH2C6H6CHC6H5CHC4H4C2H5CHC2HCH5CHNH6NC2HC2H3CH5CNHNC3H7NC4H16FeCHC5H3CH10C2H2NCH2CH2C2H2NH4CNHC2H3CHC2H2FeH3CH7CH2CHCH8C4HSFeS2FeS2FeS2FeSFeS3FeS2FeS2FeSFeS3FeS2FeS2FeSFeS3C2H4C3HC2HC5HCNC3H3CHC2HC4NHC6H4C6H4C6H4C6H5NC4H12CH8CHCH6NC2HCSH2NCH2CHCH9C2H2CHCHNC4H13NC4H15CHCH11CH6CHSH2SCSHFe2S2FeS2FeSFeS3NHFeSCFeSFeS2HCHFeS2HCHCSCSFeSFeSFeHSFeHSHCHSHFeSHSHCH4CNH2NH2CH5CH3CSC4HCH4C6H4C6H4C6H4C6H4NC4H12SC2H3C2HSH4C2SH2NC4H9NC4HSH2SHSHFeH3CH3SHC2HNH2C2H3FeHNH3SFeHCHSCSHCHCH2FeH2CHCHCHFe2S2FeS2FeSFeS3FeHSHCHSCSFeS2FeHSFeH2S2FeHSCH2CH2FeHFeS2HFeS2H6CH2NHCNH3SCHCH2C2HCNC2HCH3SHCH4C6H4C6H4C6H4C6H4NC2NH5C2SH4C3H4C2H5CHCNC4H13FeH5C5SHCHCH5FeCHSHCHCFeCFeSH3CSHCSCH4CNSC2FeH2FeHFeSHCSFeSHFeS2FeS2FeSFeS3FeS2FeS2FeSFeS3FeS2FeS2FeSFeS3C2H3C2HC3H2CH4C4H4NHC3H2CH3C6H4C6H4C6H4C7H4NC4H12CNHCH3C2H2CHCNHC4HC2SC2H2C3H4CH2NH4C2H3CH6NH3CH5CH4CH7NHSNC4H16CHCH4CH3CH2CH2CNHCHCS2HFeS2FeS2FeSFeS3FeS2FeS2FeSFeS3H2SHFeCSH3FeS2FeS2FeSFeS3C6H7C6H4CH2C6H6C2H2CH3CHSHC6H8C2H9CH2CH4C2HNH4C2H6C2H2CH5C3HC2HC2H2CNHCHCNH4NC4H12NC3HFeH2C2H2SH3CNC5HCH5NH4CHCH3CNCHCH5CSCSFeS2FeS2FeS2FeSFeS3FeCSH4SCH2SC2FeHS3H3CH2CHC7H4C6H4CH3C6H4C2SH5C6H4NC4H15FeCFeC2H10SHFeHCH2C3NC2HFeH2SFeHCHCHSH5CHN2H5SCH3CSC2H2CNHNH2CH2SH3FeCHC2HSH3CHCH2SFeH10C2FeHSHFeS2FeS2FeSFeS3FeHFeS2FeSCS2FeS2FeS2Fe2S3FeS2H2FeS2FeS2H2SC2H3C3HC2HCHC6H4C6H5CHC6H4C6H5C3H2C6H6CHCH3SCH3NC4H12NC3H9NC4H10CHSCHC2S2HNHSCH2CS2NH4CH2C2H3CH2C2H2CNHCHCHCHC2HSNCH11CH3C2H2CH3SCFeH3FeH2SCHNHCSCHFeSFeS2FeS2FeSFeS3CSFeS2FeSFeSFeHS2HSFeS2FeHFeHS2HSCSHSC6H3CN2CHC4HC2HC6H4CHCH2C6H5C6H10CHCH4SHCH4CHFeHC2H2S2H5NCH2FeCH3C2H2C2Fe2H7NCH7NC4SHC2H4CH3C2NC2H3CHSH2C3H2C3H7CNH2C2H8CHC2H3CHSHCHCHNH2C2SNFeC2H3CH2CH5CH4FeH4SCH4CNFeHSHC2SCSHSFeSC3HSHFeSCH7CFeS2FeHCHFeSCS2H2SH4SFeHS2HC2HC6H4C6H4CH2NSCHC2HNHSC3H2CHFeCH5FeCHC2HCH2SC2HSHSHC6H6CFeH6CHCH7SHCHC2HC2H4C3H3SH3CFeHCH2FeNHCHCH2SHSH3SH3SHC3N2HNC4H9C2H2SH3C2FeCSCH2S2CHNH2S2C2FeH2FeCSHC2SHFeSCHSH2FeS2FeSHFeSFeS3HCFeNHCHCSNHSHSHSHFeSFeS3C6H6FeH4CNC7H7CH2C3H4C3FeHC2H4CH3NHCHCHCHCSH2CSC4H3CHFeCHSC6H5C2HCHCHNHCHCH3NH2CH3CH3CH2C2HCHFeC2H6CHSNHFeHNHCH5CH2CH2CHCHC2HCH3SH2CHCSHCHCHFeCHFeCH2CH3C2HSCH3NC2HSHC2HNCH4C2H6SCNCSH5SC2HC2HCH3SFeCHS3C2SHSH3S2HSHCHCSHSFeCSH3FeSFeS2FeS2FeSFeCS2C2HC2SH2C6H4C6HFeH4FeSH4C7HCH2CFeSCHCH3C2H2FeH2C3HC2H8C6H6NHCHCH2CH3FeH2C3HCHNH11CHNC4H13C2HC2HSC2H5CH3NH2CNC2FeH2C2H2C2H6NHCH4SCHSC3H2NSCH3C2H2SCH4SH2SH3FeNCFeCH2CSHFeSHFeHSFeHSH2S3HSH2SCHSHFeH2FeSCNCS2HFeHSFeCSFeS2C2HCS2H3CHC4FeCHC3H2C6H4C2HC3HFeHSCHC2H2C6H4NH2SCHCHCHC2H5CH2C2HFeH3C6H2NH3FeCHSHCSH2NC4H12NSHNHCH4SH5FeCH3FeC2SC2H2SCSCH2NC2H2CH2SHCH6NH3CHSHCHCSCHCH4CFeH3SHCHC2H2SHFeHSHCH4CSCH4FeC2NH2SC2HCHFeS2FeS2FeSFeS3HSFeSFe2SFeHSHFeCFeS2HFeHS2CH2C4H5CSHCNH2C6H4CHC2SFeHC6H5SH2CSC6H7SH4C2H3NC4H3CHCH5C2H4C2SCHSH3FeSH2C2H2C2H2C3HNC4H13C2HSCHCH2FeSC2H2NC4H12FeHNC4H10CH2SH4CSH2CHSCHC2NHNSCSH3SCN2FeCNFeS2FeHS2FeS2FeS2FeSFeS4CSHFeSHFeS2FeS2FeSFeS4HFe2S2FeS2HFeS2H2C6H4C6H4C6H7C2HC3HCH2C6H4C6H3SH3CHCH3CHCH2FeSHNH2C2H3CH2SH2C3NCHC2HSH5FeCHFeH4CH7CH5NC4H15C2HCNC4H13C2HCH4CHSHNC5HSC2HCHCH2CH2C2H2CH4
_chemical_formula_sum              "S768 Fe384 H3072 C1920 N192"
_cell_length_a       67.0809
_cell_length_b       66.9281
_cell_length_c       85.8017
_cell_angle_alpha    80.5119
_cell_angle_beta     80.6236
_cell_angle_gamma    80.2244

_space_group_name_H-M_alt    "P 1"
_space_group_IT_number       1

loop_
  _space_group_symop_operation_xyz
  'x, y, z'

loop_
  _atom_site_type_symbol
  _atom_site_label
  _atom_site_symmetry_multiplicity
  _atom_site_fract_x
  _atom_site_fract_y
  _atom_site_fract_z
  _atom_site_occupancy
  S   S1        1.0  0.99755  0.27966  0.06461  1.0000
  S   S2        1.0  0.20512  0.00114  0.06666  1.0000
  Fe  Fe1       1.0  0.20096  0.00891  0.09171  1.0000
  S   S3        1.0  0.20755  0.03923  0.09685  1.0000
  Fe  Fe2       1.0  0.15500  0.15887  0.17110  1.0000
  S   S4        1.0  0.16370  0.18759  0.15591  1.0000
  S   S5        1.0  0.14819  0.15312  0.19811  1.0000
  Fe  Fe3       1.0  0.16004  0.13518  0.14228  1.0000
  S   S6        1.0  0.16984  0.16206  0.12504  1.0000
  S   S7        1.0  0.15155  0.10628  0.13572  1.0000
  Fe  Fe4       1.0  0.18857  0.16637  0.14353  1.0000
  S   S8        1.0  0.22228  0.16979  0.14014  1.0000
  Fe  Fe5       1.0  0.14401  0.18092  0.13884  1.0000
  S   S9        1.0  0.12265  0.20518  0.12519  1.0000
  S   S10       1.0  0.18080  0.13772  0.15964  1.0000
  S   S11       1.0  0.13328  0.15398  0.15516  1.0000
  Fe  Fe6       1.0  0.24872  0.45078  0.08132  1.0000
  Fe  Fe7       1.0  0.23213  0.42745  0.11282  1.0000
  S   S12       1.0  0.20458  0.45150  0.11591  1.0000
  S   S13       1.0  0.23458  0.40070  0.13282  1.0000
  Fe  Fe8       1.0  0.20283  0.45199  0.08994  1.0000
  S   S14       1.0  0.17251  0.45679  0.07980  1.0000
  H   H1        1.0  0.07149  0.00910  0.05225  1.0000
  S   S15       1.0  0.22861  0.42600  0.08747  1.0000
  S   S16       1.0  0.25438  0.45005  0.10669  1.0000
  Fe  Fe9       1.0  0.06784  0.40482  0.01710  1.0000
  S   S17       1.0  0.04165  0.39398  0.03430  1.0000
  S   S18       1.0  0.06080  0.41666  0.99200  1.0000
  Fe  Fe10      1.0  0.09473  0.40188  0.04377  1.0000
  S   S19       1.0  0.06955  0.39182  0.06266  1.0000
  S   S20       1.0  0.12716  0.39797  0.05031  1.0000
  Fe  Fe11      1.0  0.06508  0.37091  0.04592  1.0000
  S   S21       1.0  0.06722  0.33652  0.05416  1.0000
  Fe  Fe12      1.0  0.04851  0.41598  0.04922  1.0000
  S   S22       1.0  0.02069  0.43568  0.06032  1.0000
  S   S23       1.0  0.09097  0.38000  0.02735  1.0000
  S   S24       1.0  0.07390  0.42782  0.03160  1.0000
  Fe  Fe13      1.0  0.01389  0.20766  0.09722  1.0000
  S   S25       1.0  0.01289  0.21700  0.07080  1.0000
  S   S26       1.0  0.03871  0.18629  0.10950  1.0000
  C   C1        1.0  0.99640  0.47308  0.05899  1.0000
  H   H2        1.0  0.19538  0.19581  0.18694  1.0000
  H   H3        1.0  0.22643  0.18294  0.20904  1.0000
  H   H4        1.0  0.31044  0.36120  0.18982  1.0000
  N   N1        1.0  0.01142  0.20900  0.15082  1.0000
  S   S27       1.0  0.28083  0.28533  0.15490  1.0000
  H   H5        1.0  0.20239  0.17352  0.21211  1.0000
  Fe  Fe14      1.0  0.28606  0.25883  0.14101  1.0000
  S   S28       1.0  0.25689  0.25441  0.13250  1.0000
  C   C2        1.0  0.21857  0.17077  0.20642  1.0000
  H   H6        1.0  0.03107  0.32609  0.98452  1.0000
  C   C3        1.0  0.21969  0.44317  0.04813  1.0000
  H   H7        1.0  0.24709  0.43720  0.14177  1.0000
  C   C4        1.0  0.04727  0.32128  0.05808  1.0000
  C   C5        1.0  0.02722  0.32948  0.05571  1.0000
  C   C6        1.0  0.01214  0.31654  0.05797  1.0000
  C   C7        1.0  0.01682  0.29537  0.06297  1.0000
  C   C8        1.0  0.03678  0.28726  0.06570  1.0000
  C   C9        1.0  0.05194  0.30014  0.06316  1.0000
  H   H8        1.0  0.02334  0.34575  0.05202  1.0000
  H   H9        1.0  0.22045  0.20311  0.18234  1.0000
  H   H10       1.0  0.04062  0.27099  0.06944  1.0000
  H   H11       1.0  0.06741  0.29362  0.06501  1.0000
  C   C10       1.0  0.01618  0.46261  0.05528  1.0000
  H   H12       1.0  0.04709  0.46586  0.04485  1.0000
  C   C11       1.0  0.25518  0.38054  0.13093  1.0000
  C   C12       1.0  0.27187  0.38238  0.11896  1.0000
  C   C13       1.0  0.28836  0.36633  0.11806  1.0000
  C   C14       1.0  0.28813  0.34818  0.12891  1.0000
  C   C15       1.0  0.27134  0.34625  0.14080  1.0000
  C   C16       1.0  0.25499  0.36243  0.14186  1.0000
  H   H13       1.0  0.27222  0.39630  0.11051  1.0000
  H   H14       1.0  0.30133  0.36800  0.10887  1.0000
  H   H15       1.0  0.27097  0.33235  0.14920  1.0000
  H   H16       1.0  0.24209  0.36091  0.15113  1.0000
  S   S29       1.0  0.29480  0.99602  0.99392  1.0000
  C   C17       1.0  0.13916  0.41438  0.05900  1.0000
  C   C18       1.0  0.15884  0.40736  0.06324  1.0000
  C   C19       1.0  0.16910  0.41988  0.06998  1.0000
  C   C20       1.0  0.15983  0.43970  0.07245  1.0000
  C   C21       1.0  0.14019  0.44671  0.06816  1.0000
  C   C22       1.0  0.12985  0.43412  0.06157  1.0000
  H   H17       1.0  0.16623  0.39215  0.06127  1.0000
  H   H18       1.0  0.18420  0.41425  0.07318  1.0000
  H   H19       1.0  0.13289  0.46203  0.06994  1.0000
  H   H20       1.0  0.11476  0.43979  0.05835  1.0000
  H   H21       1.0  0.28774  0.31299  0.19581  1.0000
  C   C23       1.0  0.16522  0.19979  0.21563  1.0000
  H   H22       1.0  0.03625  0.35188  0.98270  1.0000
  S   S30       1.0  0.30630  0.23890  0.15765  1.0000
  H   H23       1.0  0.04553  0.36445  0.00585  1.0000
  H   H24       1.0  0.08084  0.37501  0.98874  1.0000
  N   N2        1.0  0.30900  0.33238  0.18241  1.0000
  C   C24       1.0  0.09877  0.20036  0.12154  1.0000
  C   C25       1.0  0.08737  0.21480  0.11130  1.0000
  C   C26       1.0  0.06881  0.21090  0.10756  1.0000
  C   C27       1.0  0.06161  0.19243  0.11398  1.0000
  C   C28       1.0  0.07284  0.17819  0.12440  1.0000
  C   C29       1.0  0.09125  0.18216  0.12824  1.0000
  H   H25       1.0  0.09306  0.22895  0.10607  1.0000
  H   H26       1.0  0.06028  0.22202  0.09952  1.0000
  H   H27       1.0  0.06727  0.16394  0.12955  1.0000
  H   H28       1.0  0.09969  0.17106  0.13631  1.0000
  C   C30       1.0  0.23152  0.19350  0.13823  1.0000
  C   C31       1.0  0.25211  0.19350  0.13967  1.0000
  C   C32       1.0  0.25995  0.21202  0.13847  1.0000
  C   C33       1.0  0.24736  0.23074  0.13544  1.0000
  C   C34       1.0  0.22676  0.23074  0.13402  1.0000
  C   C35       1.0  0.21880  0.21222  0.13560  1.0000
  H   H29       1.0  0.26211  0.17910  0.14159  1.0000
  H   H30       1.0  0.27587  0.21181  0.13943  1.0000
  H   H31       1.0  0.21691  0.24514  0.13164  1.0000
  H   H32       1.0  0.20292  0.21244  0.13448  1.0000
  H   H33       1.0  0.24192  0.46301  0.02381  1.0000
  H   H34       1.0  0.01422  0.22025  0.17230  1.0000
  H   H35       1.0  0.04193  0.46254  0.99204  1.0000
  H   H36       1.0  0.18165  0.00006  0.16994  1.0000
  H   H37       1.0  0.22952  0.01784  0.14798  1.0000
  C   C36       1.0  0.19134  0.05822  0.10692  1.0000
  C   C37       1.0  0.19972  0.07477  0.11010  1.0000
  C   C38       1.0  0.18774  0.08969  0.11884  1.0000
  C   C39       1.0  0.16725  0.08814  0.12452  1.0000
  C   C40       1.0  0.15879  0.07172  0.12119  1.0000
  C   C41       1.0  0.17074  0.05683  0.11240  1.0000
  H   H38       1.0  0.21564  0.07597  0.10589  1.0000
  H   H39       1.0  0.19442  0.10228  0.12128  1.0000
  H   H40       1.0  0.14290  0.07048  0.12549  1.0000
  H   H41       1.0  0.16407  0.04426  0.10994  1.0000
  H   H42       1.0  0.23414  0.44630  0.05145  1.0000
  C   C42       1.0  0.15468  0.16853  0.21087  1.0000
  C   C43       1.0  0.15931  0.18828  0.20526  1.0000
  H   H43       1.0  0.06643  0.34378  0.00678  1.0000
  H   H44       1.0  0.15818  0.19471  0.19296  1.0000
  C   C44       1.0  0.06170  0.40055  0.97744  1.0000
  C   C45       1.0  0.21128  0.19108  0.18143  1.0000
  Fe  Fe15      1.0  0.30815  0.29573  0.13927  1.0000
  H   H45       1.0  0.21661  0.46827  0.18067  1.0000
  H   H46       1.0  0.00564  0.33122  0.00853  1.0000
  H   H47       1.0  0.19173  0.15875  0.19058  1.0000
  C   C46       1.0  0.04989  0.34816  0.01094  1.0000
  C   C47       1.0  0.04046  0.33591  0.98859  1.0000
  H   H48       1.0  0.01719  0.17797  0.16250  1.0000
  H   H49       1.0  0.02001  0.43011  0.01228  1.0000
  H   H50       1.0  0.99108  0.44586  0.99721  1.0000
  H   H51       1.0  0.02176  0.47535  0.98085  1.0000
  C   C48       1.0  0.29376  0.31855  0.18324  1.0000
  S   S31       1.0  0.31227  0.27058  0.12409  1.0000
  H   H52       1.0  0.22147  0.43034  0.18341  1.0000
  H   H53       1.0  0.20973  0.43752  0.14990  1.0000
  H   H54       1.0  0.03829  0.19217  0.16015  1.0000
  H   H55       1.0  0.18609  0.46669  0.02281  1.0000
  C   C49       1.0  0.01087  0.48182  0.01118  1.0000
  C   C50       1.0  0.22690  0.46030  0.02129  1.0000
  H   H56       1.0  0.20976  0.15407  0.17326  1.0000
  H   H57       1.0  0.02654  0.44786  0.98467  1.0000
  H   H58       1.0  0.19689  0.47911  0.05314  1.0000
  H   H59       1.0  0.05988  0.30785  0.00952  1.0000
  Fe  Fe16      1.0  0.22669  0.47431  0.10862  1.0000
  C   C51       1.0  0.03176  0.47373  0.04762  1.0000
  N   N3        1.0  0.22936  0.45036  0.16178  1.0000
  C   C52       1.0  0.01854  0.44502  0.01682  1.0000
  H   H60       1.0  0.04127  0.31174  0.02669  1.0000
  C   C53       1.0  0.24576  0.45079  0.14802  1.0000
  C   C54       1.0  0.22847  0.46834  0.16997  1.0000
  C   C55       1.0  0.27840  0.46075  0.04228  1.0000
  S   S32       1.0  0.30919  0.32844  0.12729  1.0000
  H   H61       1.0  0.19129  0.04520  0.13956  1.0000
  C   C56       1.0  0.26865  0.99665  0.02209  1.0000
  H   H62       1.0  0.30056  0.30473  0.17754  1.0000
  H   H63       1.0  0.04810  0.34739  0.02414  1.0000
  H   H64       1.0  0.03376  0.44626  0.01984  1.0000
  C   C57       1.0  0.23362  0.43131  0.17292  1.0000
  Fe  Fe17      1.0  0.99647  0.24724  0.07794  1.0000
  H   H65       1.0  0.22548  0.15580  0.21248  1.0000
  H   H66       1.0  0.26087  0.45095  0.15170  1.0000
  H   H67       1.0  0.20688  0.00420  0.17185  1.0000
  H   H68       1.0  0.21072  0.19109  0.16855  1.0000
  H   H69       1.0  0.22106  0.02242  0.12871  1.0000
  C   C58       1.0  0.29316  0.45309  0.03028  1.0000
  Fe  Fe18      1.0  0.30298  0.26636  0.17035  1.0000
  H   H70       1.0  0.99670  0.32295  0.05592  1.0000
  H   H71       1.0  0.20847  0.44189  0.05919  1.0000
  S   S33       1.0  0.17352  0.99263  0.10016  1.0000
  S   S34       1.0  0.27436  0.44525  0.06101  1.0000
  C   C59       1.0  0.19761  0.99965  0.16374  1.0000
  H   H72       1.0  0.23442  0.41753  0.16694  1.0000
  H   H73       1.0  0.20144  0.00624  0.01393  1.0000
  H   H74       1.0  0.26322  0.01218  0.01713  1.0000
  H   H75       1.0  0.22297  0.42795  0.04391  1.0000
  C   C60       1.0  0.19232  0.45496  0.03225  1.0000
  H   H76       1.0  0.30806  0.45852  0.00596  1.0000
  H   H77       1.0  0.29347  0.34580  0.20300  1.0000
  C   C61       1.0  0.20414  0.99583  0.02515  1.0000
  N   N4        1.0  0.12653  0.14301  0.09813  1.0000
  C   C62       1.0  0.11616  0.13786  0.08570  1.0000
  C   C63       1.0  0.12631  0.16541  0.09611  1.0000
  C   C64       1.0  0.14788  0.13255  0.09668  1.0000
  C   C65       1.0  0.11572  0.13617  0.11404  1.0000
  H   H78       1.0  0.12395  0.14275  0.07352  1.0000
  H   H79       1.0  0.10000  0.14556  0.08645  1.0000
  H   H80       1.0  0.11596  0.12106  0.08697  1.0000
  H   H81       1.0  0.13346  0.16993  0.10560  1.0000
  H   H82       1.0  0.13480  0.17111  0.08442  1.0000
  H   H83       1.0  0.11043  0.17379  0.09676  1.0000
  H   H84       1.0  0.15603  0.13584  0.10606  1.0000
  H   H85       1.0  0.15665  0.13743  0.08491  1.0000
  H   H86       1.0  0.14862  0.11560  0.09817  1.0000
  H   H87       1.0  0.11657  0.11920  0.11638  1.0000
  H   H88       1.0  0.09932  0.14292  0.11530  1.0000
  H   H89       1.0  0.12254  0.14068  0.12370  1.0000
  H   H90       1.0  0.24759  0.99767  0.04400  1.0000
  N   N5        1.0  0.01162  0.46237  0.00493  1.0000
  H   H91       1.0  0.19212  0.99003  0.13579  1.0000
  N   N6        1.0  0.11328  0.34374  0.07974  1.0000
  C   C66       1.0  0.11632  0.36290  0.08490  1.0000
  C   C67       1.0  0.09257  0.33900  0.08639  1.0000
  C   C68       1.0  0.12866  0.32675  0.08549  1.0000
  C   C69       1.0  0.11559  0.34627  0.06213  1.0000
  H   H92       1.0  0.13171  0.36707  0.07993  1.0000
  H   H93       1.0  0.11469  0.36165  0.09812  1.0000
  H   H94       1.0  0.10503  0.37607  0.08066  1.0000
  H   H95       1.0  0.08969  0.32472  0.08260  1.0000
  H   H96       1.0  0.09019  0.33700  0.09966  1.0000
  H   H97       1.0  0.08055  0.35142  0.08219  1.0000
  H   H98       1.0  0.12676  0.31208  0.08176  1.0000
  H   H99       1.0  0.12737  0.32438  0.09874  1.0000
  H   H100      1.0  0.14445  0.32983  0.08063  1.0000
  H   H101      1.0  0.11319  0.33222  0.05774  1.0000
  H   H102      1.0  0.13093  0.35012  0.05663  1.0000
  H   H103      1.0  0.10421  0.35894  0.05744  1.0000
  N   N7        1.0  0.26023  0.31422  0.10285  1.0000
  C   C70       1.0  0.23964  0.31624  0.09820  1.0000
  C   C71       1.0  0.27325  0.29622  0.09677  1.0000
  C   C72       1.0  0.25858  0.31145  0.12042  1.0000
  C   C73       1.0  0.26947  0.33289  0.09613  1.0000
  H   H104      1.0  0.22942  0.32961  0.10272  1.0000
  H   H105      1.0  0.23239  0.30230  0.10316  1.0000
  H   H106      1.0  0.24026  0.31837  0.08500  1.0000
  H   H107      1.0  0.28907  0.29466  0.09966  1.0000
  H   H108      1.0  0.26721  0.28172  0.10218  1.0000
  H   H109      1.0  0.27432  0.29739  0.08359  1.0000
  H   H110      1.0  0.27389  0.30958  0.12428  1.0000
  H   H111      1.0  0.25154  0.29760  0.12597  1.0000
  H   H112      1.0  0.24905  0.32481  0.12545  1.0000
  H   H113      1.0  0.26031  0.34673  0.10078  1.0000
  H   H114      1.0  0.27079  0.33568  0.08289  1.0000
  H   H115      1.0  0.28513  0.33167  0.09935  1.0000
  N   N8        1.0  0.03735  0.33463  0.00618  1.0000
  N   N9        1.0  0.19850  0.01317  0.14824  1.0000
  C   C74       1.0  0.28525  0.48397  0.01171  1.0000
  H   H116      1.0  0.01267  0.34048  0.02501  1.0000
  C   C75       1.0  0.20814  0.47934  0.04203  1.0000
  C   C76       1.0  0.29663  0.46464  0.01508  1.0000
  H   H117      1.0  0.22688  0.99667  0.13840  1.0000
  H   H118      1.0  0.24338  0.46894  0.17386  1.0000
  H   H119      1.0  0.19677  0.45077  0.16613  1.0000
  H   H120      1.0  0.19050  0.99898  0.03422  1.0000
  C   C77       1.0  0.99505  0.20504  0.14259  1.0000
  H   H121      1.0  0.21376  0.13961  0.19232  1.0000
  H   H122      1.0  0.01042  0.35723  0.00653  1.0000
  H   H123      1.0  0.28055  0.32619  0.17708  1.0000
  H   H124      1.0  0.17360  0.03585  0.15601  1.0000
  H   H125      1.0  0.01311  0.23915  0.13771  1.0000
  C   C78       1.0  0.20830  0.15509  0.18621  1.0000
  C   C79       1.0  0.19005  0.03443  0.15089  1.0000
  C   C80       1.0  0.21994  0.01247  0.14052  1.0000
  C   C81       1.0  0.01555  0.34120  0.01180  1.0000
  H   H126      1.0  0.06603  0.00015  0.02638  1.0000
  H   H127      1.0  0.16885  0.21502  0.21120  1.0000
  H   H128      1.0  0.28626  0.35899  0.18427  1.0000
  H   H129      1.0  0.22244  0.48318  0.04498  1.0000
  H   H130      1.0  0.24273  0.46465  0.13914  1.0000
  H   H131      1.0  0.18716  0.01576  0.12586  1.0000
  H   H132      1.0  0.05670  0.33089  0.98390  1.0000
  N   N10       1.0  0.21176  0.45945  0.03590  1.0000
  C   C82       1.0  0.02302  0.22424  0.14041  1.0000
  H   H133      1.0  0.25077  0.17742  0.18376  1.0000
  C   C83       1.0  0.30700  0.27129  0.21002  1.0000
  H   H134      1.0  0.02623  0.48382  0.01348  1.0000
  H   H135      1.0  0.20599  0.46507  0.14753  1.0000
  H   H136      1.0  0.03203  0.18297  0.14337  1.0000
  C   C84       1.0  0.99104  0.46049  0.00181  1.0000
  H   H137      1.0  0.03431  0.30261  0.01013  1.0000
  H   H138      1.0  0.00042  0.48234  0.02266  1.0000
  H   H139      1.0  0.30201  0.43810  0.03274  1.0000
  C   C85       1.0  0.02532  0.18970  0.15442  1.0000
  C   C86       1.0  0.04347  0.31327  0.01342  1.0000
  C   C87       1.0  0.18641  0.00617  0.13778  1.0000
  H   H140      1.0  0.03599  0.22710  0.14594  1.0000
  C   C88       1.0  0.07248  0.38068  0.97876  1.0000
  H   H141      1.0  0.22181  0.47285  0.01194  1.0000
  H   H142      1.0  0.24856  0.15053  0.18752  1.0000
  H   H143      1.0  0.03680  0.01698  0.04401  1.0000
  H   H144      1.0  0.02959  0.21896  0.12877  1.0000
  N   N11       1.0  0.21992  0.17070  0.18906  1.0000
  H   H145      1.0  0.02615  0.00249  0.06207  1.0000
  H   H146      1.0  0.19836  0.03996  0.15918  1.0000
  C   C89       1.0  0.24152  0.16581  0.18208  1.0000
  H   H147      1.0  0.24290  0.16546  0.16901  1.0000
  H   H148      1.0  0.19424  0.43971  0.02818  1.0000
  S   S35       1.0  0.29161  0.26628  0.19673  1.0000
  C   C90       1.0  0.02605  0.46210  0.98995  1.0000
  C   C91       1.0  0.31666  0.33909  0.16553  1.0000
  C   C92       1.0  0.20958  0.45094  0.15611  1.0000
  H   H149      1.0  0.22968  0.44565  0.01621  1.0000
  H   H150      1.0  0.18046  0.45479  0.04298  1.0000
  H   H151      1.0  0.99342  0.20589  0.17398  1.0000
  C   C93       1.0  0.29936  0.35041  0.19022  1.0000
  C   C94       1.0  0.03399  0.00134  0.04970  1.0000
  S   S36       1.0  0.99931  0.23842  0.10409  1.0000
  H   H152      1.0  0.00777  0.44435  0.02817  1.0000
  H   H153      1.0  0.06093  0.99526  0.07068  1.0000
  H   H154      1.0  0.24845  0.43038  0.17741  1.0000
  S   S37       1.0  0.22280  0.47688  0.08256  1.0000
  C   C95       1.0  0.06754  0.99387  0.05807  1.0000
  H   H155      1.0  0.99159  0.23152  0.16350  1.0000
  H   H156      1.0  0.17003  0.00695  0.14298  1.0000
  H   H157      1.0  0.02304  0.99659  0.04306  1.0000
  C   C96       1.0  0.00227  0.21702  0.16583  1.0000
  H   H158      1.0  0.21740  0.00018  0.02941  1.0000
  H   H159      1.0  0.00147  0.19874  0.13130  1.0000
  H   H160      1.0  0.30414  0.34761  0.15891  1.0000
  C   C97       1.0  0.26722  0.48024  0.03902  1.0000
  C   C98       1.0  0.25969  0.98841  0.03729  1.0000
  H   H161      1.0  0.32092  0.31596  0.20347  1.0000
  H   H162      1.0  0.22461  0.48289  0.16195  1.0000
  N   N12       1.0  0.05320  0.98670  0.04958  1.0000
  H   H163      1.0  0.20252  0.26426  0.25269  1.0000
  H   H164      1.0  0.30198  0.28457  0.24741  1.0000
  S   S38       1.0  0.00028  0.38151  0.45485  1.0000
  Fe  Fe19      1.0  0.01004  0.22154  0.36259  1.0000
  H   H165      1.0  0.00645  0.19273  0.31337  1.0000
  S   S39       1.0  0.03515  0.19978  0.35023  1.0000
  C   C99       1.0  0.16644  0.19167  0.23169  1.0000
  H   H166      1.0  0.24013  0.26236  0.24949  1.0000
  S   S40       1.0  0.00846  0.22479  0.38842  1.0000
  H   H167      1.0  0.99689  0.18121  0.40460  1.0000
  Fe  Fe20      1.0  0.14799  0.20292  0.30345  1.0000
  S   S41       1.0  0.17180  0.21887  0.28656  1.0000
  S   S42       1.0  0.12055  0.22394  0.31437  1.0000
  Fe  Fe21      1.0  0.17191  0.16082  0.29914  1.0000
  S   S43       1.0  0.19711  0.17342  0.28183  1.0000
  S   S44       1.0  0.17142  0.12670  0.30637  1.0000
  Fe  Fe22      1.0  0.19511  0.19634  0.29869  1.0000
  S   S45       1.0  0.22602  0.20161  0.30367  1.0000
  Fe  Fe23      1.0  0.17212  0.19501  0.27084  1.0000
  S   S46       1.0  0.17540  0.20588  0.24408  1.0000
  S   S47       1.0  0.17153  0.18210  0.31698  1.0000
  S   S48       1.0  0.14668  0.18067  0.28675  1.0000
  S   S49       1.0  0.23220  0.01233  0.33144  1.0000
  Fe  Fe24      1.0  0.28371  0.00537  0.34926  1.0000
  S   S50       1.0  0.25718  0.02911  0.35589  1.0000
  H   H168      1.0  0.19123  0.24119  0.25527  1.0000
  S   S51       1.0  0.29454  0.41542  0.34629  1.0000
  Fe  Fe25      1.0  0.25378  0.03501  0.32993  1.0000
  S   S52       1.0  0.25381  0.06808  0.31875  1.0000
  S   S53       1.0  0.28116  0.01241  0.32312  1.0000
  S   S54       1.0  0.01700  0.27970  0.38907  1.0000
  H   H169      1.0  0.03513  0.30348  0.40645  1.0000
  S   S55       1.0  0.28436  0.46256  0.36740  1.0000
  C   C100      1.0  0.00639  0.29420  0.40474  1.0000
  Fe  Fe26      1.0  0.29306  0.45013  0.34393  1.0000
  H   H170      1.0  0.16041  0.06928  0.37171  1.0000
  C   C101      1.0  0.22711  0.46985  0.41451  1.0000
  H   H171      1.0  0.29739  0.35300  0.32237  1.0000
  S   S56       1.0  0.30379  0.30583  0.31128  1.0000
  H   H172      1.0  0.02086  0.32469  0.42804  1.0000
  Fe  Fe27      1.0  0.29023  0.29290  0.29330  1.0000
  S   S57       1.0  0.25701  0.28801  0.29613  1.0000
  S   S58       1.0  0.29992  0.31663  0.27282  1.0000
  H   H173      1.0  0.24985  0.47517  0.39394  1.0000
  C   C102      1.0  0.30822  0.40934  0.31487  1.0000
  H   H174      1.0  0.00593  0.21968  0.33009  1.0000
  H   H175      1.0  0.24061  0.20607  0.25349  1.0000
  C   C103      1.0  0.19189  0.47778  0.40984  1.0000
  C   C104      1.0  0.15557  0.16059  0.22699  1.0000
  H   H176      1.0  0.29066  0.07425  0.33215  1.0000
  S   S59       1.0  0.00046  0.12362  0.44790  1.0000
  H   H177      1.0  0.17578  0.47816  0.41420  1.0000
  Fe  Fe28      1.0  0.16881  0.47181  0.45641  1.0000
  H   H178      1.0  0.25621  0.23798  0.24939  1.0000
  C   C105      1.0  0.19849  0.48374  0.39351  1.0000
  C   C106      1.0  0.20444  0.24775  0.25773  1.0000
  H   H179      1.0  0.29815  0.03679  0.37397  1.0000
  C   C107      1.0  0.29970  0.40115  0.33005  1.0000
  H   H180      1.0  0.16915  0.99531  0.42860  1.0000
  C   C108      1.0  0.99754  0.23051  0.32125  1.0000
  C   C109      1.0  0.20622  0.47087  0.42042  1.0000
  H   H181      1.0  0.29530  0.07611  0.30302  1.0000
  Fe  Fe29      1.0  0.31545  0.32779  0.29042  1.0000
  H   H182      1.0  0.23937  0.23000  0.22793  1.0000
  H   H183      1.0  0.29230  0.04701  0.33494  1.0000
  H   H184      1.0  0.21200  0.23137  0.23052  1.0000
  C   C110      1.0  0.30564  0.06120  0.30425  1.0000
  S   S60       1.0  0.31817  0.36141  0.28961  1.0000
  H   H185      1.0  0.24118  0.24466  0.26755  1.0000
  C   C111      1.0  0.30055  0.36861  0.32022  1.0000
  C   C112      1.0  0.23431  0.22581  0.30126  1.0000
  C   C113      1.0  0.25523  0.22667  0.30061  1.0000
  C   C114      1.0  0.26246  0.24560  0.29883  1.0000
  C   C115      1.0  0.24877  0.26386  0.29785  1.0000
  C   C116      1.0  0.22785  0.26301  0.29839  1.0000
  C   C117      1.0  0.22063  0.24408  0.30006  1.0000
  H   H186      1.0  0.26589  0.21260  0.30159  1.0000
  H   H187      1.0  0.27856  0.24604  0.29848  1.0000
  H   H188      1.0  0.21714  0.27707  0.29775  1.0000
  H   H189      1.0  0.20446  0.24360  0.30081  1.0000
  S   S61       1.0  0.31644  0.00401  0.35470  1.0000
  C   C118      1.0  0.16145  0.17207  0.23736  1.0000
  H   H190      1.0  0.09412  0.40416  0.44138  1.0000
  H   H191      1.0  0.16229  0.16566  0.24971  1.0000
  Fe  Fe30      1.0  0.23751  0.00460  0.35730  1.0000
  C   C119      1.0  0.19473  0.11056  0.30874  1.0000
  C   C120      1.0  0.19524  0.08921  0.31093  1.0000
  C   C121      1.0  0.21339  0.07597  0.31370  1.0000
  C   C122      1.0  0.23109  0.08404  0.31435  1.0000
  C   C123      1.0  0.23067  0.10536  0.31187  1.0000
  C   C124      1.0  0.21254  0.11859  0.30911  1.0000
  H   H192      1.0  0.18154  0.08294  0.31046  1.0000
  H   H193      1.0  0.21369  0.05955  0.31528  1.0000
  H   H194      1.0  0.24432  0.11173  0.31229  1.0000
  H   H195      1.0  0.21228  0.13501  0.30747  1.0000
  C   C125      1.0  0.05835  0.20673  0.33928  1.0000
  C   C126      1.0  0.07471  0.19129  0.33569  1.0000
  C   C127      1.0  0.09371  0.19626  0.32769  1.0000
  C   C128      1.0  0.09652  0.21676  0.32323  1.0000
  C   C129      1.0  0.07999  0.23219  0.32651  1.0000
  C   C130      1.0  0.06094  0.22722  0.33437  1.0000
  H   H196      1.0  0.07281  0.17538  0.33931  1.0000
  H   H197      1.0  0.10629  0.18423  0.32521  1.0000
  H   H198      1.0  0.08199  0.24808  0.32292  1.0000
  H   H199      1.0  0.04834  0.23922  0.33675  1.0000
  C   C131      1.0  0.29769  0.27616  0.22506  1.0000
  S   S62       1.0  0.13669  0.47805  0.45018  1.0000
  C   C132      1.0  0.30963  0.37664  0.30514  1.0000
  H   H200      1.0  0.29581  0.04908  0.30529  1.0000
  H   H201      1.0  0.00853  0.21095  0.29556  1.0000
  H   H202      1.0  0.28920  0.37431  0.34436  1.0000
  H   H203      1.0  0.16481  0.08827  0.35457  1.0000
  C   C133      1.0  0.20523  0.99482  0.39535  1.0000
  C   C134      1.0  0.99834  0.15586  0.42378  1.0000
  H   H204      1.0  0.01342  0.14899  0.41902  1.0000
  Fe  Fe31      1.0  0.99596  0.34833  0.45921  1.0000
  H   H205      1.0  0.17477  0.01109  0.40022  1.0000
  H   H206      1.0  0.11185  0.42651  0.45330  1.0000
  H   H207      1.0  0.30921  0.05845  0.34365  1.0000
  N   N13       1.0  0.07156  0.24263  0.37634  1.0000
  C   C135      1.0  0.07294  0.22145  0.37292  1.0000
  C   C136      1.0  0.09234  0.24806  0.37467  1.0000
  C   C137      1.0  0.06121  0.24411  0.39279  1.0000
  C   C138      1.0  0.05975  0.25695  0.36497  1.0000
  H   H208      1.0  0.05752  0.21718  0.37314  1.0000
  H   H209      1.0  0.08083  0.21011  0.38176  1.0000
  H   H210      1.0  0.08166  0.21949  0.36094  1.0000
  H   H211      1.0  0.10052  0.24708  0.36234  1.0000
  H   H212      1.0  0.09184  0.26398  0.37711  1.0000
  H   H213      1.0  0.10173  0.23755  0.38304  1.0000
  H   H214      1.0  0.05954  0.26000  0.39567  1.0000
  H   H215      1.0  0.06968  0.23367  0.40177  1.0000
  H   H216      1.0  0.04549  0.24010  0.39439  1.0000
  H   H217      1.0  0.05760  0.27296  0.36767  1.0000
  H   H218      1.0  0.04421  0.25288  0.36553  1.0000
  H   H219      1.0  0.06748  0.25692  0.35249  1.0000
  N   N14       1.0  0.22408  0.23669  0.25092  1.0000
  H   H220      1.0  0.32026  0.40345  0.29089  1.0000
  C   C139      1.0  0.24114  0.24583  0.25446  1.0000
  H   H221      1.0  0.22337  0.25442  0.22768  1.0000
  C   C140      1.0  0.22586  0.21492  0.25807  1.0000
  H   H222      1.0  0.22497  0.21326  0.27125  1.0000
  S   S63       1.0  0.05999  0.38247  0.45348  1.0000
  C   C141      1.0  0.01905  0.30461  0.41108  1.0000
  H   H223      1.0  0.28139  0.27646  0.22837  1.0000
  C   C142      1.0  0.08872  0.40744  0.45341  1.0000
  S   S64       1.0  0.26813  0.47098  0.33215  1.0000
  S   S65       1.0  0.19896  0.46284  0.44098  1.0000
  C   C143      1.0  0.07167  0.39907  0.46211  1.0000
  H   H224      1.0  0.20335  0.24679  0.27091  1.0000
  C   C144      1.0  0.30157  0.05971  0.33290  1.0000
  H   H225      1.0  0.07600  0.06090  0.46468  1.0000
  C   C145      1.0  0.18670  0.00004  0.40513  1.0000
  N   N15       1.0  0.19196  0.06939  0.36179  1.0000
  C   C146      1.0  0.19970  0.05892  0.37666  1.0000
  C   C147      1.0  0.19167  0.05406  0.35127  1.0000
  C   C148      1.0  0.20544  0.08437  0.35359  1.0000
  C   C149      1.0  0.17101  0.08017  0.36560  1.0000
  H   H226      1.0  0.20030  0.06993  0.38490  1.0000
  H   H227      1.0  0.21536  0.05035  0.37411  1.0000
  H   H228      1.0  0.18987  0.04748  0.38316  1.0000
  H   H229      1.0  0.18523  0.06124  0.34017  1.0000
  H   H230      1.0  0.20732  0.04612  0.34773  1.0000
  H   H231      1.0  0.18234  0.04199  0.35733  1.0000
  H   H232      1.0  0.20668  0.09570  0.36138  1.0000
  H   H233      1.0  0.19953  0.09320  0.34269  1.0000
  H   H234      1.0  0.22116  0.07667  0.34978  1.0000
  H   H235      1.0  0.17062  0.09185  0.37354  1.0000
  H   H236      1.0  0.04058  0.00373  0.46385  1.0000
  S   S66       1.0  0.31669  0.47123  0.33508  1.0000
  H   H237      1.0  0.23832  0.46447  0.42260  1.0000
  N   N16       1.0  0.23350  0.42365  0.36882  1.0000
  C   C150      1.0  0.21241  0.42933  0.37663  1.0000
  C   C151      1.0  0.23603  0.43500  0.35249  1.0000
  C   C152      1.0  0.23760  0.40142  0.36801  1.0000
  C   C153      1.0  0.24804  0.42897  0.37813  1.0000
  H   H238      1.0  0.21000  0.42134  0.38909  1.0000
  H   H239      1.0  0.20097  0.42549  0.36999  1.0000
  H   H240      1.0  0.25182  0.43120  0.34628  1.0000
  H   H241      1.0  0.22535  0.43134  0.34508  1.0000
  H   H242      1.0  0.23309  0.45185  0.35264  1.0000
  H   H243      1.0  0.25345  0.39688  0.36208  1.0000
  H   H244      1.0  0.22693  0.39682  0.36105  1.0000
  H   H245      1.0  0.23601  0.39236  0.38013  1.0000
  H   H246      1.0  0.26414  0.42443  0.37286  1.0000
  H   H247      1.0  0.24613  0.42130  0.39070  1.0000
  H   H248      1.0  0.24584  0.44573  0.37844  1.0000
  C   C154      1.0  0.22476  0.23819  0.23347  1.0000
  S   S67       1.0  0.00296  0.25521  0.35468  1.0000
  H   H249      1.0  0.31393  0.05891  0.38761  1.0000
  H   H250      1.0  0.15187  0.14538  0.23146  1.0000
  Fe  Fe32      1.0  0.02996  0.37130  0.46479  1.0000
  H   H251      1.0  0.09953  0.32542  0.46276  1.0000
  C   C155      1.0  0.29584  0.38076  0.33266  1.0000
  H   H252      1.0  0.07378  0.33826  0.46262  1.0000
  C   C156      1.0  0.31329  0.39708  0.30252  1.0000
  H   H253      1.0  0.20899  0.44611  0.37724  1.0000
  Fe  Fe33      1.0  0.99910  0.25840  0.38078  1.0000
  C   C157      1.0  0.31460  0.03516  0.37318  1.0000
  C   C158      1.0  0.01101  0.31663  0.42333  1.0000
  H   H254      1.0  0.31128  0.42500  0.31270  1.0000
  C   C159      1.0  0.30933  0.28077  0.23585  1.0000
  C   C160      1.0  0.23370  0.47587  0.39824  1.0000
  Fe  Fe34      1.0  0.25999  0.98879  0.32659  1.0000
  C   C161      1.0  0.18345  0.99108  0.42121  1.0000
  C   C162      1.0  0.09877  0.42015  0.46013  1.0000
  H   H255      1.0  0.00913  0.23753  0.31217  1.0000
  H   H256      1.0  0.01401  0.17756  0.46005  1.0000
  S   S68       1.0  0.02700  0.33795  0.46654  1.0000
  H   H257      1.0  0.09298  0.35166  0.46636  1.0000
  S   S69       1.0  0.20825  0.00631  0.37512  1.0000
  H   H258      1.0  0.21331  0.20749  0.25556  1.0000
  S   S70       1.0  0.31782  0.26952  0.28817  1.0000
  N   N17       1.0  0.31654  0.05870  0.31826  1.0000
  H   H259      1.0  0.99503  0.19967  0.46207  1.0000
  H   H260      1.0  0.32091  0.02578  0.32093  1.0000
  C   C163      1.0  0.21943  0.48270  0.38762  1.0000
  C   C164      1.0  0.99741  0.20417  0.30523  1.0000
  C   C165      1.0  0.99015  0.31855  0.42916  1.0000
  Fe  Fe35      1.0  0.26045  0.48417  0.35536  1.0000
  H   H261      1.0  0.31639  0.06041  0.29297  1.0000
  H   H262      1.0  0.31939  0.09059  0.31558  1.0000
  C   C166      1.0  0.00608  0.18826  0.46855  1.0000
  Fe  Fe36      1.0  0.30556  0.48569  0.35743  1.0000
  C   C167      1.0  0.08759  0.33644  0.46869  1.0000
  H   H263      1.0  0.07653  0.98661  0.45668  1.0000
  Fe  Fe37      1.0  0.01636  0.21542  0.61132  1.0000
  H   H264      1.0  0.29218  0.48427  0.55285  1.0000
  S   S71       1.0  0.03507  0.20715  0.63221  1.0000
  Fe  Fe38      1.0  0.00521  0.19743  0.58294  1.0000
  S   S72       1.0  0.01623  0.17169  0.56763  1.0000
  H   H265      1.0  0.05296  0.34678  0.48767  1.0000
  Fe  Fe39      1.0  0.15551  0.48070  0.49104  1.0000
  S   S73       1.0  0.02276  0.22298  0.58439  1.0000
  C   C168      1.0  0.01286  0.30374  0.52672  1.0000
  C   C169      1.0  0.05145  0.05622  0.48394  1.0000
  S   S74       1.0  0.01617  0.37393  0.49006  1.0000
  C   C170      1.0  0.12175  0.44826  0.52096  1.0000
  H   H266      1.0  0.16038  0.41286  0.53391  1.0000
  C   C171      1.0  0.19329  0.16463  0.69842  1.0000
  N   N18       1.0  0.08289  0.32950  0.48598  1.0000
  S   S75       1.0  0.23998  0.00513  0.55201  1.0000
  S   S76       1.0  0.02016  0.04865  0.50839  1.0000
  H   H267      1.0  0.08367  0.99452  0.47372  1.0000
  Fe  Fe40      1.0  0.10527  0.24073  0.68659  1.0000
  S   S77       1.0  0.09243  0.22055  0.70819  1.0000
  S   S78       1.0  0.09434  0.25108  0.66228  1.0000
  Fe  Fe41      1.0  0.13685  0.25255  0.70446  1.0000
  H   H268      1.0  0.26595  0.37317  0.68082  1.0000
  S   S79       1.0  0.16442  0.26945  0.69914  1.0000
  H   H269      1.0  0.04073  0.06849  0.47876  1.0000
  Fe  Fe42      1.0  0.26579  0.00257  0.60803  1.0000
  H   H270      1.0  0.23799  0.47883  0.64099  1.0000
  S   S80       1.0  0.13795  0.22768  0.68938  1.0000
  S   S81       1.0  0.10517  0.26675  0.70020  1.0000
  H   H271      1.0  0.13921  0.04990  0.54098  1.0000
  H   H272      1.0  0.10350  0.42095  0.54249  1.0000
  H   H273      1.0  0.99481  0.25687  0.65907  1.0000
  S   S82       1.0  0.16367  0.99838  0.48017  1.0000
  S   S83       1.0  0.22418  0.37283  0.69969  1.0000
  H   H274      1.0  0.24364  0.07129  0.64591  1.0000
  H   H275      1.0  0.01404  0.21251  0.66642  1.0000
  S   S84       1.0  0.16038  0.45195  0.47972  1.0000
  Fe  Fe43      1.0  0.22315  0.40339  0.70760  1.0000
  S   S85       1.0  0.22755  0.43373  0.69190  1.0000
  H   H276      1.0  0.07217  0.36006  0.49155  1.0000
  H   H277      1.0  0.00445  0.12579  0.53189  1.0000
  H   H278      1.0  0.15391  0.43926  0.53706  1.0000
  H   H279      1.0  0.26075  0.14299  0.71404  1.0000
  H   H280      1.0  0.02204  0.17011  0.49537  1.0000
  S   S86       1.0  0.27531  0.10202  0.70160  1.0000
  Fe  Fe44      1.0  0.27364  0.06883  0.70115  1.0000
  S   S87       1.0  0.28934  0.05342  0.67963  1.0000
  S   S88       1.0  0.23270  0.45565  0.61626  1.0000
  Fe  Fe45      1.0  0.29830  0.01213  0.57992  1.0000
  C   C172      1.0  0.07527  0.30958  0.48847  1.0000
  C   C173      1.0  0.32099  0.15771  0.71400  1.0000
  S   S89       1.0  0.25033  0.01124  0.63240  1.0000
  C   C174      1.0  0.06710  0.34477  0.49322  1.0000
  H   H281      1.0  0.25112  0.02875  0.71967  1.0000
  Fe  Fe46      1.0  0.24198  0.10439  0.71154  1.0000
  C   C175      1.0  0.13029  0.41298  0.51657  1.0000
  S   S90       1.0  0.26514  0.02528  0.58551  1.0000
  C   C176      1.0  0.27809  0.04174  0.66672  1.0000
  C   C177      1.0  0.25828  0.03678  0.67063  1.0000
  C   C178      1.0  0.25006  0.02736  0.66005  1.0000
  C   C179      1.0  0.26148  0.02289  0.64541  1.0000
  C   C180      1.0  0.28128  0.02789  0.64153  1.0000
  C   C181      1.0  0.28954  0.03716  0.65216  1.0000
  H   H282      1.0  0.24929  0.04015  0.68180  1.0000
  H   H283      1.0  0.23474  0.02353  0.66316  1.0000
  H   H284      1.0  0.29026  0.02454  0.63034  1.0000
  H   H285      1.0  0.30492  0.04083  0.64902  1.0000
  S   S91       1.0  0.10481  0.43893  0.48532  1.0000
  H   H286      1.0  0.20242  0.99387  0.51020  1.0000
  H   H287      1.0  0.12222  0.45991  0.52873  1.0000
  N   N19       1.0  0.13644  0.03485  0.52133  1.0000
  C   C182      1.0  0.22773  0.43979  0.67095  1.0000
  C   C183      1.0  0.23273  0.45891  0.66336  1.0000
  C   C184      1.0  0.23410  0.46407  0.64666  1.0000
  C   C185      1.0  0.23055  0.45007  0.63736  1.0000
  C   C186      1.0  0.22549  0.43094  0.64495  1.0000
  C   C187      1.0  0.22394  0.42585  0.66168  1.0000
  H   H288      1.0  0.23566  0.46981  0.67042  1.0000
  H   H289      1.0  0.06111  0.31078  0.48293  1.0000
  H   H290      1.0  0.22259  0.42008  0.63785  1.0000
  H   H291      1.0  0.21973  0.41121  0.66736  1.0000
  H   H292      1.0  0.25301  0.08608  0.67487  1.0000
  H   H293      1.0  0.16539  0.04261  0.50907  1.0000
  C   C188      1.0  0.15878  0.02975  0.51698  1.0000
  C   C189      1.0  0.07142  0.05186  0.47597  1.0000
  C   C190      1.0  0.99124  0.24528  0.65242  1.0000
  C   C191      1.0  0.01081  0.16230  0.49134  1.0000
  H   H294      1.0  0.11172  0.02071  0.53564  1.0000
  S   S92       1.0  0.23999  0.07180  0.70933  1.0000
  C   C192      1.0  0.11983  0.42134  0.54332  1.0000
  H   H295      1.0  0.05500  0.19581  0.66005  1.0000
  C   C193      1.0  0.99336  0.31226  0.53315  1.0000
  C   C194      1.0  0.21857  0.99870  0.52887  1.0000
  C   C195      1.0  0.24162  0.11242  0.63931  1.0000
  H   H296      1.0  0.21748  0.08323  0.64663  1.0000
  C   C196      1.0  0.20040  0.14500  0.70586  1.0000
  C   C197      1.0  0.17354  0.17448  0.70329  1.0000
  S   S93       1.0  0.11008  0.03038  0.47189  1.0000
  H   H297      1.0  0.13702  0.26838  0.67273  1.0000
  H   H298      1.0  0.16822  0.18956  0.69741  1.0000
  C   C198      1.0  0.16587  0.29241  0.70636  1.0000
  H   H299      1.0  0.06974  0.41894  0.49652  1.0000
  H   H300      1.0  0.11524  0.05723  0.53326  1.0000
  S   S94       1.0  0.02618  0.31568  0.50906  1.0000
  H   H301      1.0  0.09839  0.32216  0.50664  1.0000
  C   C199      1.0  0.18305  0.48420  0.54002  1.0000
  C   C200      1.0  0.16902  0.33000  0.71615  1.0000
  H   H302      1.0  0.26036  0.11013  0.66537  1.0000
  H   H303      1.0  0.13843  0.41757  0.50443  1.0000
  Fe  Fe47      1.0  0.01161  0.34105  0.49157  1.0000
  C   C201      1.0  0.04536  0.04457  0.49849  1.0000
  S   S95       1.0  0.16196  0.47804  0.51672  1.0000
  H   H304      1.0  0.22723  0.07112  0.66468  1.0000
  C   C202      1.0  0.99855  0.13970  0.53704  1.0000
  C   C203      1.0  0.07929  0.02425  0.49706  1.0000
  C   C204      1.0  0.05940  0.02870  0.50508  1.0000
  H   H305      1.0  0.19782  0.29178  0.69713  1.0000
  S   S96       1.0  0.22527  0.13335  0.69910  1.0000
  H   H306      1.0  0.08990  0.01199  0.50226  1.0000
  H   H307      1.0  0.20061  0.32466  0.70590  1.0000
  H   H308      1.0  0.11424  0.41236  0.51502  1.0000
  H   H309      1.0  0.12648  0.40582  0.54863  1.0000
  H   H310      1.0  0.14317  0.26881  0.65166  1.0000
  H   H311      1.0  0.02034  0.26208  0.55536  1.0000
  H   H312      1.0  0.13784  0.06646  0.52230  1.0000
  H   H313      1.0  0.28789  0.02303  0.70922  1.0000
  Fe  Fe48      1.0  0.13023  0.00040  0.47822  1.0000
  S   S97       1.0  0.00169  0.18826  0.60945  1.0000
  H   H314      1.0  0.28265  0.00684  0.69625  1.0000
  H   H315      1.0  0.22795  0.11610  0.63296  1.0000
  C   C205      1.0  0.12845  0.01726  0.53177  1.0000
  C   C206      1.0  0.08533  0.03574  0.48241  1.0000
  C   C207      1.0  0.10154  0.32729  0.49357  1.0000
  H   H316      1.0  0.28305  0.41582  0.65146  1.0000
  C   C208      1.0  0.00982  0.14666  0.54705  1.0000
  H   H317      1.0  0.02436  0.13797  0.54959  1.0000
  H   H318      1.0  0.02757  0.99775  0.48373  1.0000
  C   C209      1.0  0.05107  0.22012  0.64042  1.0000
  C   C210      1.0  0.05626  0.23928  0.63339  1.0000
  C   C211      1.0  0.06938  0.24862  0.64028  1.0000
  C   C212      1.0  0.07724  0.23908  0.65437  1.0000
  C   C213      1.0  0.07170  0.22012  0.66155  1.0000
  C   C214      1.0  0.05880  0.21068  0.65456  1.0000
  H   H319      1.0  0.05047  0.24672  0.62250  1.0000
  H   H320      1.0  0.07358  0.26328  0.63460  1.0000
  H   H321      1.0  0.07771  0.21254  0.67231  1.0000
  S   S98       1.0  0.29072  0.98879  0.56674  1.0000
  H   H322      1.0  0.07118  0.30407  0.50140  1.0000
  N   N20       1.0  0.28414  0.39758  0.67455  1.0000
  H   H323      1.0  0.00544  0.24022  0.64447  1.0000
  S   S99       1.0  0.00414  0.10783  0.49302  1.0000
  H   H324      1.0  0.10759  0.34212  0.49189  1.0000
  C   C215      1.0  0.13198  0.05292  0.52985  1.0000
  C   C216      1.0  0.25876  0.15981  0.71420  1.0000
  C   C217      1.0  0.06484  0.40344  0.47764  1.0000
  H   H325      1.0  0.20599  0.11473  0.65953  1.0000
  H   H326      1.0  0.29802  0.40726  0.69241  1.0000
  H   H327      1.0  0.17303  0.47480  0.54802  1.0000
  H   H328      1.0  0.13104  0.00354  0.52553  1.0000
  Fe  Fe49      1.0  0.12525  0.20962  0.71216  1.0000
  H   H329      1.0  0.16156  0.43308  0.51729  1.0000
  C   C218      1.0  0.26576  0.38864  0.67365  1.0000
  H   H330      1.0  0.10558  0.44855  0.51927  1.0000
  H   H331      1.0  0.26880  0.08743  0.65593  1.0000
  H   H332      1.0  0.12963  0.32459  0.67215  1.0000
  H   H333      1.0  0.12933  0.30030  0.68465  1.0000
  N   N21       1.0  0.99563  0.17714  0.48308  1.0000
  H   H334      1.0  0.15308  0.30767  0.67481  1.0000
  C   C219      1.0  0.18452  0.30020  0.70335  1.0000
  H   H335      1.0  0.03757  0.27889  0.52993  1.0000
  C   C220      1.0  0.28426  0.40076  0.69118  1.0000
  C   C221      1.0  0.04284  0.99894  0.47656  1.0000
  C   C222      1.0  0.28383  0.41747  0.66404  1.0000
  H   H336      1.0  0.21710  0.10311  0.67717  1.0000
  Fe  Fe50      1.0  0.25749  0.00024  0.57372  1.0000
  H   H337      1.0  0.01765  0.19665  0.47147  1.0000
  H   H338      1.0  0.16095  0.27536  0.66308  1.0000
  N   N22       1.0  0.13114  0.42765  0.52750  1.0000
  H   H339      1.0  0.30306  0.36827  0.67730  1.0000
  H   H340      1.0  0.30522  0.13377  0.70989  1.0000
  H   H341      1.0  0.99563  0.20041  0.49767  1.0000
  C   C223      1.0  0.00229  0.16456  0.55403  1.0000
  H   H342      1.0  0.16267  0.01615  0.51056  1.0000
  Fe  Fe51      1.0  0.99766  0.07535  0.49888  1.0000
  C   C224      1.0  0.07510  0.41580  0.48445  1.0000
  H   H343      1.0  0.24928  0.16717  0.70470  1.0000
  C   C225      1.0  0.31215  0.13958  0.71843  1.0000
  C   C226      1.0  0.18615  0.31883  0.70830  1.0000
  H   H344      1.0  0.26439  0.38711  0.66117  1.0000
  H   H345      1.0  0.27061  0.41158  0.69534  1.0000
  H   H346      1.0  0.13736  0.39724  0.52098  1.0000
  C   C227      1.0  0.09205  0.42429  0.47574  1.0000
  C   C228      1.0  0.99342  0.28472  0.55580  1.0000
  S   S100      1.0  0.27571  0.34284  0.70751  1.0000
  C   C229      1.0  0.02248  0.28557  0.53480  1.0000
  C   C230      1.0  0.15268  0.42813  0.52905  1.0000
  H   H347      1.0  0.13859  0.32572  0.64273  1.0000
  H   H348      1.0  0.32071  0.16583  0.70202  1.0000
  H   H349      1.0  0.20305  0.17229  0.68881  1.0000
  H   H350      1.0  0.14427  0.30229  0.63413  1.0000
  C   C231      1.0  0.30254  0.38337  0.66944  1.0000
  H   H351      1.0  0.12956  0.02607  0.50005  1.0000
  H   H352      1.0  0.00329  0.15327  0.50210  1.0000
  C   C232      1.0  0.25564  0.09580  0.66313  1.0000
  C   C233      1.0  0.01275  0.27599  0.54921  1.0000
  C   C234      1.0  0.28621  0.00698  0.70848  1.0000
  H   H353      1.0  0.05475  0.01971  0.51638  1.0000
  C   C235      1.0  0.12655  0.03945  0.50670  1.0000
  C   C236      1.0  0.22038  0.11163  0.66496  1.0000
  H   H354      1.0  0.13620  0.01273  0.54263  1.0000
  H   H355      1.0  0.27024  0.42854  0.66789  1.0000
  Fe  Fe52      1.0  0.12796  0.46054  0.47458  1.0000
  C   C237      1.0  0.14877  0.30346  0.71437  1.0000
  C   C238      1.0  0.28954  0.32358  0.71996  1.0000
  H   H356      1.0  0.13006  0.45337  0.50910  1.0000
  H   H357      1.0  0.23010  0.00595  0.52060  1.0000
  N   N23       1.0  0.13492  0.29850  0.65946  1.0000
  C   C239      1.0  0.11310  0.29954  0.65797  1.0000
  C   C240      1.0  0.14538  0.30930  0.64480  1.0000
  C   C241      1.0  0.14450  0.27684  0.66174  1.0000
  C   C242      1.0  0.13678  0.30825  0.67332  1.0000
  H   H358      1.0  0.10533  0.31562  0.65610  1.0000
  H   H359      1.0  0.10472  0.29158  0.66886  1.0000
  H   H360      1.0  0.11112  0.29186  0.64785  1.0000
  H   H361      1.0  0.16190  0.30870  0.64557  1.0000
  H   H362      1.0  0.25413  0.10406  0.63155  1.0000
  H   H363      1.0  0.24644  0.12718  0.64046  1.0000
  H   H364      1.0  0.28408  0.38609  0.69949  1.0000
  H   H365      1.0  0.12018  0.43220  0.55178  1.0000
  H   H366      1.0  0.11381  0.31585  0.48842  1.0000
  C   C243      1.0  0.23110  0.08061  0.65298  1.0000
  H   H367      1.0  0.16676  0.02598  0.52775  1.0000
  H   H368      1.0  0.06273  0.33993  0.50622  1.0000
  H   H369      1.0  0.22426  0.12667  0.66648  1.0000
  H   H370      1.0  0.05170  0.39725  0.48446  1.0000
  H   H371      1.0  0.13228  0.05249  0.49837  1.0000
  N   N24       1.0  0.23717  0.10012  0.65509  1.0000
  H   H372      1.0  0.00292  0.22927  0.68085  1.0000
  H   H373      1.0  0.30279  0.38045  0.65701  1.0000
  H   H374      1.0  0.99411  0.20614  0.64672  1.0000
  H   H375      1.0  0.99439  0.20488  0.68208  1.0000
  H   H376      1.0  0.08674  0.29759  0.48322  1.0000
  H   H377      1.0  0.24579  0.01209  0.70699  1.0000
  Fe  Fe53      1.0  0.24632  0.36151  0.71750  1.0000
  H   H378      1.0  0.10967  0.04340  0.50944  1.0000
  H   H379      1.0  0.30112  0.47780  0.53319  1.0000
  H   H380      1.0  0.30897  0.31124  0.70014  1.0000
  C   C244      1.0  0.21963  0.99617  0.54537  1.0000
  H   H381      1.0  0.31675  0.38957  0.66997  1.0000
  H   H382      1.0  0.04881  0.01161  0.48037  1.0000
  H   H383      1.0  0.13431  0.29766  0.71673  1.0000
  H   H384      1.0  0.25170  0.39836  0.67838  1.0000
  H   H385      1.0  0.29761  0.42457  0.66420  1.0000
  S   S101      1.0  0.29934  0.99044  0.60297  1.0000
  S   S102      1.0  0.31912  0.03566  0.56805  1.0000
  H   H386      1.0  0.01944  0.15117  0.48345  1.0000
  C   C245      1.0  0.99944  0.21818  0.67368  1.0000
  C   C246      1.0  0.30557  0.31002  0.71299  1.0000
  H   H387      1.0  0.27412  0.16470  0.71087  1.0000
  C   C247      1.0  0.20285  0.99188  0.52292  1.0000
  H   H388      1.0  0.30136  0.99750  0.70958  1.0000
  C   C248      1.0  0.25035  0.01253  0.71882  1.0000
  C   C249      1.0  0.16061  0.16464  0.71550  1.0000
  Fe  Fe54      1.0  0.99142  0.24195  0.58656  1.0000
  C   C250      1.0  0.18768  0.13528  0.71831  1.0000
  C   C251      1.0  0.15035  0.32222  0.71917  1.0000
  H   H389      1.0  0.99124  0.14759  0.60625  1.0000
  H   H390      1.0  0.99125  0.13675  0.58071  1.0000
  C   C252      1.0  0.20449  0.98694  0.55588  1.0000
  H   H391      1.0  0.19233  0.40047  0.92409  1.0000
  Fe  Fe55      1.0  0.00718  0.22057  0.81764  1.0000
  S   S103      1.0  0.04004  0.21227  0.80679  1.0000
  S   S104      1.0  0.06723  0.25882  0.73819  1.0000
  H   H392      1.0  0.18922  0.48285  0.80283  1.0000
  H   H393      1.0  0.20130  0.40806  0.87985  1.0000
  C   C253      1.0  0.05153  0.40802  0.96411  1.0000
  Fe  Fe56      1.0  0.03671  0.35684  0.88721  1.0000
  S   S105      1.0  0.03048  0.38931  0.87473  1.0000
  S   S106      1.0  0.03747  0.32634  0.87769  1.0000
  Fe  Fe57      1.0  0.05034  0.37142  0.91583  1.0000
  S   S107      1.0  0.04531  0.40458  0.90540  1.0000
  S   S108      1.0  0.06254  0.35933  0.93944  1.0000
  Fe  Fe58      1.0  0.01629  0.39764  0.89891  1.0000
  S   S109      1.0  0.18316  0.47627  0.83797  1.0000
  Fe  Fe59      1.0  0.06004  0.39399  0.88212  1.0000
  S   S110      1.0  0.08134  0.41200  0.86375  1.0000
  S   S111      1.0  0.02031  0.36483  0.91101  1.0000
  S   S112      1.0  0.06732  0.36121  0.89292  1.0000
  S   S113      1.0  0.21125  0.38888  0.76966  1.0000
  H   H394      1.0  0.04332  0.42344  0.96290  1.0000
  H   H395      1.0  0.04358  0.20906  0.75177  1.0000
  Fe  Fe60      1.0  0.19981  0.36684  0.72049  1.0000
  S   S114      1.0  0.21702  0.44225  0.85538  1.0000
  C   C254      1.0  0.27212  0.45745  0.90726  1.0000
  C   C255      1.0  0.04899  0.16817  0.75069  1.0000
  Fe  Fe61      1.0  0.21635  0.46349  0.83224  1.0000
  S   S115      1.0  0.22960  0.45753  0.80690  1.0000
  Fe  Fe62      1.0  0.22618  0.46786  0.86560  1.0000
  C   C256      1.0  0.23993  0.99674  0.79082  1.0000
  C   C257      1.0  0.03353  0.26641  0.82078  1.0000
  N   N25       1.0  0.21112  0.40969  0.90220  1.0000
  H   H396      1.0  0.06032  0.29541  0.79111  1.0000
  H   H397      1.0  0.20601  0.38380  0.89220  1.0000
  C   C258      1.0  0.29710  0.30693  0.74615  1.0000
  H   H398      1.0  0.27722  0.15863  0.74009  1.0000
  S   S116      1.0  0.23364  0.03944  0.75138  1.0000
  H   H399      1.0  0.05469  0.15198  0.75521  1.0000
  C   C259      1.0  0.20003  0.40030  0.89243  1.0000
  H   H400      1.0  0.26890  0.44212  0.91186  1.0000
  C   C260      1.0  0.02084  0.29080  0.79931  1.0000
  H   H401      1.0  0.20288  0.48273  0.78318  1.0000
  H   H402      1.0  0.06724  0.46600  0.89350  1.0000
  C   C261      1.0  0.23237  0.00946  0.77758  1.0000
  C   C262      1.0  0.24355  0.02428  0.76826  1.0000
  C   C263      1.0  0.26248  0.02617  0.77225  1.0000
  C   C264      1.0  0.27007  0.01341  0.78545  1.0000
  C   C265      1.0  0.20873  0.39919  0.91880  1.0000
  H   H403      1.0  0.13505  0.35342  0.77687  1.0000
  H   H404      1.0  0.27127  0.03749  0.76522  1.0000
  H   H405      1.0  0.28472  0.01503  0.78842  1.0000
  C   C266      1.0  0.22387  0.43862  0.79667  1.0000
  C   C267      1.0  0.21148  0.42401  0.80418  1.0000
  C   C268      1.0  0.20770  0.40901  0.79569  1.0000
  C   C269      1.0  0.21607  0.40854  0.77958  1.0000
  C   C270      1.0  0.22816  0.42338  0.77199  1.0000
  C   C271      1.0  0.23209  0.43828  0.78052  1.0000
  H   H406      1.0  0.20504  0.42408  0.81658  1.0000
  H   H407      1.0  0.19834  0.39761  0.80169  1.0000
  H   H408      1.0  0.23474  0.42319  0.75962  1.0000
  H   H409      1.0  0.24175  0.44946  0.77460  1.0000
  H   H410      1.0  0.16968  0.31828  0.76991  1.0000
  H   H411      1.0  0.28259  0.02046  0.82833  1.0000
  H   H412      1.0  0.02026  0.47672  0.89426  1.0000
  H   H413      1.0  0.27299  0.33231  0.74207  1.0000
  N   N26       1.0  0.24906  0.16511  0.73002  1.0000
  C   C272      1.0  0.06249  0.37571  0.95364  1.0000
  C   C273      1.0  0.05181  0.39563  0.95230  1.0000
  H   H414      1.0  0.04369  0.40143  0.94220  1.0000
  C   C274      1.0  0.10393  0.41903  0.86806  1.0000
  C   C275      1.0  0.11571  0.43078  0.85609  1.0000
  C   C276      1.0  0.13371  0.43677  0.85910  1.0000
  C   C277      1.0  0.14005  0.43105  0.87415  1.0000
  C   C278      1.0  0.12816  0.41945  0.88615  1.0000
  C   C279      1.0  0.11016  0.41348  0.88314  1.0000
  H   H415      1.0  0.11099  0.43512  0.84438  1.0000
  H   H416      1.0  0.14274  0.44567  0.84977  1.0000
  H   H417      1.0  0.13294  0.41496  0.89783  1.0000
  H   H418      1.0  0.10123  0.40443  0.89245  1.0000
  C   C280      1.0  0.23303  0.40772  0.89558  1.0000
  H   H419      1.0  0.21082  0.43933  0.90904  1.0000
  H   H420      1.0  0.18356  0.33277  0.75346  1.0000
  H   H421      1.0  0.24432  0.02259  0.85292  1.0000
  H   H422      1.0  0.23534  0.41563  0.88308  1.0000
  H   H423      1.0  0.29956  0.02596  0.84075  1.0000
  C   C281      1.0  0.22841  0.15906  0.73361  1.0000
  H   H424      1.0  0.99649  0.34031  0.86822  1.0000
  S   S117      1.0  0.30170  0.10597  0.74002  1.0000
  H   H425      1.0  0.25465  0.15743  0.75446  1.0000
  C   C282      1.0  0.99486  0.29456  0.85560  1.0000
  C   C283      1.0  0.28337  0.02459  0.84029  1.0000
  H   H426      1.0  0.24808  0.99623  0.86169  1.0000
  H   H427      1.0  0.03974  0.31651  0.81103  1.0000
  N   N27       1.0  0.27577  0.00910  0.85323  1.0000
  H   H428      1.0  0.15637  0.33557  0.75530  1.0000
  H   H429      1.0  0.23788  0.00774  0.72826  1.0000
  N   N28       1.0  0.03707  0.28524  0.80969  1.0000
  H   H430      1.0  0.02292  0.30505  0.79087  1.0000
  H   H431      1.0  0.05782  0.26886  0.79263  1.0000
  H   H432      1.0  0.24184  0.41488  0.90254  1.0000
  H   H433      1.0  0.21691  0.40596  0.92647  1.0000
  H   H434      1.0  0.18339  0.40163  0.89702  1.0000
  C   C284      1.0  0.31312  0.29336  0.73919  1.0000
  C   C285      1.0  0.02048  0.31458  0.86937  1.0000
  C   C286      1.0  0.02656  0.29430  0.86609  1.0000
  C   C287      1.0  0.01383  0.28429  0.85936  1.0000
  C   C288      1.0  0.03386  0.44766  0.87560  1.0000
  H   H435      1.0  0.26748  0.03001  0.87056  1.0000
  H   H436      1.0  0.07722  0.16480  0.77018  1.0000
  H   H437      1.0  0.04123  0.28625  0.86891  1.0000
  H   H438      1.0  0.01869  0.26863  0.85717  1.0000
  H   H439      1.0  0.26280  0.19251  0.72726  1.0000
  H   H440      1.0  0.08966  0.15822  0.74219  1.0000
  Fe  Fe63      1.0  0.18459  0.45690  0.86191  1.0000
  H   H441      1.0  0.09506  0.18393  0.73698  1.0000
  C   C289      1.0  0.06032  0.24659  0.75760  1.0000
  C   C290      1.0  0.07477  0.23419  0.76639  1.0000
  C   C291      1.0  0.06847  0.22407  0.78167  1.0000
  C   C292      1.0  0.04771  0.22594  0.78802  1.0000
  C   C293      1.0  0.03334  0.23838  0.77921  1.0000
  C   C294      1.0  0.03967  0.24892  0.76417  1.0000
  H   H442      1.0  0.09077  0.23243  0.76142  1.0000
  H   H443      1.0  0.07968  0.21452  0.78848  1.0000
  H   H444      1.0  0.01727  0.23949  0.78374  1.0000
  H   H445      1.0  0.02841  0.25837  0.75735  1.0000
  H   H446      1.0  0.23814  0.19618  0.72069  1.0000
  S   S118      1.0  0.24631  0.39236  0.72464  1.0000
  Fe  Fe64      1.0  0.28081  0.09314  0.72702  1.0000
  H   H447      1.0  0.14704  0.36341  0.79059  1.0000
  H   H448      1.0  0.99092  0.15746  0.85256  1.0000
  H   H449      1.0  0.18622  0.33218  0.78894  1.0000
  H   H450      1.0  0.02152  0.30551  0.82629  1.0000
  C   C295      1.0  0.05799  0.45474  0.89125  1.0000
  H   H451      1.0  0.06782  0.48153  0.86531  1.0000
  Fe  Fe65      1.0  0.24896  0.06402  0.73423  1.0000
  C   C296      1.0  0.24746  0.18744  0.72990  1.0000
  H   H452      1.0  0.06975  0.27729  0.80717  1.0000
  S   S119      1.0  0.16273  0.43777  0.87856  1.0000
  H   H453      1.0  0.02388  0.44219  0.88661  1.0000
  H   H454      1.0  0.29280  0.45722  0.92428  1.0000
  S   S120      1.0  0.31701  0.46435  0.95997  1.0000
  H   H455      1.0  0.04829  0.29826  0.82734  1.0000
  C   C297      1.0  0.05714  0.28158  0.79972  1.0000
  H   H456      1.0  0.02078  0.27847  0.79204  1.0000
  C   C298      1.0  0.31724  0.29485  0.72257  1.0000
  H   H457      1.0  0.29286  0.01588  0.87040  1.0000
  C   C299      1.0  0.31265  0.12882  0.73381  1.0000
  H   H458      1.0  0.05127  0.20384  0.73157  1.0000
  C   C300      1.0  0.20266  0.43160  0.90200  1.0000
  H   H459      1.0  0.21493  0.38261  0.91941  1.0000
  H   H460      1.0  0.18608  0.43378  0.90674  1.0000
  H   H461      1.0  0.20416  0.43994  0.88967  1.0000
  C   C301      1.0  0.27525  0.00050  0.73690  1.0000
  C   C302      1.0  0.28847  0.98903  0.85170  1.0000
  H   H462      1.0  0.27113  0.00343  0.87888  1.0000
  H   H463      1.0  0.05809  0.18642  0.77393  1.0000
  H   H464      1.0  0.26361  0.13724  0.74249  1.0000
  C   C303      1.0  0.25885  0.99865  0.79483  1.0000
  C   C304      1.0  0.25435  0.00768  0.85200  1.0000
  H   H465      1.0  0.20012  0.34664  0.77246  1.0000
  C   C305      1.0  0.28570  0.46598  0.91435  1.0000
  H   H466      1.0  0.19300  0.12016  0.72414  1.0000
  H   H467      1.0  0.08159  0.35313  0.96777  1.0000
  N   N29       1.0  0.06489  0.18141  0.74933  1.0000
  H   H468      1.0  0.15786  0.13733  0.73249  1.0000
  C   C306      1.0  0.08284  0.17420  0.73813  1.0000
  C   C307      1.0  0.05664  0.20270  0.74334  1.0000
  C   C308      1.0  0.00141  0.32474  0.86579  1.0000
  H   H469      1.0  0.00542  0.29341  0.80646  1.0000
  H   H470      1.0  0.03526  0.17333  0.75907  1.0000
  H   H471      1.0  0.04394  0.16837  0.73892  1.0000
  H   H472      1.0  0.03409  0.25327  0.81421  1.0000
  C   C309      1.0  0.07294  0.36836  0.96685  1.0000
  C   C310      1.0  0.07115  0.18067  0.76519  1.0000
  H   H473      1.0  0.08339  0.19025  0.76451  1.0000
  S   S121      1.0  0.13533  0.17620  0.72137  1.0000
  S   S122      1.0  0.24635  0.45656  0.88549  1.0000
  H   H474      1.0  0.01830  0.26845  0.82820  1.0000
  N   N30       1.0  0.27011  0.99954  0.72094  1.0000
  H   H475      1.0  0.02415  0.45365  0.86603  1.0000
  C   C311      1.0  0.14867  0.35082  0.78323  1.0000
  S   S123      1.0  0.19658  0.39872  0.72684  1.0000
  C   C312      1.0  0.16755  0.36996  0.76114  1.0000
  H   H476      1.0  0.99128  0.43967  0.87328  1.0000
  H   H477      1.0  0.04524  0.26194  0.82902  1.0000
  S   S124      1.0  0.00008  0.22259  0.84398  1.0000
  H   H478      1.0  0.21771  0.00786  0.77461  1.0000
  H   H479      1.0  0.15462  0.37295  0.75401  1.0000
  H   H480      1.0  0.04419  0.43403  0.87179  1.0000
  H   H481      1.0  0.04837  0.44993  0.90266  1.0000
  H   H482      1.0  0.06850  0.21293  0.74164  1.0000
  H   H483      1.0  0.16659  0.38307  0.76786  1.0000
  C   C313      1.0  0.18546  0.34691  0.78073  1.0000
  C   C314      1.0  0.27688  0.01493  0.86893  1.0000
  C   C315      1.0  0.16939  0.33343  0.76229  1.0000
  H   H484      1.0  0.06993  0.45650  0.85973  1.0000
  S   S125      1.0  0.24749  0.09717  0.73713  1.0000
  S   S126      1.0  0.22200  0.35304  0.73765  1.0000
  H   H485      1.0  0.24000  0.39143  0.89550  1.0000
  H   H486      1.0  0.29384  0.30588  0.75900  1.0000
  H   H487      1.0  0.06885  0.44098  0.88808  1.0000
  H   H488      1.0  0.14828  0.33620  0.79153  1.0000
  C   C316      1.0  0.28524  0.32190  0.73659  1.0000
  C   C317      1.0  0.26164  0.15415  0.74231  1.0000
  H   H489      1.0  0.27414  0.03997  0.84103  1.0000
  H   H490      1.0  0.29018  0.99109  0.73895  1.0000
  C   C318      1.0  0.26294  0.46844  0.89413  1.0000
  Fe  Fe66      1.0  0.21978  0.38525  0.74327  1.0000
  N   N31       1.0  0.16776  0.35026  0.77186  1.0000
  H   H491      1.0  0.27617  0.01648  0.73846  1.0000
  H   H492      1.0  0.18176  0.36999  0.75251  1.0000
  C   C319      1.0  0.32194  0.13646  0.74471  1.0000
  C   C320      1.0  0.03669  0.30212  0.81896  1.0000
  N   N32       1.0  0.04538  0.46335  0.87843  1.0000
  H   H493      1.0  0.18484  0.35946  0.78795  1.0000
  H   H494      1.0  0.07890  0.17477  0.72594  1.0000
  H   H495      1.0  0.21842  0.16734  0.72470  1.0000
  H   H496      1.0  0.22072  0.16241  0.74560  1.0000
  S   S127      1.0  0.12643  0.23347  0.72756  1.0000
  H   H497      1.0  0.22899  0.14240  0.73333  1.0000
  S   S128      1.0  0.28264  0.05940  0.72582  1.0000
  H   H498      1.0  0.24013  0.19200  0.74165  1.0000
  H   H499      1.0  0.99230  0.99702  0.87753  1.0000
  C   C321      1.0  0.03079  0.48119  0.88324  1.0000
  S   S129      1.0  0.19373  0.48158  0.87291  1.0000
  H   H500      1.0  0.13700  0.33079  0.72520  1.0000
  H   H501      1.0  0.26340  0.99500  0.74659  1.0000
  H   H502      1.0  0.04985  0.47616  0.85364  1.0000
  S   S130      1.0  0.17018  0.35379  0.72221  1.0000
  Fe  Fe67      1.0  0.09466  0.24567  0.72201  1.0000
  H   H503      1.0  0.25302  0.00293  0.84039  1.0000
  C   C322      1.0  0.05880  0.46973  0.86362  1.0000
  C   C323      1.0  0.29042  0.48560  0.90830  1.0000
  H   H504      1.0  0.30467  0.98932  0.85290  1.0000
  H   H505      1.0  0.99630  0.11944  0.85755  1.0000
  C   C324      1.0  0.16778  0.14503  0.72302  1.0000
  H   H506      1.0  0.32241  0.12823  0.75664  1.0000
  S   S131      1.0  0.99010  0.25162  0.81043  1.0000
  S   S132      1.0  0.13790  0.75708  0.19073  1.0000
  Fe  Fe68      1.0  0.10523  0.75159  0.19349  1.0000
  S   S133      1.0  0.08772  0.76059  0.17207  1.0000
  C   C325      1.0  0.22618  0.97056  0.01068  1.0000
  Fe  Fe69      1.0  0.01422  0.74328  0.09453  1.0000
  S   S134      1.0  0.03154  0.71135  0.09867  1.0000
  H   H507      1.0  0.03972  0.50370  0.03801  1.0000
  H   H508      1.0  0.28157  0.58932  0.12841  1.0000
  H   H509      1.0  0.00310  0.79516  0.09414  1.0000
  Fe  Fe70      1.0  0.02094  0.71319  0.12466  1.0000
  S   S135      1.0  0.04108  0.70206  0.14415  1.0000
  S   S136      1.0  0.00533  0.74557  0.12062  1.0000
  H   H510      1.0  0.18429  0.57142  0.21873  1.0000
  S   S137      1.0  0.23847  0.92679  0.18954  1.0000
  Fe  Fe71      1.0  0.19681  0.96522  0.10675  1.0000
  S   S138      1.0  0.13738  0.80718  0.20613  1.0000
  S   S139      1.0  0.19190  0.94167  0.12875  1.0000
  N   N33       1.0  0.20788  0.97410  0.02264  1.0000
  C   C326      1.0  0.01604  0.94566  0.98319  1.0000
  S   S140      1.0  0.09473  0.77105  0.21316  1.0000
  H   H511      1.0  0.01137  0.59481  0.05443  1.0000
  H   H512      1.0  0.31718  0.58055  0.16677  1.0000
  S   S141      1.0  0.20040  0.95410  0.08300  1.0000
  Fe  Fe72      1.0  0.23553  0.90270  0.21161  1.0000
  H   H513      1.0  0.14664  0.67913  0.20554  1.0000
  H   H514      1.0  0.01758  0.90523  0.98497  1.0000
  Fe  Fe73      1.0  0.22467  0.59726  0.20159  1.0000
  S   S142      1.0  0.24902  0.59735  0.18029  1.0000
  C   C327      1.0  0.18992  0.96907  0.01697  1.0000
  H   H515      1.0  0.27217  0.88720  0.09897  1.0000
  S   S143      1.0  0.27804  0.56443  0.20331  1.0000
  Fe  Fe74      1.0  0.27040  0.59883  0.19773  1.0000
  H   H516      1.0  0.00395  0.68963  0.16388  1.0000
  Fe  Fe75      1.0  0.25543  0.56310  0.18670  1.0000
  S   S144      1.0  0.26612  0.54093  0.16810  1.0000
  N   N34       1.0  0.01063  0.57226  0.07547  1.0000
  S   S145      1.0  0.22923  0.56283  0.20655  1.0000
  H   H517      1.0  0.00540  0.49530  0.00269  1.0000
  H   H518      1.0  0.03969  0.74648  0.13926  1.0000
  Fe  Fe76      1.0  0.04103  0.88400  0.05373  1.0000
  S   S146      1.0  0.07535  0.88048  0.04841  1.0000
  S   S147      1.0  0.02063  0.86307  0.07028  1.0000
  Fe  Fe77      1.0  0.03594  0.92771  0.03561  1.0000
  S   S148      1.0  0.06967  0.92757  0.02900  1.0000
  H   H519      1.0  0.00368  0.72852  0.19013  1.0000
  Fe  Fe78      1.0  0.06993  0.89576  0.02361  1.0000
  S   S149      1.0  0.08888  0.88854  0.00035  1.0000
  Fe  Fe79      1.0  0.07226  0.91269  0.05410  1.0000
  S   S150      1.0  0.09033  0.92178  0.07145  1.0000
  S   S151      1.0  0.03590  0.89696  0.02848  1.0000
  S   S152      1.0  0.03817  0.91524  0.06121  1.0000
  C   C328      1.0  0.07675  0.88282  0.98519  1.0000
  C   C329      1.0  0.05752  0.87643  0.98863  1.0000
  H   H520      1.0  0.18690  0.97867  0.00547  1.0000
  H   H521      1.0  0.05023  0.87406  0.00084  1.0000
  C   C330      1.0  0.20198  0.65044  0.20698  1.0000
  H   H522      1.0  0.02255  0.93694  0.99391  1.0000
  C   C331      1.0  0.03175  0.56205  0.07137  1.0000
  H   H523      1.0  0.30421  0.95598  0.01331  1.0000
  C   C332      1.0  0.23318  0.51169  0.13596  1.0000
  C   C333      1.0  0.22215  0.52630  0.14546  1.0000
  C   C334      1.0  0.23184  0.53523  0.15546  1.0000
  C   C335      1.0  0.25282  0.52978  0.15606  1.0000
  C   C336      1.0  0.26385  0.51514  0.14658  1.0000
  C   C337      1.0  0.25414  0.50611  0.13665  1.0000
  H   H524      1.0  0.22310  0.54649  0.16259  1.0000
  H   H525      1.0  0.28010  0.51082  0.14686  1.0000
  H   H526      1.0  0.03300  0.86773  0.97900  1.0000
  C   C338      1.0  0.13922  0.96476  0.06182  1.0000
  C   C339      1.0  0.12867  0.96259  0.04943  1.0000
  C   C340      1.0  0.11399  0.94913  0.05203  1.0000
  C   C341      1.0  0.10946  0.93802  0.06716  1.0000
  C   C342      1.0  0.11998  0.94027  0.07951  1.0000
  C   C343      1.0  0.13489  0.95342  0.07685  1.0000
  Fe  Fe80      1.0  0.14260  0.72950  0.20933  1.0000
  H   H527      1.0  0.10618  0.94737  0.04238  1.0000
  H   H528      1.0  0.11657  0.93177  0.09126  1.0000
  H   H529      1.0  0.14282  0.95498  0.08650  1.0000
  C   C344      1.0  0.17741  0.68183  0.20814  1.0000
  H   H530      1.0  0.25535  0.52226  0.97344  1.0000
  H   H531      1.0  0.06293  0.95504  0.05794  1.0000
  C   C345      1.0  0.16201  0.67118  0.20607  1.0000
  S   S153      1.0  0.24528  0.60135  0.21854  1.0000
  C   C346      1.0  0.29181  0.96506  0.01992  1.0000
  C   C347      1.0  0.99391  0.96651  0.05303  1.0000
  S   S154      1.0  0.99307  0.69856  0.12459  1.0000
  Fe  Fe81      1.0  0.12780  0.77529  0.21114  1.0000
  H   H532      1.0  0.30892  0.61508  0.15217  1.0000
  H   H533      1.0  0.05307  0.79540  0.05585  1.0000
  C   C348      1.0  0.04784  0.87276  0.97625  1.0000
  C   C349      1.0  0.22546  0.93037  0.17272  1.0000
  C   C350      1.0  0.23046  0.94550  0.15990  1.0000
  C   C351      1.0  0.22024  0.94924  0.14639  1.0000
  C   C352      1.0  0.20489  0.93784  0.14560  1.0000
  C   C353      1.0  0.20000  0.92259  0.15835  1.0000
  C   C354      1.0  0.21023  0.91884  0.17188  1.0000
  H   H534      1.0  0.24231  0.95440  0.16048  1.0000
  H   H535      1.0  0.22422  0.96093  0.13664  1.0000
  H   H536      1.0  0.18819  0.91364  0.15781  1.0000
  H   H537      1.0  0.20626  0.90714  0.18167  1.0000
  H   H538      1.0  0.23642  0.94080  0.11504  1.0000
  C   C355      1.0  0.18665  0.63979  0.20483  1.0000
  H   H539      1.0  0.04189  0.57323  0.06500  1.0000
  H   H540      1.0  0.08209  0.98299  0.05835  1.0000
  H   H541      1.0  0.31951  0.70272  0.21567  1.0000
  H   H542      1.0  0.25544  0.94299  0.09776  1.0000
  H   H543      1.0  0.20594  0.53077  0.14506  1.0000
  C   C356      1.0  0.00771  0.50560  0.04738  1.0000
  H   H544      1.0  0.24679  0.88405  0.12357  1.0000
  H   H545      1.0  0.22014  0.91722  0.10397  1.0000
  C   C357      1.0  0.16316  0.83406  0.20857  1.0000
  H   H546      1.0  0.00426  0.70154  0.19687  1.0000
  H   H547      1.0  0.99829  0.89700  0.05231  1.0000
  H   H548      1.0  0.19209  0.95272  0.01514  1.0000
  H   H549      1.0  0.99930  0.94960  0.98676  1.0000
  C   C358      1.0  0.02832  0.79262  0.07520  1.0000
  C   C359      1.0  0.01329  0.80339  0.08526  1.0000
  C   C360      1.0  0.01122  0.82494  0.08365  1.0000
  C   C361      1.0  0.02424  0.83591  0.07208  1.0000
  C   C362      1.0  0.03945  0.82510  0.06218  1.0000
  C   C363      1.0  0.04143  0.80358  0.06373  1.0000
  H   H550      1.0  0.02258  0.96025  0.98021  1.0000
  C   C364      1.0  0.30586  0.70894  0.20960  1.0000
  H   H551      1.0  0.04953  0.83333  0.05320  1.0000
  H   H552      1.0  0.99717  0.54516  0.07592  1.0000
  S   S155      1.0  0.03152  0.76553  0.07653  1.0000
  H   H553      1.0  0.21470  0.94446  0.03641  1.0000
  Fe  Fe82      1.0  0.31629  0.48957  0.97450  1.0000
  H   H554      1.0  0.99637  0.65448  0.05651  1.0000
  C   C365      1.0  0.26660  0.96837  0.04385  1.0000
  H   H555      1.0  0.29063  0.57840  0.17065  1.0000
  H   H556      1.0  0.07703  0.97412  0.03239  1.0000
  H   H557      1.0  0.99942  0.83314  0.09138  1.0000
  S   S156      1.0  0.00288  0.53242  0.04193  1.0000
  S   S157      1.0  0.01540  0.95500  0.02477  1.0000
  C   C366      1.0  0.24684  0.90052  0.12418  1.0000
  C   C367      1.0  0.05319  0.71863  0.15236  1.0000
  C   C368      1.0  0.06641  0.71029  0.16367  1.0000
  C   C369      1.0  0.07675  0.72297  0.17012  1.0000
  C   C370      1.0  0.07407  0.74411  0.16518  1.0000
  C   C371      1.0  0.06063  0.75248  0.15401  1.0000
  C   C372      1.0  0.05007  0.73983  0.14775  1.0000
  H   H558      1.0  0.06889  0.69390  0.16735  1.0000
  H   H559      1.0  0.08710  0.71633  0.17867  1.0000
  H   H560      1.0  0.05833  0.76884  0.15023  1.0000
  N   N35       1.0  0.10595  0.81993  0.16768  1.0000
  C   C373      1.0  0.12322  0.80325  0.16541  1.0000
  C   C374      1.0  0.09241  0.81429  0.18260  1.0000
  C   C375      1.0  0.09425  0.82320  0.15407  1.0000
  C   C376      1.0  0.11393  0.83890  0.16867  1.0000
  H   H561      1.0  0.11779  0.78856  0.16498  1.0000
  H   H562      1.0  0.13257  0.80057  0.17535  1.0000
  H   H563      1.0  0.13361  0.80684  0.15416  1.0000
  H   H564      1.0  0.07918  0.82647  0.18468  1.0000
  H   H565      1.0  0.08628  0.79991  0.18236  1.0000
  H   H566      1.0  0.10070  0.81174  0.19314  1.0000
  H   H567      1.0  0.08103  0.83563  0.15539  1.0000
  H   H568      1.0  0.08811  0.80901  0.15313  1.0000
  H   H569      1.0  0.10395  0.82747  0.14258  1.0000
  H   H570      1.0  0.10135  0.85184  0.17045  1.0000
  H   H571      1.0  0.12431  0.84359  0.15766  1.0000
  H   H572      1.0  0.12281  0.83676  0.17891  1.0000
  H   H573      1.0  0.28802  0.67510  0.21654  1.0000
  H   H574      1.0  0.22424  0.96479  0.04276  1.0000
  C   C377      1.0  0.27050  0.49171  0.02373  1.0000
  S   S158      1.0  0.15732  0.98210  0.05815  1.0000
  H   H575      1.0  0.05210  0.97948  0.02624  1.0000
  H   H576      1.0  0.21745  0.64263  0.20722  1.0000
  S   S159      1.0  0.21976  0.50052  0.12401  1.0000
  H   H577      1.0  0.30797  0.55902  0.16147  1.0000
  H   H578      1.0  0.01946  0.71023  0.17855  1.0000
  S   S160      1.0  0.25505  0.95718  0.06268  1.0000
  H   H579      1.0  0.22444  0.98057  0.99911  1.0000
  C   C378      1.0  0.23564  0.91099  0.09831  1.0000
  H   H580      1.0  0.15471  0.64207  0.20275  1.0000
  H   H581      1.0  0.99470  0.91766  0.97707  1.0000
  H   H582      1.0  0.23846  0.92001  0.08622  1.0000
  C   C379      1.0  0.29660  0.60961  0.14744  1.0000
  H   H583      1.0  0.28829  0.94128  0.04008  1.0000
  N   N36       1.0  0.08089  0.74719  0.10057  1.0000
  C   C380      1.0  0.07928  0.74200  0.08476  1.0000
  C   C381      1.0  0.06262  0.76152  0.10578  1.0000
  C   C382      1.0  0.09932  0.75701  0.09942  1.0000
  C   C383      1.0  0.08234  0.72832  0.11229  1.0000
  H   H584      1.0  0.07753  0.75597  0.07572  1.0000
  H   H585      1.0  0.06566  0.73436  0.08522  1.0000
  H   H586      1.0  0.09292  0.73150  0.08027  1.0000
  H   H587      1.0  0.06343  0.76609  0.11751  1.0000
  H   H588      1.0  0.06072  0.77573  0.09699  1.0000
  H   H589      1.0  0.04845  0.75452  0.10694  1.0000
  H   H590      1.0  0.10098  0.76116  0.11114  1.0000
  H   H591      1.0  0.09863  0.77131  0.09065  1.0000
  H   H592      1.0  0.11341  0.74663  0.09551  1.0000
  H   H593      1.0  0.08426  0.73156  0.12424  1.0000
  H   H594      1.0  0.09554  0.71684  0.10849  1.0000
  H   H595      1.0  0.06832  0.72091  0.11390  1.0000
  C   C384      1.0  0.30692  0.63326  0.19781  1.0000
  C   C385      1.0  0.15443  0.81659  0.21601  1.0000
  H   H596      1.0  0.26183  0.50678  0.02127  1.0000
  H   H597      1.0  0.99457  0.59538  0.08944  1.0000
  H   H598      1.0  0.26889  0.73072  0.20721  1.0000
  C   C386      1.0  0.99213  0.49447  0.05496  1.0000
  S   S161      1.0  0.11090  0.72220  0.21021  1.0000
  H   H599      1.0  0.00349  0.54852  0.09479  1.0000
  H   H600      1.0  0.03838  0.55413  0.08223  1.0000
  C   C387      1.0  0.02756  0.49518  0.04382  1.0000
  Fe  Fe83      1.0  0.22578  0.97310  0.07557  1.0000
  S   S162      1.0  0.19196  0.61344  0.20285  1.0000
  H   H601      1.0  0.16001  0.84100  0.19676  1.0000
  S   S163      1.0  0.24203  0.86825  0.21246  1.0000
  H   H602      1.0  0.99212  0.92437  0.04853  1.0000
  C   C388      1.0  0.25163  0.93378  0.10962  1.0000
  C   C389      1.0  0.01041  0.58769  0.08603  1.0000
  C   C390      1.0  0.30822  0.62706  0.21403  1.0000
  C   C391      1.0  0.30457  0.57582  0.16189  1.0000
  H   H603      1.0  0.25817  0.90147  0.13208  1.0000
  C   C392      1.0  0.00256  0.58246  0.06069  1.0000
  H   H604      1.0  0.23151  0.90659  0.13020  1.0000
  H   H605      1.0  0.30719  0.70084  0.19906  1.0000
  S   S164      1.0  0.28855  0.49848  0.99249  1.0000
  C   C393      1.0  0.28274  0.95677  0.03511  1.0000
  H   H606      1.0  0.17588  0.97169  0.02579  1.0000
  C   C394      1.0  0.04873  0.96637  0.05762  1.0000
  C   C395      1.0  0.17589  0.84273  0.21634  1.0000
  H   H607      1.0  0.00314  0.57139  0.05220  1.0000
  C   C396      1.0  0.19734  0.67133  0.20868  1.0000
  C   C397      1.0  0.99770  0.55682  0.08371  1.0000
  H   H608      1.0  0.04139  0.96690  0.07018  1.0000
  C   C398      1.0  0.27170  0.90352  0.10037  1.0000
  C   C399      1.0  0.06252  0.98508  0.03290  1.0000
  S   S165      1.0  0.29320  0.62090  0.18711  1.0000
  H   H609      1.0  0.28400  0.90429  0.10744  1.0000
  C   C400      1.0  0.26909  0.71417  0.21199  1.0000
  H   H610      1.0  0.29437  0.61902  0.13573  1.0000
  H   H611      1.0  0.26299  0.93535  0.11730  1.0000
  H   H612      1.0  0.00279  0.72709  0.15526  1.0000
  H   H613      1.0  0.19756  0.96286  0.04706  1.0000
  H   H614      1.0  0.13195  0.97125  0.03775  1.0000
  N   N37       1.0  0.25147  0.91216  0.10813  1.0000
  H   H615      1.0  0.01661  0.58061  0.09725  1.0000
  C   C401      1.0  0.16663  0.65020  0.20449  1.0000
  S   S166      1.0  0.22374  0.98204  0.09998  1.0000
  S   S167      1.0  0.00104  0.67597  0.08170  1.0000
  C   C402      1.0  0.21124  0.96095  0.03787  1.0000
  H   H616      1.0  0.23519  0.89492  0.09672  1.0000
  H   H617      1.0  0.03836  0.96034  0.05128  1.0000
  C   C403      1.0  0.28446  0.58080  0.14029  1.0000
  H   H618      1.0  0.27553  0.91214  0.08824  1.0000
  H   H619      1.0  0.01959  0.59991  0.08007  1.0000
  H   H620      1.0  0.27000  0.58315  0.14868  1.0000
  N   N38       1.0  0.30150  0.58752  0.14608  1.0000
  H   H621      1.0  0.22934  0.95438  0.00834  1.0000
  Fe  Fe84      1.0  0.17934  0.98261  0.07570  1.0000
  H   H622      1.0  0.28759  0.56414  0.13924  1.0000
  H   H623      1.0  0.28236  0.61296  0.15586  1.0000
  C   C404      1.0  0.32039  0.58379  0.13475  1.0000
  H   H624      1.0  0.20207  0.49204  0.03317  1.0000
  H   H625      1.0  0.99666  0.89918  0.08105  1.0000
  H   H626      1.0  0.24007  0.97382  0.01479  1.0000
  H   H627      1.0  0.18239  0.85623  0.21052  1.0000
  H   H628      1.0  0.30672  0.72543  0.20516  1.0000
  H   H629      1.0  0.26944  0.70582  0.20172  1.0000
  Fe  Fe85      1.0  0.00200  0.69975  0.09801  1.0000
  H   H630      1.0  0.03222  0.55028  0.06343  1.0000
  C   C405      1.0  0.00441  0.71339  0.18612  1.0000
  H   H631      1.0  0.26294  0.49505  0.12937  1.0000
  C   C406      1.0  0.99687  0.97049  0.03636  1.0000
  H   H632      1.0  0.00313  0.95374  0.05911  1.0000
  C   C407      1.0  0.28475  0.98505  0.01330  1.0000
  C   C408      1.0  0.01162  0.91454  0.97425  1.0000
  S   S168      1.0  0.17259  0.70803  0.21054  1.0000
  H   H633      1.0  0.31649  0.65419  0.17707  1.0000
  C   C409      1.0  0.31732  0.64934  0.18964  1.0000
  H   H634      1.0  0.27923  0.78816  0.21909  1.0000
  S   S169      1.0  0.31602  0.75948  0.21940  1.0000
  H   H635      1.0  0.20354  0.98342  0.16222  1.0000
  H   H636      1.0  0.25443  0.71255  0.21996  1.0000
  H   H637      1.0  0.31861  0.59234  0.12266  1.0000
  H   H638      1.0  0.20934  0.67947  0.21025  1.0000
  H   H639      1.0  0.05010  0.91959  0.97587  1.0000
  Fe  Fe86      1.0  0.32332  0.98351  0.97785  1.0000
  H   H640      1.0  0.25631  0.48655  0.04833  1.0000
  H   H641      1.0  0.26611  0.87141  0.29739  1.0000
  S   S170      1.0  0.02343  0.77475  0.30249  1.0000
  H   H642      1.0  0.11597  0.68647  0.24977  1.0000
  H   H643      1.0  0.03497  0.73116  0.30020  1.0000
  H   H644      1.0  0.13007  0.70504  0.23759  1.0000
  S   S171      1.0  0.00973  0.75136  0.34897  1.0000
  S   S172      1.0  0.02778  0.55709  0.44276  1.0000
  C   C410      1.0  0.21713  0.97127  0.41784  1.0000
  Fe  Fe87      1.0  0.99368  0.72417  0.34970  1.0000
  C   C411      1.0  0.30022  0.82629  0.22921  1.0000
  S   S173      1.0  0.08544  0.72678  0.25219  1.0000
  S   S174      1.0  0.32224  0.49883  0.37367  1.0000
  C   C412      1.0  0.15857  0.80784  0.23131  1.0000
  H   H645      1.0  0.22898  0.96004  0.42269  1.0000
  S   S175      1.0  0.26439  0.97977  0.35263  1.0000
  Fe  Fe88      1.0  0.01768  0.84806  0.42937  1.0000
  S   S176      1.0  0.02662  0.82831  0.40926  1.0000
  Fe  Fe89      1.0  0.03458  0.87799  0.44663  1.0000
  C   C413      1.0  0.14836  0.90925  0.43218  1.0000
  S   S177      1.0  0.06145  0.89634  0.44307  1.0000
  H   H646      1.0  0.27941  0.88633  0.25399  1.0000
  C   C414      1.0  0.99677  0.71344  0.41472  1.0000
  S   S178      1.0  0.03409  0.84368  0.45098  1.0000
  S   S179      1.0  0.02072  0.88146  0.42394  1.0000
  Fe  Fe90      1.0  0.00697  0.58513  0.45044  1.0000
  H   H647      1.0  0.29998  0.67778  0.23315  1.0000
  S   S180      1.0  0.00968  0.61873  0.44688  1.0000
  H   H648      1.0  0.29943  0.71257  0.24043  1.0000
  H   H649      1.0  0.18893  0.90331  0.43338  1.0000
  H   H650      1.0  0.01200  0.76002  0.40134  1.0000
  S   S181      1.0  0.23801  0.86656  0.25141  1.0000
  H   H651      1.0  0.30984  0.54011  0.34258  1.0000
  Fe  Fe91      1.0  0.21673  0.86792  0.23338  1.0000
  S   S182      1.0  0.19371  0.84577  0.24282  1.0000
  Fe  Fe92      1.0  0.23170  0.90090  0.24821  1.0000
  S   S183      1.0  0.22199  0.91556  0.27122  1.0000
  C   C415      1.0  0.00631  0.74745  0.41028  1.0000
  H   H652      1.0  0.20879  0.58230  0.23312  1.0000
  C   C416      1.0  0.02379  0.72219  0.39368  1.0000
  S   S184      1.0  0.19482  0.96388  0.44749  1.0000
  S   S185      1.0  0.24290  0.54974  0.24765  1.0000
  H   H653      1.0  0.09226  0.51176  0.44953  1.0000
  H   H654      1.0  0.00535  0.78178  0.27024  1.0000
  C   C417      1.0  0.32004  0.81570  0.23031  1.0000
  S   S186      1.0  0.13473  0.97613  0.46217  1.0000
  C   C418      1.0  0.17238  0.57376  0.22921  1.0000
  S   S187      1.0  0.29998  0.51270  0.30121  1.0000
  H   H655      1.0  0.14351  0.89537  0.25621  1.0000
  Fe  Fe93      1.0  0.26252  0.86941  0.23052  1.0000
  S   S188      1.0  0.28081  0.50837  0.34689  1.0000
  H   H656      1.0  0.18025  0.91562  0.25920  1.0000
  Fe  Fe94      1.0  0.25109  0.56682  0.22277  1.0000
  Fe  Fe95      1.0  0.00374  0.75900  0.32343  1.0000
  H   H657      1.0  0.19939  0.54581  0.25778  1.0000
  S   S189      1.0  0.00792  0.69427  0.36281  1.0000
  Fe  Fe96      1.0  0.16761  0.97203  0.46608  1.0000
  H   H658      1.0  0.25690  0.51171  0.29968  1.0000
  C   C419      1.0  0.25922  0.53935  0.26222  1.0000
  C   C420      1.0  0.25107  0.52845  0.27664  1.0000
  C   C421      1.0  0.26336  0.52007  0.28865  1.0000
  C   C422      1.0  0.28395  0.52259  0.28636  1.0000
  C   C423      1.0  0.29210  0.53352  0.27195  1.0000
  C   C424      1.0  0.27982  0.54184  0.25991  1.0000
  H   H659      1.0  0.23516  0.52642  0.27853  1.0000
  S   S190      1.0  0.16638  0.49988  0.46825  1.0000
  H   H660      1.0  0.30802  0.53552  0.27006  1.0000
  H   H661      1.0  0.28629  0.55018  0.24887  1.0000
  H   H662      1.0  0.03572  0.71717  0.40168  1.0000
  H   H663      1.0  0.14349  0.53374  0.42139  1.0000
  C   C425      1.0  0.09780  0.92826  0.46014  1.0000
  H   H664      1.0  0.05499  0.58247  0.45061  1.0000
  H   H665      1.0  0.28706  0.84191  0.28559  1.0000
  H   H666      1.0  0.02136  0.66122  0.38636  1.0000
  C   C426      1.0  0.28555  0.81622  0.22519  1.0000
  H   H667      1.0  0.99602  0.75392  0.29084  1.0000
  C   C427      1.0  0.23453  0.93117  0.28038  1.0000
  C   C428      1.0  0.22483  0.93836  0.29467  1.0000
  C   C429      1.0  0.23447  0.95010  0.30269  1.0000
  C   C430      1.0  0.25414  0.95458  0.29664  1.0000
  C   C431      1.0  0.26382  0.94738  0.28233  1.0000
  C   C432      1.0  0.25403  0.93601  0.27415  1.0000
  H   H668      1.0  0.20975  0.93482  0.29964  1.0000
  H   H669      1.0  0.22680  0.95542  0.31367  1.0000
  H   H670      1.0  0.27898  0.95083  0.27746  1.0000
  H   H671      1.0  0.26159  0.93094  0.26306  1.0000
  C   C433      1.0  0.15106  0.88611  0.28669  1.0000
  H   H672      1.0  0.18135  0.53761  0.24766  1.0000
  H   H673      1.0  0.19714  0.87987  0.26367  1.0000
  N   N39       1.0  0.00394  0.72998  0.40253  1.0000
  N   N40       1.0  0.16599  0.89025  0.27230  1.0000
  C   C434      1.0  0.05313  0.55174  0.44717  1.0000
  C   C435      1.0  0.06376  0.53179  0.44690  1.0000
  H   H674      1.0  0.18733  0.48888  0.38536  1.0000
  C   C436      1.0  0.09429  0.54260  0.45261  1.0000
  C   C437      1.0  0.31516  0.54596  0.32991  1.0000
  C   C438      1.0  0.06304  0.56705  0.45041  1.0000
  H   H675      1.0  0.15447  0.92248  0.26835  1.0000
  H   H676      1.0  0.16888  0.93233  0.45693  1.0000
  C   C439      1.0  0.07377  0.90610  0.45644  1.0000
  S   S191      1.0  0.00404  0.88558  0.46143  1.0000
  C   C440      1.0  0.08706  0.92056  0.45016  1.0000
  H   H677      1.0  0.10771  0.93952  0.45514  1.0000
  H   H678      1.0  0.08899  0.92581  0.43746  1.0000
  C   C441      1.0  0.28680  0.68417  0.22653  1.0000
  H   H679      1.0  0.30548  0.54081  0.32239  1.0000
  Fe  Fe97      1.0  0.13377  0.50512  0.46335  1.0000
  Fe  Fe98      1.0  0.29086  0.49314  0.32488  1.0000
  H   H680      1.0  0.17508  0.91584  0.28022  1.0000
  H   H681      1.0  0.15320  0.94706  0.41653  1.0000
  C   C442      1.0  0.29181  0.88669  0.26101  1.0000
  H   H682      1.0  0.17363  0.81018  0.25121  1.0000
  C   C443      1.0  0.00512  0.66562  0.38962  1.0000
  H   H683      1.0  0.14362  0.92560  0.45958  1.0000
  C   C444      1.0  0.01041  0.81616  0.40062  1.0000
  C   C445      1.0  0.01822  0.80740  0.38664  1.0000
  C   C446      1.0  0.00573  0.79815  0.37909  1.0000
  H   H684      1.0  0.00785  0.70764  0.42335  1.0000
  H   H685      1.0  0.27196  0.71527  0.24305  1.0000
  H   H686      1.0  0.18182  0.54221  0.39727  1.0000
  H   H687      1.0  0.03396  0.80807  0.38147  1.0000
  H   H688      1.0  0.01186  0.79186  0.36817  1.0000
  H   H689      1.0  0.13596  0.94897  0.43478  1.0000
  C   C447      1.0  0.04048  0.76115  0.28857  1.0000
  C   C448      1.0  0.05134  0.77213  0.27549  1.0000
  C   C449      1.0  0.06502  0.76184  0.26413  1.0000
  C   C450      1.0  0.06796  0.74045  0.26583  1.0000
  C   C451      1.0  0.05698  0.72948  0.27885  1.0000
  C   C452      1.0  0.04323  0.73977  0.29017  1.0000
  H   H690      1.0  0.04929  0.78868  0.27420  1.0000
  H   H691      1.0  0.07344  0.77043  0.25417  1.0000
  H   H692      1.0  0.05916  0.71292  0.28024  1.0000
  C   C453      1.0  0.15833  0.88573  0.25823  1.0000
  H   H693      1.0  0.00330  0.64318  0.41086  1.0000
  C   C454      1.0  0.28573  0.71754  0.23418  1.0000
  H   H694      1.0  0.14855  0.86979  0.28880  1.0000
  H   H695      1.0  0.15643  0.88933  0.29752  1.0000
  H   H696      1.0  0.16233  0.56116  0.40538  1.0000
  Fe  Fe99      1.0  0.00249  0.85168  0.46418  1.0000
  H   H697      1.0  0.99690  0.76937  0.25601  1.0000
  H   H698      1.0  0.16089  0.95623  0.43276  1.0000
  C   C455      1.0  0.19864  0.97655  0.42762  1.0000
  H   H699      1.0  0.19216  0.88020  0.28472  1.0000
  H   H700      1.0  0.20442  0.54578  0.23671  1.0000
  H   H701      1.0  0.99538  0.52824  0.44858  1.0000
  H   H702      1.0  0.25622  0.88171  0.27901  1.0000
  N   N41       1.0  0.18147  0.57023  0.24419  1.0000
  H   H703      1.0  0.18342  0.92042  0.41559  1.0000
  H   H704      1.0  0.17164  0.57113  0.26919  1.0000
  H   H705      1.0  0.30346  0.84628  0.26692  1.0000
  C   C456      1.0  0.16521  0.57368  0.25773  1.0000
  C   C457      1.0  0.17964  0.83426  0.23180  1.0000
  H   H706      1.0  0.30404  0.86484  0.29750  1.0000
  S   S192      1.0  0.29423  0.85198  0.23309  1.0000
  C   C458      1.0  0.26919  0.88125  0.28575  1.0000
  H   H707      1.0  0.99103  0.88119  0.38628  1.0000
  C   C459      1.0  0.08419  0.52716  0.44984  1.0000
  H   H708      1.0  0.99472  0.70015  0.40914  1.0000
  Fe  Fe100     1.0  0.10282  0.74216  0.22977  1.0000
  H   H709      1.0  0.23480  0.97627  0.39441  1.0000
  C   C460      1.0  0.28897  0.85232  0.27411  1.0000
  H   H710      1.0  0.18903  0.60084  0.24094  1.0000
  S   S193      1.0  0.25782  0.90383  0.22841  1.0000
  H   H711      1.0  0.15428  0.89313  0.43671  1.0000
  H   H712      1.0  0.20369  0.58225  0.25415  1.0000
  C   C461      1.0  0.99492  0.65540  0.40352  1.0000
  S   S194      1.0  0.12047  0.53767  0.45486  1.0000
  C   C462      1.0  0.17091  0.81679  0.23923  1.0000
  C   C463      1.0  0.18204  0.91907  0.42881  1.0000
  S   S195      1.0  0.22714  0.48934  0.36688  1.0000
  H   H713      1.0  0.13209  0.91225  0.43764  1.0000
  H   H714      1.0  0.14018  0.67854  0.23813  1.0000
  H   H715      1.0  0.15615  0.86935  0.25956  1.0000
  H   H716      1.0  0.27641  0.85122  0.26739  1.0000
  H   H717      1.0  0.16934  0.88845  0.24716  1.0000
  C   C464      1.0  0.08366  0.56254  0.45289  1.0000
  C   C465      1.0  0.29069  0.79577  0.22224  1.0000
  C   C466      1.0  0.15955  0.92184  0.45361  1.0000
  H   H718      1.0  0.18867  0.56108  0.40728  1.0000
  C   C467      1.0  0.13169  0.69023  0.24557  1.0000
  C   C468      1.0  0.18568  0.87709  0.27436  1.0000
  H   H719      1.0  0.01735  0.74282  0.41905  1.0000
  H   H720      1.0  0.02234  0.51728  0.46576  1.0000
  C   C469      1.0  0.16898  0.91200  0.26993  1.0000
  H   H721      1.0  0.14858  0.91040  0.41907  1.0000
  H   H722      1.0  0.32084  0.86883  0.27901  1.0000
  N   N42       1.0  0.14240  0.69157  0.25902  1.0000
  C   C470      1.0  0.13038  0.70712  0.26858  1.0000
  N   N43       1.0  0.16053  0.92376  0.43609  1.0000
  C   C471      1.0  0.14472  0.67144  0.26916  1.0000
  C   C472      1.0  0.16278  0.69744  0.25273  1.0000
  H   H723      1.0  0.13800  0.70872  0.27879  1.0000
  H   H724      1.0  0.11484  0.70323  0.27344  1.0000
  H   H725      1.0  0.12805  0.72246  0.26124  1.0000
  C   C473      1.0  0.32017  0.63654  0.22188  1.0000
  H   H726      1.0  0.02258  0.70880  0.38788  1.0000
  H   H727      1.0  0.19159  0.92986  0.43150  1.0000
  H   H728      1.0  0.15266  0.67191  0.27949  1.0000
  H   H729      1.0  0.15378  0.65940  0.26228  1.0000
  H   H730      1.0  0.12957  0.66657  0.27398  1.0000
  H   H731      1.0  0.17206  0.68632  0.24508  1.0000
  H   H732      1.0  0.17150  0.69837  0.26249  1.0000
  H   H733      1.0  0.16156  0.71265  0.24511  1.0000
  C   C474      1.0  0.19630  0.58458  0.24314  1.0000
  N   N44       1.0  0.28893  0.87366  0.27664  1.0000
  S   S196      1.0  0.13485  0.74818  0.22960  1.0000
  H   H734      1.0  0.04781  0.96709  0.45975  1.0000
  H   H735      1.0  0.15184  0.79451  0.23722  1.0000
  S   S197      1.0  0.20881  0.90229  0.23132  1.0000
  H   H736      1.0  0.27259  0.68141  0.23473  1.0000
  H   H737      1.0  0.05625  0.51990  0.44429  1.0000
  H   H738      1.0  0.15698  0.58963  0.25618  1.0000
  H   H739      1.0  0.13600  0.89578  0.28555  1.0000
  C   C475      1.0  0.15224  0.94491  0.42976  1.0000
  C   C476      1.0  0.19202  0.54892  0.24671  1.0000
  H   H740      1.0  0.29184  0.90294  0.26235  1.0000
  H   H741      1.0  0.28507  0.73430  0.23014  1.0000
  H   H742      1.0  0.99923  0.49284  0.46344  1.0000
  H   H743      1.0  0.09137  0.57456  0.45503  1.0000
  H   H744      1.0  0.18419  0.86053  0.27599  1.0000
  N   N45       1.0  0.17444  0.53731  0.42281  1.0000
  C   C477      1.0  0.19411  0.52416  0.42515  1.0000
  C   C478      1.0  0.16792  0.54966  0.43603  1.0000
  C   C479      1.0  0.15874  0.52437  0.42252  1.0000
  C   C480      1.0  0.17693  0.55108  0.40750  1.0000
  H   H745      1.0  0.20006  0.51553  0.41493  1.0000
  H   H746      1.0  0.19254  0.51263  0.43609  1.0000
  H   H747      1.0  0.20603  0.53330  0.42633  1.0000
  H   H748      1.0  0.15296  0.55955  0.43476  1.0000
  H   H749      1.0  0.16579  0.53975  0.44776  1.0000
  H   H750      1.0  0.17928  0.55972  0.43665  1.0000
  H   H751      1.0  0.15683  0.51346  0.43373  1.0000
  H   H752      1.0  0.16280  0.51526  0.41243  1.0000
  H   H753      1.0  0.27024  0.82418  0.22432  1.0000
  H   H754      1.0  0.15375  0.56309  0.25890  1.0000
  H   H755      1.0  0.26887  0.89709  0.28830  1.0000
  S   S198      1.0  0.26780  0.96810  0.30673  1.0000
  H   H756      1.0  0.16448  0.58977  0.22682  1.0000
  H   H757      1.0  0.02931  0.73409  0.38402  1.0000
  C   C481      1.0  0.30575  0.87445  0.28561  1.0000
  H   H758      1.0  0.32139  0.63134  0.23436  1.0000
  H   H759      1.0  0.31215  0.56296  0.32851  1.0000
  C   C482      1.0  0.31051  0.78519  0.22326  1.0000
  C   C483      1.0  0.07726  0.98226  0.46968  1.0000
  C   C484      1.0  0.22050  0.98046  0.40181  1.0000
  H   H760      1.0  0.16547  0.90603  0.45883  1.0000
  H   H761      1.0  0.99147  0.75413  0.41663  1.0000
  H   H762      1.0  0.99375  0.74950  0.38212  1.0000
  H   H763      1.0  0.30640  0.88126  0.25365  1.0000
  H   H764      1.0  0.16113  0.56322  0.22950  1.0000
  C   C485      1.0  0.99443  0.68143  0.37991  1.0000
  H   H765      1.0  0.30615  0.89040  0.28762  1.0000
  C   C486      1.0  0.99178  0.78055  0.26465  1.0000
  S   S199      1.0  0.99073  0.73019  0.32342  1.0000
  Fe  Fe101     1.0  0.99033  0.88696  0.43907  1.0000
  H   H766      1.0  0.99027  0.86008  0.40212  1.0000
  H   H767      1.0  0.30042  0.61464  0.22045  1.0000
  N   N46       1.0  0.28684  0.70620  0.22058  1.0000
  H   H768      1.0  0.28480  0.52106  0.55686  1.0000
  H   H769      1.0  0.29007  0.54063  0.54038  1.0000
  H   H770      1.0  0.21326  0.63033  0.64143  1.0000
  S   S200      1.0  0.02136  0.70869  0.55009  1.0000
  H   H771      1.0  0.02889  0.81516  0.48460  1.0000
  S   S201      1.0  0.01139  0.74149  0.57613  1.0000
  Fe  Fe102     1.0  0.01163  0.74246  0.54980  1.0000
  S   S202      1.0  0.03106  0.76106  0.53066  1.0000
  Fe  Fe103     1.0  0.01933  0.70746  0.57669  1.0000
  S   S203      1.0  0.04591  0.68763  0.58817  1.0000
  Fe  Fe104     1.0  0.99575  0.61759  0.47275  1.0000
  Fe  Fe105     1.0  0.15764  0.97516  0.50192  1.0000
  S   S204      1.0  0.16718  0.97407  0.52671  1.0000
  Fe  Fe106     1.0  0.13020  0.95455  0.48493  1.0000
  S   S205      1.0  0.10899  0.93028  0.48966  1.0000
  S   S206      1.0  0.25514  0.97844  0.59676  1.0000
  S   S207      1.0  0.16352  0.94845  0.48801  1.0000
  C   C487      1.0  0.27334  0.83178  0.68005  1.0000
  Fe  Fe107     1.0  0.14353  0.69791  0.62750  1.0000
  S   S208      1.0  0.15266  0.66393  0.63419  1.0000
  S   S209      1.0  0.11533  0.71723  0.61804  1.0000
  Fe  Fe108     1.0  0.18178  0.70857  0.63808  1.0000
  S   S210      1.0  0.19405  0.67566  0.64553  1.0000
  S   S211      1.0  0.19325  0.73689  0.64267  1.0000
  Fe  Fe109     1.0  0.18429  0.66974  0.62303  1.0000
  S   S212      1.0  0.20711  0.64962  0.60763  1.0000
  Fe  Fe110     1.0  0.16190  0.67195  0.65629  1.0000
  S   S213      1.0  0.15613  0.65260  0.68044  1.0000
  S   S214      1.0  0.17465  0.70318  0.61456  1.0000
  S   S215      1.0  0.15010  0.70523  0.65070  1.0000
  C   C488      1.0  0.18870  0.98018  0.54994  1.0000
  S   S216      1.0  0.21227  0.50747  0.59101  1.0000
  Fe  Fe111     1.0  0.26877  0.51583  0.58791  1.0000
  S   S217      1.0  0.24573  0.53889  0.57567  1.0000
  S   S218      1.0  0.30310  0.51530  0.58625  1.0000
  Fe  Fe112     1.0  0.22450  0.53315  0.59855  1.0000
  S   S219      1.0  0.19936  0.55613  0.60929  1.0000
  Fe  Fe113     1.0  0.23499  0.51167  0.56896  1.0000
  S   S220      1.0  0.22977  0.51487  0.54301  1.0000
  S   S221      1.0  0.24837  0.51230  0.61162  1.0000
  H   H772      1.0  0.04385  0.97108  0.50304  1.0000
  Fe  Fe114     1.0  0.28868  0.96803  0.59020  1.0000
  S   S222      1.0  0.30122  0.93477  0.58735  1.0000
  H   H773      1.0  0.30046  0.85787  0.67355  1.0000
  Fe  Fe115     1.0  0.29787  0.78048  0.63300  1.0000
  S   S223      1.0  0.28270  0.79990  0.65165  1.0000
  S   S224      1.0  0.28332  0.75951  0.62131  1.0000
  H   H774      1.0  0.28345  0.82238  0.70965  1.0000
  H   H775      1.0  0.16087  0.77266  0.64527  1.0000
  H   H776      1.0  0.20483  0.98518  0.56861  1.0000
  C   C489      1.0  0.28958  0.87919  0.62502  1.0000
  C   C490      1.0  0.29600  0.87684  0.60901  1.0000
  C   C491      1.0  0.29947  0.89402  0.59760  1.0000
  C   C492      1.0  0.29578  0.91379  0.60199  1.0000
  C   C493      1.0  0.28849  0.91626  0.61787  1.0000
  C   C494      1.0  0.19417  0.50046  0.51346  1.0000
  H   H777      1.0  0.08836  0.96797  0.47131  1.0000
  H   H778      1.0  0.28334  0.51729  0.51446  1.0000
  H   H779      1.0  0.28552  0.93142  0.62136  1.0000
  C   C495      1.0  0.31874  0.53206  0.57386  1.0000
  H   H780      1.0  0.20269  0.55327  0.57479  1.0000
  H   H781      1.0  0.19533  0.58346  0.67880  1.0000
  H   H782      1.0  0.12560  0.79134  0.61490  1.0000
  C   C496      1.0  0.20617  0.58747  0.66788  1.0000
  H   H783      1.0  0.00626  0.74906  0.48171  1.0000
  H   H784      1.0  0.24574  0.86213  0.69075  1.0000
  C   C497      1.0  0.20904  0.50838  0.51956  1.0000
  H   H785      1.0  0.21906  0.51778  0.51155  1.0000
  H   H786      1.0  0.19943  0.48852  0.55868  1.0000
  C   C498      1.0  0.21871  0.74218  0.63718  1.0000
  C   C499      1.0  0.22471  0.75806  0.64340  1.0000
  C   C500      1.0  0.24456  0.76325  0.63893  1.0000
  C   C501      1.0  0.25853  0.75280  0.62798  1.0000
  C   C502      1.0  0.25251  0.73693  0.62175  1.0000
  C   C503      1.0  0.23275  0.73152  0.62641  1.0000
  H   H787      1.0  0.21396  0.76639  0.65174  1.0000
  H   H788      1.0  0.24896  0.77551  0.64378  1.0000
  H   H789      1.0  0.26318  0.72880  0.61324  1.0000
  H   H790      1.0  0.22832  0.71933  0.62148  1.0000
  C   C504      1.0  0.16255  0.66209  0.69672  1.0000
  C   C505      1.0  0.16937  0.68107  0.69460  1.0000
  C   C506      1.0  0.17431  0.68851  0.70765  1.0000
  C   C507      1.0  0.21104  0.50419  0.53590  1.0000
  H   H791      1.0  0.17082  0.69010  0.68290  1.0000
  H   H792      1.0  0.17953  0.70327  0.70589  1.0000
  C   C508      1.0  0.25646  0.85399  0.69916  1.0000
  C   C509      1.0  0.20448  0.62386  0.60760  1.0000
  C   C510      1.0  0.18658  0.61612  0.61473  1.0000
  C   C511      1.0  0.18524  0.59531  0.61510  1.0000
  C   C512      1.0  0.20176  0.58212  0.60836  1.0000
  C   C513      1.0  0.21961  0.58987  0.60107  1.0000
  C   C514      1.0  0.22093  0.61072  0.60067  1.0000
  H   H793      1.0  0.17375  0.62617  0.61991  1.0000
  H   H794      1.0  0.17134  0.58941  0.62066  1.0000
  H   H795      1.0  0.23241  0.57982  0.59583  1.0000
  H   H796      1.0  0.23482  0.61665  0.59513  1.0000
  C   C515      1.0  0.28564  0.86341  0.68057  1.0000
  C   C516      1.0  0.28552  0.89899  0.62935  1.0000
  N   N47       1.0  0.29891  0.50979  0.53512  1.0000
  H   H797      1.0  0.01284  0.53857  0.47629  1.0000
  C   C517      1.0  0.11736  0.75933  0.63703  1.0000
  H   H798      1.0  0.14430  0.75686  0.61040  1.0000
  C   C518      1.0  0.06426  0.69579  0.59762  1.0000
  C   C519      1.0  0.08159  0.68185  0.60138  1.0000
  C   C520      1.0  0.09723  0.68803  0.60786  1.0000
  C   C521      1.0  0.09569  0.70828  0.61065  1.0000
  C   C522      1.0  0.07825  0.72216  0.60707  1.0000
  C   C523      1.0  0.06254  0.71594  0.60073  1.0000
  H   H799      1.0  0.08304  0.66620  0.59911  1.0000
  H   H800      1.0  0.11052  0.67715  0.61058  1.0000
  H   H801      1.0  0.07679  0.73782  0.60931  1.0000
  H   H802      1.0  0.04911  0.72674  0.59825  1.0000
  H   H803      1.0  0.28023  0.90102  0.64167  1.0000
  C   C524      1.0  0.16342  0.54987  0.58479  1.0000
  H   H804      1.0  0.17853  0.60458  0.64861  1.0000
  H   H805      1.0  0.16578  0.76247  0.61837  1.0000
  C   C525      1.0  0.31527  0.78343  0.70586  1.0000
  H   H806      1.0  0.17732  0.63046  0.65220  1.0000
  C   C526      1.0  0.01226  0.65751  0.51049  1.0000
  H   H807      1.0  0.01334  0.67635  0.52844  1.0000
  H   H808      1.0  0.02870  0.65422  0.50770  1.0000
  H   H809      1.0  0.28850  0.87450  0.68799  1.0000
  H   H810      1.0  0.99267  0.48884  0.48475  1.0000
  C   C527      1.0  0.99984  0.64894  0.50245  1.0000
  H   H811      1.0  0.19283  0.50376  0.50086  1.0000
  H   H812      1.0  0.08037  0.90158  0.49551  1.0000
  H   H813      1.0  0.27546  0.49063  0.53784  1.0000
  C   C528      1.0  0.02015  0.80766  0.49497  1.0000
  C   C529      1.0  0.02978  0.79125  0.50490  1.0000
  C   C530      1.0  0.01859  0.78160  0.51848  1.0000
  H   H814      1.0  0.27558  0.87189  0.67177  1.0000
  H   H815      1.0  0.10621  0.76765  0.64569  1.0000
  N   N48       1.0  0.20189  0.60942  0.66147  1.0000
  H   H816      1.0  0.04596  0.78613  0.50208  1.0000
  S   S225      1.0  0.01163  0.63318  0.48786  1.0000
  H   H817      1.0  0.01589  0.51312  0.48711  1.0000
  H   H818      1.0  0.12195  0.79895  0.63444  1.0000
  H   H819      1.0  0.17396  0.53761  0.59102  1.0000
  H   H820      1.0  0.03335  0.96117  0.47907  1.0000
  S   S226      1.0  0.25953  0.48899  0.57964  1.0000
  H   H821      1.0  0.29416  0.55425  0.56560  1.0000
  H   H822      1.0  0.30434  0.53109  0.51376  1.0000
  Fe  Fe116     1.0  0.31057  0.78841  0.66383  1.0000
  H   H823      1.0  0.21958  0.61886  0.67706  1.0000
  H   H824      1.0  0.16001  0.56263  0.59213  1.0000
  H   H825      1.0  0.18850  0.57825  0.57564  1.0000
  C   C531      1.0  0.31055  0.54994  0.56472  1.0000
  C   C532      1.0  0.09566  0.92130  0.47653  1.0000
  H   H826      1.0  0.30513  0.82875  0.69577  1.0000
  H   H827      1.0  0.26918  0.52677  0.54115  1.0000
  C   C533      1.0  0.99769  0.78830  0.52206  1.0000
  H   H828      1.0  0.25818  0.86487  0.70719  1.0000
  H   H829      1.0  0.15443  0.74016  0.62660  1.0000
  C   C534      1.0  0.14604  0.76656  0.64782  1.0000
  H   H830      1.0  0.26324  0.83930  0.67100  1.0000
  H   H831      1.0  0.26655  0.81838  0.68701  1.0000
  H   H832      1.0  0.21578  0.60437  0.63775  1.0000
  C   C535      1.0  0.21652  0.61405  0.64697  1.0000
  H   H833      1.0  0.22193  0.58333  0.67105  1.0000
  C   C536      1.0  0.31980  0.50824  0.53911  1.0000
  H   H834      1.0  0.11006  0.75986  0.62617  1.0000
  H   H835      1.0  0.30919  0.50464  0.51083  1.0000
  H   H836      1.0  0.23252  0.61133  0.64961  1.0000
  C   C537      1.0  0.05887  0.97328  0.49581  1.0000
  H   H837      1.0  0.20077  0.63865  0.66915  1.0000
  H   H838      1.0  0.28815  0.82560  0.67343  1.0000
  H   H839      1.0  0.14941  0.75034  0.65344  1.0000
  H   H840      1.0  0.19287  0.61916  0.68463  1.0000
  C   C538      1.0  0.99929  0.81454  0.49866  1.0000
  N   N49       1.0  0.05694  0.97946  0.47870  1.0000
  C   C539      1.0  0.07125  0.89954  0.47288  1.0000
  C   C540      1.0  0.08223  0.90702  0.48284  1.0000
  C   C541      1.0  0.20395  0.62200  0.67361  1.0000
  H   H841      1.0  0.11997  0.74293  0.64237  1.0000
  S   S227      1.0  0.12372  0.97917  0.50080  1.0000
  C   C542      1.0  0.04886  0.96335  0.47276  1.0000
  H   H842      1.0  0.24909  0.84126  0.70663  1.0000
  N   N50       1.0  0.17264  0.55671  0.56831  1.0000
  C   C543      1.0  0.15808  0.57282  0.56050  1.0000
  C   C544      1.0  0.17757  0.53916  0.55920  1.0000
  H   H843      1.0  0.14362  0.56706  0.55994  1.0000
  H   H844      1.0  0.16459  0.57833  0.54806  1.0000
  H   H845      1.0  0.15408  0.58629  0.56710  1.0000
  H   H846      1.0  0.19917  0.57010  0.55660  1.0000
  H   H847      1.0  0.18856  0.52675  0.56476  1.0000
  H   H848      1.0  0.18480  0.54366  0.54675  1.0000
  H   H849      1.0  0.16372  0.53240  0.55854  1.0000
  H   H850      1.0  0.14899  0.54369  0.58498  1.0000
  N   N51       1.0  0.25511  0.93492  0.55648  1.0000
  C   C545      1.0  0.26418  0.95381  0.55542  1.0000
  C   C546      1.0  0.23279  0.94022  0.55663  1.0000
  C   C547      1.0  0.25944  0.92130  0.57133  1.0000
  C   C548      1.0  0.26408  0.92441  0.54255  1.0000
  H   H851      1.0  0.28094  0.95039  0.55583  1.0000
  H   H852      1.0  0.25730  0.96245  0.56548  1.0000
  H   H853      1.0  0.26162  0.96439  0.54422  1.0000
  H   H854      1.0  0.22537  0.92639  0.55731  1.0000
  H   H855      1.0  0.22559  0.94815  0.56703  1.0000
  H   H856      1.0  0.22902  0.95068  0.54564  1.0000
  H   H857      1.0  0.25209  0.90726  0.57299  1.0000
  H   H858      1.0  0.25393  0.92922  0.58203  1.0000
  H   H859      1.0  0.27615  0.91636  0.57126  1.0000
  H   H860      1.0  0.25772  0.90997  0.54303  1.0000
  H   H861      1.0  0.28097  0.92045  0.54200  1.0000
  H   H862      1.0  0.26094  0.93431  0.53118  1.0000
  C   C549      1.0  0.13260  0.78974  0.62604  1.0000
  C   C550      1.0  0.28513  0.52526  0.54374  1.0000
  C   C551      1.0  0.00360  0.67006  0.52224  1.0000
  N   N52       1.0  0.27638  0.84618  0.69046  1.0000
  H   H863      1.0  0.16932  0.61153  0.66817  1.0000
  H   H864      1.0  0.20470  0.57758  0.65898  1.0000
  Fe  Fe117     1.0  0.30037  0.82460  0.63829  1.0000
  S   S228      1.0  0.28685  0.85791  0.64007  1.0000
  H   H865      1.0  0.06499  0.98504  0.50069  1.0000
  C   C552      1.0  0.16087  0.65049  0.71199  1.0000
  H   H866      1.0  0.15571  0.63573  0.71367  1.0000
  S   S229      1.0  0.30081  0.78276  0.69060  1.0000
  H   H867      1.0  0.29827  0.86177  0.60542  1.0000
  H   H868      1.0  0.14696  0.79668  0.62294  1.0000
  H   H869      1.0  0.13586  0.77513  0.65684  1.0000
  N   N53       1.0  0.08220  0.72726  0.55155  1.0000
  C   C553      1.0  0.07476  0.71587  0.54084  1.0000
  C   C554      1.0  0.09286  0.74375  0.54196  1.0000
  C   C555      1.0  0.09633  0.71304  0.56125  1.0000
  C   C556      1.0  0.06468  0.73640  0.56220  1.0000
  H   H870      1.0  0.06689  0.70312  0.54777  1.0000
  H   H871      1.0  0.08750  0.70905  0.53241  1.0000
  H   H872      1.0  0.06360  0.72602  0.53366  1.0000
  H   H873      1.0  0.08243  0.75466  0.53454  1.0000
  H   H874      1.0  0.09850  0.75272  0.54974  1.0000
  H   H875      1.0  0.10620  0.73749  0.53374  1.0000
  H   H876      1.0  0.08880  0.70006  0.56814  1.0000
  H   H877      1.0  0.10151  0.72079  0.57009  1.0000
  H   H878      1.0  0.11011  0.70634  0.55369  1.0000
  H   H879      1.0  0.06969  0.74399  0.57119  1.0000
  H   H880      1.0  0.05544  0.72457  0.56873  1.0000
  H   H881      1.0  0.05428  0.74812  0.55544  1.0000
  H   H882      1.0  0.05880  0.94830  0.47459  1.0000
  C   C557      1.0  0.18086  0.61414  0.65742  1.0000
  H   H883      1.0  0.32024  0.50329  0.55213  1.0000
  S   S230      1.0  0.99518  0.58356  0.47652  1.0000
  C   C558      1.0  0.19156  0.56501  0.56879  1.0000
  N   N54       1.0  0.13671  0.76804  0.63312  1.0000
  C   C559      1.0  0.15090  0.75649  0.62155  1.0000
  S   S231      1.0  0.31321  0.80626  0.61829  1.0000
  H   H884      1.0  0.30494  0.89200  0.58531  1.0000
  H   H885      1.0  0.00553  0.74071  0.51812  1.0000
  H   H886      1.0  0.17705  0.97314  0.55822  1.0000
  H   H887      1.0  0.01659  0.72320  0.50425  1.0000
  H   H888      1.0  0.06115  0.88839  0.47789  1.0000
  C   C560      1.0  0.29013  0.83537  0.70198  1.0000
  H   H889      1.0  0.99784  0.71593  0.52069  1.0000
  H   H890      1.0  0.06946  0.95861  0.49780  1.0000
  C   C561      1.0  0.29896  0.51597  0.51776  1.0000
  C   C562      1.0  0.00217  0.72892  0.51162  1.0000
  C   C563      1.0  0.01117  0.52237  0.47596  1.0000
  H   H891      1.0  0.31719  0.57609  0.54741  1.0000
  H   H892      1.0  0.26473  0.97691  0.70764  1.0000
  S   S232      1.0  0.12262  0.48846  0.48704  1.0000
  H   H893      1.0  0.29314  0.84571  0.70996  1.0000
  C   C564      1.0  0.19798  0.49202  0.54611  1.0000
  H   H894      1.0  0.99591  0.76677  0.49553  1.0000
  C   C565      1.0  0.29161  0.48973  0.53992  1.0000
  C   C566      1.0  0.26855  0.97815  0.71957  1.0000
  C   C567      1.0  0.99228  0.75432  0.48976  1.0000
  C   C568      1.0  0.18776  0.98256  0.53343  1.0000
  C   C569      1.0  0.18108  0.48833  0.52367  1.0000
  H   H895      1.0  0.99525  0.71416  0.48632  1.0000
  Fe  Fe118     1.0  0.23763  0.48696  0.60252  1.0000
  H   H896      1.0  0.06534  0.71487  0.84641  1.0000
  H   H897      1.0  0.04341  0.74879  0.84344  1.0000
  H   H898      1.0  0.08597  0.72422  0.83277  1.0000
  H   H899      1.0  0.01842  0.96034  0.95179  1.0000
  C   C570      1.0  0.04301  0.92870  0.96557  1.0000
  Fe  Fe119     1.0  0.21992  0.93588  0.84705  1.0000
  S   S233      1.0  0.24447  0.92912  0.82645  1.0000
  S   S234      1.0  0.18766  0.93182  0.84437  1.0000
  Fe  Fe120     1.0  0.24997  0.94844  0.86594  1.0000
  S   S235      1.0  0.27636  0.94190  0.84699  1.0000
  S   S236      1.0  0.25168  0.96244  0.88815  1.0000
  Fe  Fe121     1.0  0.25526  0.95828  0.82941  1.0000
  Fe  Fe122     1.0  0.26316  0.91365  0.84570  1.0000
  S   S237      1.0  0.28252  0.88233  0.84702  1.0000
  S   S238      1.0  0.22932  0.96619  0.84854  1.0000
  S   S239      1.0  0.23810  0.91885  0.86615  1.0000
  Fe  Fe123     1.0  0.05690  0.90618  0.88860  1.0000
  S   S240      1.0  0.07873  0.88449  0.87436  1.0000
  S   S241      1.0  0.04511  0.93661  0.87499  1.0000
  Fe  Fe124     1.0  0.05832  0.87642  0.91936  1.0000
  S   S242      1.0  0.07981  0.85198  0.90733  1.0000
  S   S243      1.0  0.04320  0.87369  0.94505  1.0000
  Fe  Fe125     1.0  0.09639  0.87833  0.89506  1.0000
  S   S244      1.0  0.13059  0.87741  0.89423  1.0000
  Fe  Fe126     1.0  0.06005  0.86023  0.88755  1.0000
  S   S245      1.0  0.04844  0.84277  0.87080  1.0000
  S   S246      1.0  0.07594  0.90206  0.90837  1.0000
  S   S247      1.0  0.03734  0.88266  0.90063  1.0000
  Fe  Fe127     1.0  0.19527  0.49978  0.84837  1.0000
  S   S248      1.0  0.17904  0.53251  0.84470  1.0000
  Fe  Fe128     1.0  0.17770  0.67226  0.76452  1.0000
  S   S249      1.0  0.16222  0.69230  0.78297  1.0000
  S   S250      1.0  0.17876  0.68742  0.73885  1.0000
  Fe  Fe129     1.0  0.19030  0.63640  0.78973  1.0000
  S   S251      1.0  0.17549  0.65367  0.80986  1.0000
  S   S252      1.0  0.20988  0.60529  0.79396  1.0000
  Fe  Fe130     1.0  0.14947  0.66414  0.79550  1.0000
  S   S253      1.0  0.11682  0.66163  0.80688  1.0000
  Fe  Fe131     1.0  0.18970  0.68029  0.79552  1.0000
  S   S254      1.0  0.20361  0.70053  0.80836  1.0000
  S   S255      1.0  0.16326  0.64465  0.77625  1.0000
  S   S256      1.0  0.20617  0.66246  0.77614  1.0000
  H   H900      1.0  0.03699  0.89114  0.86647  1.0000
  S   S257      1.0  0.30574  0.76390  0.81666  1.0000
  C   C571      1.0  0.02385  0.95157  0.88451  1.0000
  Fe  Fe132     1.0  0.01413  0.72892  0.83197  1.0000
  S   S258      1.0  0.04079  0.73248  0.81218  1.0000
  S   S259      1.0  0.02064  0.71388  0.85623  1.0000
  Fe  Fe133     1.0  0.30799  0.74553  0.79648  1.0000
  S   S260      1.0  0.30033  0.77312  0.77864  1.0000
  S   S261      1.0  0.29627  0.71602  0.79477  1.0000
  C   C572      1.0  0.07890  0.72277  0.84549  1.0000
  C   C573      1.0  0.25271  0.62066  0.82664  1.0000
  H   H901      1.0  0.02095  0.93021  0.90617  1.0000
  C   C574      1.0  0.09644  0.68203  0.80894  1.0000
  C   C575      1.0  0.09778  0.70184  0.80090  1.0000
  C   C576      1.0  0.08053  0.71713  0.80182  1.0000
  C   C577      1.0  0.06205  0.71290  0.81114  1.0000
  C   C578      1.0  0.06092  0.69327  0.81949  1.0000
  C   C579      1.0  0.07797  0.67787  0.81824  1.0000
  H   H902      1.0  0.11196  0.70534  0.79384  1.0000
  H   H903      1.0  0.08155  0.73234  0.79540  1.0000
  H   H904      1.0  0.04677  0.68981  0.82669  1.0000
  H   H905      1.0  0.07679  0.66258  0.82447  1.0000
  C   C580      1.0  0.22895  0.70613  0.80320  1.0000
  C   C581      1.0  0.23522  0.72063  0.81078  1.0000
  C   C582      1.0  0.25560  0.72450  0.80777  1.0000
  C   C583      1.0  0.27004  0.71342  0.79753  1.0000
  C   C584      1.0  0.26374  0.69899  0.78989  1.0000
  C   C585      1.0  0.24321  0.69570  0.79243  1.0000
  H   H906      1.0  0.22428  0.72883  0.81910  1.0000
  H   H907      1.0  0.26027  0.73557  0.81380  1.0000
  H   H908      1.0  0.27475  0.69028  0.78199  1.0000
  H   H909      1.0  0.23851  0.68491  0.78620  1.0000
  C   C586      1.0  0.18825  0.55273  0.83096  1.0000
  C   C587      1.0  0.20799  0.55058  0.82252  1.0000
  C   C588      1.0  0.21444  0.56682  0.81121  1.0000
  C   C589      1.0  0.20128  0.58536  0.80836  1.0000
  C   C590      1.0  0.18166  0.58760  0.81696  1.0000
  C   C591      1.0  0.17519  0.57133  0.82820  1.0000
  H   H910      1.0  0.21827  0.53644  0.82476  1.0000
  H   H911      1.0  0.22970  0.56503  0.80467  1.0000
  H   H912      1.0  0.17138  0.60180  0.81489  1.0000
  H   H913      1.0  0.15990  0.57313  0.83471  1.0000
  H   H914      1.0  0.23214  0.63319  0.80176  1.0000
  H   H915      1.0  0.28318  0.96789  0.72120  1.0000
  C   C592      1.0  0.28911  0.97096  0.91872  1.0000
  C   C593      1.0  0.03832  0.81920  0.87463  1.0000
  C   C594      1.0  0.03083  0.81265  0.86221  1.0000
  C   C595      1.0  0.02276  0.79404  0.86458  1.0000
  C   C596      1.0  0.02224  0.78162  0.87941  1.0000
  C   C597      1.0  0.02971  0.78817  0.89183  1.0000
  C   C598      1.0  0.03765  0.80686  0.88950  1.0000
  H   H916      1.0  0.03124  0.82204  0.85066  1.0000
  H   H917      1.0  0.01696  0.78932  0.85493  1.0000
  H   H918      1.0  0.25412  0.61496  0.83941  1.0000
  H   H919      1.0  0.04333  0.81163  0.89919  1.0000
  C   C599      1.0  0.28124  0.86544  0.83362  1.0000
  C   C600      1.0  0.28929  0.84470  0.83711  1.0000
  C   C601      1.0  0.28883  0.83080  0.82658  1.0000
  C   C602      1.0  0.27992  0.83754  0.81265  1.0000
  C   C603      1.0  0.27156  0.85823  0.80929  1.0000
  C   C604      1.0  0.27238  0.87220  0.81967  1.0000
  S   S262      1.0  0.30762  0.49717  0.91655  1.0000
  H   H920      1.0  0.29481  0.81478  0.82944  1.0000
  H   H921      1.0  0.02102  0.48804  0.87381  1.0000
  H   H922      1.0  0.26628  0.88817  0.81682  1.0000
  C   C605      1.0  0.17176  0.91715  0.85859  1.0000
  C   C606      1.0  0.17725  0.90863  0.87357  1.0000
  C   C607      1.0  0.16449  0.89643  0.88433  1.0000
  C   C608      1.0  0.14602  0.89290  0.88033  1.0000
  C   C609      1.0  0.14050  0.90145  0.86536  1.0000
  C   C610      1.0  0.15333  0.91354  0.85455  1.0000
  H   H923      1.0  0.19131  0.91141  0.87690  1.0000
  H   H924      1.0  0.16888  0.88981  0.89589  1.0000
  H   H925      1.0  0.12651  0.89845  0.86205  1.0000
  H   H926      1.0  0.14909  0.91991  0.84291  1.0000
  H   H927      1.0  0.23086  0.53973  0.94555  1.0000
  C   C611      1.0  0.10990  0.97189  0.87006  1.0000
  H   H928      1.0  0.12350  0.67601  0.73222  1.0000
  H   H929      1.0  0.21203  0.62075  0.82693  1.0000
  H   H930      1.0  0.08390  0.88394  0.94467  1.0000
  C   C612      1.0  0.99482  0.90147  0.84779  1.0000
  C   C613      1.0  0.17979  0.52382  0.80143  1.0000
  C   C614      1.0  0.29320  0.95328  0.89064  1.0000
  C   C615      1.0  0.27378  0.96167  0.89733  1.0000
  H   H931      1.0  0.26783  0.62457  0.82061  1.0000
  N   N55       1.0  0.26001  0.52138  0.94811  1.0000
  S   S263      1.0  0.01321  0.75749  0.88282  1.0000
  N   N56       1.0  0.31143  0.72278  0.74602  1.0000
  C   C616      1.0  0.31622  0.91521  0.94652  1.0000
  H   H932      1.0  0.20433  0.64594  0.83254  1.0000
  H   H933      1.0  0.29495  0.94630  0.87989  1.0000
  C   C617      1.0  0.12382  0.68578  0.76116  1.0000
  H   H934      1.0  0.00625  0.86393  0.86344  1.0000
  H   H935      1.0  0.08605  0.94970  0.85920  1.0000
  S   S264      1.0  0.99631  0.75779  0.84044  1.0000
  H   H936      1.0  0.31909  0.74261  0.72423  1.0000
  H   H937      1.0  0.16497  0.64879  0.73673  1.0000
  N   N57       1.0  0.23650  0.63851  0.82493  1.0000
  H   H938      1.0  0.27918  0.73176  0.74519  1.0000
  H   H939      1.0  0.25629  0.54684  0.96128  1.0000
  H   H940      1.0  0.26424  0.54884  0.93165  1.0000
  H   H941      1.0  0.99503  0.94987  0.95830  1.0000
  N   N58       1.0  0.19607  0.51236  0.79112  1.0000
  C   C618      1.0  0.09800  0.94116  0.86642  1.0000
  C   C619      1.0  0.08635  0.88515  0.96931  1.0000
  S   S265      1.0  0.27784  0.82035  0.79973  1.0000
  H   H942      1.0  0.12990  0.64740  0.75405  1.0000
  H   H943      1.0  0.31439  0.93160  0.94110  1.0000
  H   H944      1.0  0.18304  0.53953  0.80166  1.0000
  C   C620      1.0  0.23533  0.64551  0.80783  1.0000
  C   C621      1.0  0.19078  0.49190  0.79071  1.0000
  H   H945      1.0  0.27920  0.52901  0.96338  1.0000
  C   C622      1.0  0.21668  0.63254  0.83287  1.0000
  C   C623      1.0  0.27049  0.53228  0.93348  1.0000
  H   H946      1.0  0.99108  0.62352  0.86773  1.0000
  Fe  Fe134     1.0  0.30100  0.79161  0.79815  1.0000
  C   C624      1.0  0.27185  0.97046  0.91141  1.0000
  H   H947      1.0  0.00966  0.87219  0.88140  1.0000
  H   H948      1.0  0.22925  0.66914  0.83092  1.0000
  H   H949      1.0  0.22293  0.65866  0.80619  1.0000
  H   H950      1.0  0.11209  0.93726  0.85803  1.0000
  H   H951      1.0  0.10376  0.69709  0.73573  1.0000
  H   H952      1.0  0.20217  0.53924  0.77468  1.0000
  H   H953      1.0  0.07569  0.94522  0.89494  1.0000
  H   H954      1.0  0.24986  0.65054  0.80148  1.0000
  C   C625      1.0  0.26737  0.48821  0.88828  1.0000
  H   H955      1.0  0.24207  0.65082  0.84521  1.0000
  N   N59       1.0  0.21389  0.86461  0.84448  1.0000
  C   C626      1.0  0.22306  0.87533  0.85463  1.0000
  C   C627      1.0  0.21250  0.87744  0.82881  1.0000
  C   C628      1.0  0.19321  0.86097  0.85223  1.0000
  C   C629      1.0  0.22681  0.84478  0.84225  1.0000
  H   H956      1.0  0.23876  0.87815  0.84922  1.0000
  H   H957      1.0  0.22415  0.86636  0.86667  1.0000
  H   H958      1.0  0.21386  0.89049  0.85628  1.0000
  H   H959      1.0  0.20567  0.86990  0.82077  1.0000
  H   H960      1.0  0.20291  0.89258  0.83012  1.0000
  H   H961      1.0  0.22784  0.88056  0.82269  1.0000
  H   H962      1.0  0.18595  0.85259  0.84503  1.0000
  H   H963      1.0  0.18296  0.87562  0.85379  1.0000
  H   H964      1.0  0.19357  0.85185  0.86430  1.0000
  H   H965      1.0  0.22062  0.83642  0.83436  1.0000
  H   H966      1.0  0.22802  0.83467  0.85384  1.0000
  H   H967      1.0  0.24260  0.84694  0.83668  1.0000
  H   H968      1.0  0.99799  0.91636  0.84066  1.0000
  C   C630      1.0  0.26881  0.49947  0.94989  1.0000
  H   H969      1.0  0.05040  0.94274  0.96200  1.0000
  H   H970      1.0  0.12472  0.68194  0.77415  1.0000
  H   H971      1.0  0.17828  0.51607  0.81400  1.0000
  H   H972      1.0  0.26191  0.49084  0.96112  1.0000
  H   H973      1.0  0.16467  0.52537  0.79728  1.0000
  H   H974      1.0  0.25598  0.66040  0.82644  1.0000
  H   H975      1.0  0.99063  0.95134  0.91903  1.0000
  H   H976      1.0  0.28837  0.78566  0.72343  1.0000
  C   C631      1.0  0.24119  0.65539  0.83225  1.0000
  C   C632      1.0  0.26274  0.53033  0.96214  1.0000
  H   H977      1.0  0.07639  0.67393  0.76177  1.0000
  H   H978      1.0  0.04705  0.91947  0.95551  1.0000
  H   H979      1.0  0.09900  0.98159  0.86242  1.0000
  H   H980      1.0  0.13936  0.68144  0.75474  1.0000
  N   N60       1.0  0.10871  0.67503  0.75650  1.0000
  N   N61       1.0  0.07311  0.74302  0.85104  1.0000
  C   C633      1.0  0.09137  0.75335  0.84890  1.0000
  C   C634      1.0  0.06449  0.74030  0.86811  1.0000
  C   C635      1.0  0.05771  0.75569  0.84164  1.0000
  H   H981      1.0  0.09004  0.71253  0.85259  1.0000
  H   H982      1.0  0.10340  0.74413  0.85572  1.0000
  H   H983      1.0  0.09813  0.75582  0.83612  1.0000
  H   H984      1.0  0.08752  0.76861  0.85312  1.0000
  H   H985      1.0  0.05976  0.75529  0.87267  1.0000
  H   H986      1.0  0.07565  0.73089  0.87562  1.0000
  H   H987      1.0  0.05350  0.77130  0.84514  1.0000
  H   H988      1.0  0.06332  0.75731  0.82861  1.0000
  H   H989      1.0  0.21042  0.51547  0.76674  1.0000
  H   H990      1.0  0.26673  0.49207  0.93967  1.0000
  H   H991      1.0  0.11993  0.70270  0.75845  1.0000
  H   H992      1.0  0.03362  0.88285  0.84852  1.0000
  C   C636      1.0  0.11673  0.94077  0.88828  1.0000
  C   C637      1.0  0.01570  0.97045  0.87647  1.0000
  C   C638      1.0  0.31048  0.95409  0.89778  1.0000
  H   H993      1.0  0.12458  0.96805  0.86221  1.0000
  H   H994      1.0  0.21727  0.62609  0.84562  1.0000
  H   H995      1.0  0.30727  0.78546  0.74586  1.0000
  H   H996      1.0  0.02261  0.97580  0.86455  1.0000
  C   C639      1.0  0.16602  0.65788  0.72506  1.0000
  H   H997      1.0  0.00303  0.92790  0.86564  1.0000
  H   H998      1.0  0.26459  0.86349  0.79854  1.0000
  H   H999      1.0  0.03883  0.49337  0.88562  1.0000
  C   C640      1.0  0.00138  0.87659  0.87084  1.0000
  H   H1000     1.0  0.29565  0.83937  0.84811  1.0000
  H   H1001     1.0  0.02939  0.77871  0.90336  1.0000
  H   H1002     1.0  0.28716  0.53106  0.93396  1.0000
  H   H1003     1.0  0.29263  0.75208  0.74701  1.0000
  C   C641      1.0  0.19817  0.52372  0.77478  1.0000
  H   H1004     1.0  0.26907  0.52567  0.92267  1.0000
  C   C642      1.0  0.11461  0.65268  0.76051  1.0000
  H   H1005     1.0  0.21439  0.50200  0.81001  1.0000
  H   H1006     1.0  0.09718  0.67229  0.73507  1.0000
  H   H1007     1.0  0.08369  0.69821  0.76308  1.0000
  C   C643      1.0  0.23802  0.52339  0.94689  1.0000
  S   S266      1.0  0.99197  0.66642  0.86613  1.0000
  H   H1008     1.0  0.13186  0.93701  0.88103  1.0000
  H   H1009     1.0  0.17614  0.49296  0.78593  1.0000
  H   H1010     1.0  0.03231  0.90983  0.84955  1.0000
  H   H1011     1.0  0.30576  0.69774  0.76447  1.0000
  H   H1012     1.0  0.11922  0.94895  0.89792  1.0000
  Fe  Fe135     1.0  0.99133  0.70083  0.85807  1.0000
  H   H1013     1.0  0.05066  0.73256  0.87018  1.0000
  Fe  Fe136     1.0  0.00163  0.74207  0.86482  1.0000
  C   C644      1.0  0.01481  0.94474  0.89988  1.0000
  C   C645      1.0  0.29175  0.73551  0.75070  1.0000
  C   C646      1.0  0.30950  0.70094  0.75124  1.0000
  C   C647      1.0  0.31554  0.78426  0.73412  1.0000
  H   H1014     1.0  0.10345  0.64402  0.75733  1.0000
  C   C648      1.0  0.05712  0.87577  0.96033  1.0000
  C   C649      1.0  0.08232  0.95898  0.88860  1.0000
  H   H1015     1.0  0.11292  0.98136  0.87870  1.0000
  H   H1016     1.0  0.28720  0.73325  0.76386  1.0000
  H   H1017     1.0  0.09257  0.92654  0.87225  1.0000
  H   H1018     1.0  0.11166  0.92594  0.89405  1.0000
  C   C650      1.0  0.07653  0.88176  0.95689  1.0000
  H   H1019     1.0  0.24939  0.60774  0.82122  1.0000
  C   C651      1.0  0.30856  0.96295  0.91184  1.0000
  C   C652      1.0  0.10821  0.68033  0.73912  1.0000
  H   H1020     1.0  0.18371  0.52574  0.76954  1.0000
  H   H1021     1.0  0.22043  0.52511  0.79759  1.0000
  C   C653      1.0  0.08833  0.68132  0.76527  1.0000
  H   H1022     1.0  0.30478  0.72308  0.72224  1.0000
  C   C654      1.0  0.02816  0.89506  0.85625  1.0000
  H   H1023     1.0  0.08816  0.67693  0.77840  1.0000
  H   H1024     1.0  0.28463  0.51184  0.89047  1.0000
  H   H1025     1.0  0.22970  0.51522  0.95770  1.0000
  N   N62       1.0  0.10174  0.95319  0.87835  1.0000
  C   C655      1.0  0.21561  0.51003  0.79754  1.0000
  H   H1026     1.0  0.11541  0.64827  0.77355  1.0000
  H   H1027     1.0  0.08445  0.96812  0.89775  1.0000
  H   H1028     1.0  0.29717  0.69634  0.74595  1.0000
  H   H1029     1.0  0.99934  0.88949  0.83976  1.0000
  C   C656      1.0  0.30484  0.78463  0.72131  1.0000
  H   H1030     1.0  0.00770  0.90953  0.88272  1.0000
  C   C657      1.0  0.28106  0.49668  0.89530  1.0000
  N   N63       1.0  0.00597  0.89647  0.86176  1.0000
  H   H1031     1.0  0.07058  0.96818  0.88145  1.0000
  H   H1032     1.0  0.01529  0.90482  0.96447  1.0000
  C   C658      1.0  0.17269  0.67699  0.72290  1.0000
  H   H1033     1.0  0.25643  0.97217  0.72876  1.0000
  C   C659      1.0  0.99956  0.91274  0.87207  1.0000
  H   H1034     1.0  0.28548  0.49748  0.95026  1.0000
  H   H1035     1.0  0.28283  0.97695  0.86109  1.0000
  C   C660      1.0  0.31690  0.72640  0.72848  1.0000
  S   S267      1.0  0.26924  0.98306  0.81134  1.0000
  H   H1036     1.0  0.10133  0.88987  0.96660  1.0000
  H   H1037     1.0  0.28741  0.97788  0.92950  1.0000
  H   H1038     1.0  0.25690  0.97702  0.91668  1.0000
  H   H1039     1.0  0.31365  0.91492  0.95970  1.0000
  H   H1040     1.0  0.22812  0.50075  0.79044  1.0000
  H   H1041     1.0  0.01510  0.93706  0.94530  1.0000
  C   C661      1.0  0.99853  0.98249  0.88377  1.0000
  H   H1042     1.0  0.23556  0.51680  0.93636  1.0000
  H   H1043     1.0  0.26053  0.49685  0.87818  1.0000
  S   S268      1.0  0.32219  0.51333  0.95308  1.0000
  C   C662      1.0  0.99767  0.95674  0.90715  1.0000
  C   C663      1.0  0.01192  0.94579  0.95566  1.0000
  S   S269      1.0  0.22852  0.48807  0.84167  1.0000
  H   H1044     1.0  0.28821  0.98423  0.83990  1.0000
  H   H1045     1.0  0.30381  0.90831  0.94320  1.0000
  N   N64       1.0  0.02064  0.93370  0.96966  1.0000
  H   H1046     1.0  0.23111  0.98549  0.79791  1.0000
  S   S270      1.0  0.48880  0.33953  0.00236  1.0000
  S   S271      1.0  0.47852  0.08615  0.98849  1.0000
  S   S272      1.0  0.48479  0.14707  0.98352  1.0000
  Fe  Fe137     1.0  0.50825  0.21017  0.08362  1.0000
  S   S273      1.0  0.47795  0.19853  0.08643  1.0000
  S   S274      1.0  0.52412  0.20484  0.10596  1.0000
  Fe  Fe138     1.0  0.50416  0.23030  0.04949  1.0000
  S   S275      1.0  0.47374  0.22046  0.04979  1.0000
  S   S276      1.0  0.51891  0.24630  0.02630  1.0000
  Fe  Fe139     1.0  0.46604  0.22961  0.07440  1.0000
  S   S277      1.0  0.43656  0.25089  0.08111  1.0000
  Fe  Fe140     1.0  0.48798  0.19022  0.06162  1.0000
  S   S278      1.0  0.48310  0.15968  0.05568  1.0000
  S   S279      1.0  0.49557  0.24202  0.07307  1.0000
  S   S280      1.0  0.51916  0.19928  0.05982  1.0000
  C   C664      1.0  0.39507  0.05553  0.97763  1.0000
  H   H1047     1.0  0.39491  0.12588  0.01381  1.0000
  S   S281      1.0  0.36234  0.23178  0.13552  1.0000
  Fe  Fe141     1.0  0.48424  0.11686  0.97507  1.0000
  H   H1048     1.0  0.52995  0.34361  0.99484  1.0000
  C   C665      1.0  0.55011  0.04141  0.97334  1.0000
  C   C666      1.0  0.43841  0.09343  0.02053  1.0000
  H   H1049     1.0  0.64999  0.11346  0.08562  1.0000
  H   H1050     1.0  0.62226  0.99548  0.01557  1.0000
  C   C667      1.0  0.56678  0.41037  0.98335  1.0000
  H   H1051     1.0  0.61128  0.01593  0.00171  1.0000
  S   S282      1.0  0.62035  0.19734  0.10718  1.0000
  H   H1052     1.0  0.55793  0.33737  0.02025  1.0000
  S   S283      1.0  0.62289  0.46841  0.00411  1.0000
  Fe  Fe142     1.0  0.62402  0.44593  0.98689  1.0000
  S   S284      1.0  0.59668  0.42827  0.99172  1.0000
  S   S285      1.0  0.42450  0.07867  0.98008  1.0000
  C   C668      1.0  0.32621  0.32140  0.19070  1.0000
  H   H1053     1.0  0.64157  0.21503  0.18558  1.0000
  H   H1054     1.0  0.33800  0.33135  0.19044  1.0000
  C   C669      1.0  0.40470  0.11095  0.01664  1.0000
  N   N65       1.0  0.62796  0.02539  0.01793  1.0000
  H   H1055     1.0  0.40378  0.10126  0.00743  1.0000
  H   H1056     1.0  0.42565  0.13936  0.99813  1.0000
  H   H1057     1.0  0.61863  0.01982  0.04330  1.0000
  N   N66       1.0  0.42604  0.11369  0.01692  1.0000
  C   C670      1.0  0.55095  0.20261  0.10611  1.0000
  C   C671      1.0  0.55862  0.19905  0.12082  1.0000
  C   C672      1.0  0.57977  0.19738  0.12145  1.0000
  C   C673      1.0  0.59350  0.19929  0.10733  1.0000
  C   C674      1.0  0.58583  0.20276  0.09264  1.0000
  C   C675      1.0  0.56471  0.20441  0.09201  1.0000
  H   H1058     1.0  0.54815  0.19759  0.13181  1.0000
  H   H1059     1.0  0.58541  0.19468  0.13284  1.0000
  H   H1060     1.0  0.59626  0.20433  0.08163  1.0000
  H   H1061     1.0  0.55908  0.20716  0.08061  1.0000
  C   C676      1.0  0.41593  0.24509  0.09609  1.0000
  C   C677      1.0  0.39950  0.26064  0.09930  1.0000
  C   C678      1.0  0.38290  0.25680  0.11120  1.0000
  C   C679      1.0  0.38259  0.23733  0.12009  1.0000
  C   C680      1.0  0.39903  0.22177  0.11688  1.0000
  C   C681      1.0  0.41558  0.22557  0.10490  1.0000
  H   H1062     1.0  0.39960  0.27579  0.09256  1.0000
  H   H1063     1.0  0.37038  0.26891  0.11355  1.0000
  H   H1064     1.0  0.39884  0.20662  0.12361  1.0000
  H   H1065     1.0  0.42794  0.21337  0.10241  1.0000
  H   H1066     1.0  0.61346  0.05193  0.00402  1.0000
  H   H1067     1.0  0.62856  0.15252  0.11233  1.0000
  C   C682      1.0  0.63270  0.01884  0.03441  1.0000
  H   H1068     1.0  0.64753  0.24358  0.16347  1.0000
  H   H1069     1.0  0.63474  0.26227  0.17594  1.0000
  C   C683      1.0  0.48502  0.14997  0.00362  1.0000
  C   C684      1.0  0.48454  0.13340  0.01590  1.0000
  C   C685      1.0  0.48402  0.13655  0.03181  1.0000
  C   C686      1.0  0.48428  0.15619  0.03553  1.0000
  C   C687      1.0  0.48506  0.17267  0.02319  1.0000
  C   C688      1.0  0.48532  0.16957  0.00733  1.0000
  H   H1070     1.0  0.48467  0.11818  0.01316  1.0000
  H   H1071     1.0  0.48363  0.12371  0.04129  1.0000
  H   H1072     1.0  0.48538  0.18783  0.02589  1.0000
  H   H1073     1.0  0.48578  0.18246  0.99791  1.0000
  H   H1074     1.0  0.54277  0.39652  0.97718  1.0000
  H   H1075     1.0  0.64841  0.21610  0.20478  1.0000
  H   H1076     1.0  0.55777  0.41504  0.99415  1.0000
  C   C689      1.0  0.49824  0.31389  0.00897  1.0000
  C   C690      1.0  0.49700  0.30688  0.02539  1.0000
  C   C691      1.0  0.50334  0.28614  0.03092  1.0000
  C   C692      1.0  0.51129  0.27245  0.02000  1.0000
  C   C693      1.0  0.51319  0.27964  0.00361  1.0000
  C   C694      1.0  0.50648  0.30024  0.99810  1.0000
  H   H1077     1.0  0.49089  0.31748  0.03384  1.0000
  H   H1078     1.0  0.50221  0.28075  0.04359  1.0000
  H   H1079     1.0  0.51937  0.26910  0.99512  1.0000
  H   H1080     1.0  0.50724  0.30536  0.98543  1.0000
  N   N67       1.0  0.46684  0.22228  0.13054  1.0000
  C   C695      1.0  0.46972  0.23520  0.11487  1.0000
  C   C696      1.0  0.44637  0.22885  0.13906  1.0000
  C   C697      1.0  0.48275  0.22444  0.13998  1.0000
  C   C698      1.0  0.46860  0.20062  0.12819  1.0000
  H   H1081     1.0  0.48518  0.23095  0.10828  1.0000
  H   H1082     1.0  0.46804  0.25171  0.11608  1.0000
  H   H1083     1.0  0.45836  0.23352  0.10726  1.0000
  H   H1084     1.0  0.44355  0.21933  0.15090  1.0000
  H   H1085     1.0  0.44450  0.24513  0.14101  1.0000
  H   H1086     1.0  0.43409  0.22753  0.13214  1.0000
  H   H1087     1.0  0.49836  0.21950  0.13380  1.0000
  H   H1088     1.0  0.48112  0.21489  0.15189  1.0000
  H   H1089     1.0  0.48207  0.24062  0.14182  1.0000
  H   H1090     1.0  0.46663  0.19037  0.13976  1.0000
  H   H1091     1.0  0.48387  0.19521  0.12171  1.0000
  H   H1092     1.0  0.45686  0.19841  0.12107  1.0000
  H   H1093     1.0  0.43374  0.11479  0.99154  1.0000
  H   H1094     1.0  0.64037  0.00265  0.03599  1.0000
  S   S286      1.0  0.63961  0.16865  0.18633  1.0000
  H   H1095     1.0  0.45057  0.12585  0.00080  1.0000
  H   H1096     1.0  0.55862  0.45919  0.98914  1.0000
  C   C699      1.0  0.42673  0.12646  0.02929  1.0000
  N   N68       1.0  0.44197  0.28080  0.03446  1.0000
  C   C700      1.0  0.45769  0.27349  0.02162  1.0000
  C   C701      1.0  0.42843  0.26514  0.04057  1.0000
  C   C702      1.0  0.42980  0.30006  0.02804  1.0000
  C   C703      1.0  0.45194  0.28458  0.04762  1.0000
  H   H1097     1.0  0.46745  0.28539  0.01617  1.0000
  H   H1098     1.0  0.45074  0.26946  0.01186  1.0000
  H   H1099     1.0  0.46804  0.25966  0.02618  1.0000
  H   H1100     1.0  0.41656  0.27003  0.05044  1.0000
  H   H1101     1.0  0.42053  0.26186  0.03104  1.0000
  H   H1102     1.0  0.43716  0.25046  0.04554  1.0000
  H   H1103     1.0  0.41786  0.30608  0.03743  1.0000
  H   H1104     1.0  0.42204  0.29780  0.01808  1.0000
  H   H1105     1.0  0.43964  0.31219  0.02331  1.0000
  H   H1106     1.0  0.44051  0.28899  0.05789  1.0000
  H   H1107     1.0  0.46134  0.29712  0.04373  1.0000
  H   H1108     1.0  0.46212  0.27066  0.05221  1.0000
  H   H1109     1.0  0.43824  0.08342  0.01137  1.0000
  Fe  Fe143     1.0  0.65256  0.17800  0.16050  1.0000
  H   H1110     1.0  0.41757  0.14188  0.02695  1.0000
  H   H1111     1.0  0.35609  0.27502  0.21343  1.0000
  Fe  Fe144     1.0  0.33243  0.25278  0.14173  1.0000
  C   C704      1.0  0.61727  0.04668  0.01636  1.0000
  H   H1112     1.0  0.57946  0.31063  0.98512  1.0000
  H   H1113     1.0  0.55228  0.31313  0.98556  1.0000
  Fe  Fe145     1.0  0.64089  0.19198  0.12682  1.0000
  H   H1114     1.0  0.42070  0.11921  0.04138  1.0000
  C   C705      1.0  0.43436  0.12387  0.00116  1.0000
  H   H1115     1.0  0.65554  0.00834  0.00754  1.0000
  H   H1116     1.0  0.44265  0.12889  0.02971  1.0000
  H   H1117     1.0  0.37138  0.03846  0.97495  1.0000
  S   S287      1.0  0.33031  0.27893  0.15579  1.0000
  H   H1118     1.0  0.33541  0.26685  0.19435  1.0000
  H   H1119     1.0  0.62481  0.14482  0.07872  1.0000
  H   H1120     1.0  0.54087  0.36350  0.00056  1.0000
  C   C706      1.0  0.56541  0.32189  0.98368  1.0000
  C   C707      1.0  0.63695  0.13835  0.10772  1.0000
  Fe  Fe146     1.0  0.49623  0.35025  0.97594  1.0000
  C   C708      1.0  0.43516  0.45439  0.97210  1.0000
  H   H1121     1.0  0.55336  0.01063  0.98565  1.0000
  H   H1122     1.0  0.60268  0.04813  0.02468  1.0000
  H   H1123     1.0  0.64648  0.12993  0.11686  1.0000
  H   H1124     1.0  0.59446  0.33799  0.99401  1.0000
  H   H1125     1.0  0.55529  0.48562  0.99200  1.0000
  C   C709      1.0  0.56132  0.02268  0.97888  1.0000
  C   C710      1.0  0.64323  0.22565  0.19388  1.0000
  N   N69       1.0  0.56237  0.33704  0.99491  1.0000
  C   C711      1.0  0.54359  0.35159  0.99250  1.0000
  C   C712      1.0  0.58004  0.34836  0.99191  1.0000
  C   C713      1.0  0.58272  0.01949  0.97578  1.0000
  H   H1126     1.0  0.59998  0.01244  0.02229  1.0000
  H   H1127     1.0  0.57412  0.31511  0.01375  1.0000
  H   H1128     1.0  0.62775  0.23392  0.19749  1.0000
  H   H1129     1.0  0.62539  0.12865  0.10679  1.0000
  C   C714      1.0  0.61476  0.01173  0.01420  1.0000
  C   C715      1.0  0.58679  0.41508  0.97903  1.0000
  H   H1130     1.0  0.64416  0.02896  0.99408  1.0000
  S   S288      1.0  0.64048  0.20869  0.14765  1.0000
  N   N70       1.0  0.64957  0.14326  0.09217  1.0000
  C   C716      1.0  0.56029  0.32636  0.01148  1.0000
  H   H1131     1.0  0.32844  0.34930  0.16438  1.0000
  S   S289      1.0  0.34955  0.48221  0.97764  1.0000
  H   H1132     1.0  0.54441  0.35957  0.98004  1.0000
  H   H1133     1.0  0.45463  0.09488  0.02084  1.0000
  H   H1134     1.0  0.39789  0.10328  0.02833  1.0000
  H   H1135     1.0  0.62685  0.16874  0.21999  1.0000
  C   C717      1.0  0.32809  0.27083  0.20586  1.0000
  H   H1136     1.0  0.43251  0.08525  0.03230  1.0000
  H   H1137     1.0  0.59105  0.00494  0.98002  1.0000
  C   C718      1.0  0.64715  0.02422  0.00666  1.0000
  C   C719      1.0  0.56420  0.47411  0.98460  1.0000
  H   H1138     1.0  0.54694  0.31780  0.01405  1.0000
  H   H1139     1.0  0.40146  0.39602  0.97678  1.0000
  H   H1140     1.0  0.33383  0.30772  0.18507  1.0000
  H   H1141     1.0  0.62753  0.16871  0.08441  1.0000
  H   H1142     1.0  0.38543  0.06407  0.98641  1.0000
  H   H1143     1.0  0.58039  0.47218  0.98680  1.0000
  S   S290      1.0  0.52323  0.04395  0.97713  1.0000
  H   H1144     1.0  0.58226  0.35607  0.97934  1.0000
  H   H1145     1.0  0.32370  0.32581  0.15919  1.0000
  H   H1146     1.0  0.57794  0.36052  0.99973  1.0000
  C   C720      1.0  0.33977  0.27539  0.21669  1.0000
  H   H1147     1.0  0.43426  0.44941  0.98520  1.0000
  C   C721      1.0  0.64234  0.17220  0.21733  1.0000
  C   C722      1.0  0.63622  0.15427  0.08043  1.0000
  H   H1148     1.0  0.64522  0.15853  0.06861  1.0000
  S   S291      1.0  0.65031  0.16089  0.14038  1.0000
  H   H1149     1.0  0.62683  0.05742  0.01903  1.0000
  C   C723      1.0  0.65248  0.17278  0.20161  1.0000
  H   H1150     1.0  0.56694  0.32951  0.97104  1.0000
  C   C724      1.0  0.41529  0.05927  0.97258  1.0000
  C   C725      1.0  0.40209  0.47524  0.97480  1.0000
  H   H1151     1.0  0.39976  0.47059  0.98795  1.0000
  H   H1152     1.0  0.64317  0.02836  0.03752  1.0000
  C   C726      1.0  0.55826  0.39976  0.97377  1.0000
  Fe  Fe147     1.0  0.45650  0.08635  0.97128  1.0000
  C   C727      1.0  0.38707  0.04096  0.97119  1.0000
  H   H1153     1.0  0.64545  0.26198  0.20238  1.0000
  C   C728      1.0  0.64972  0.25299  0.17245  1.0000
  H   H1154     1.0  0.43059  0.48584  0.98914  1.0000
  H   H1155     1.0  0.65667  0.17118  0.09775  1.0000
  Fe  Fe148     1.0  0.41933  0.05797  0.41813  1.0000
  S   S292      1.0  0.44462  0.06745  0.39894  1.0000
  S   S293      1.0  0.42503  0.04569  0.44366  1.0000
  Fe  Fe149     1.0  0.38878  0.06098  0.39399  1.0000
  S   S294      1.0  0.41210  0.07031  0.37347  1.0000
  S   S295      1.0  0.35547  0.06174  0.39039  1.0000
  Fe  Fe150     1.0  0.43434  0.04593  0.38536  1.0000
  S   S296      1.0  0.45509  0.02387  0.37036  1.0000
  Fe  Fe151     1.0  0.42013  0.09118  0.38885  1.0000
  S   S297      1.0  0.41914  0.12466  0.37726  1.0000
  S   S298      1.0  0.41044  0.03504  0.40489  1.0000
  S   S299      1.0  0.39548  0.08308  0.40907  1.0000
  H   H1156     1.0  0.40640  0.22619  0.28236  1.0000
  H   H1157     1.0  0.48736  0.46677  0.41505  1.0000
  C   C729      1.0  0.36134  0.12049  0.39060  1.0000
  C   C730      1.0  0.34409  0.32631  0.32503  1.0000
  S   S300      1.0  0.35240  0.26607  0.32222  1.0000
  S   S301      1.0  0.34496  0.30719  0.28446  1.0000
  Fe  Fe152     1.0  0.55196  0.41156  0.38487  1.0000
  S   S302      1.0  0.53603  0.38531  0.39735  1.0000
  S   S303      1.0  0.53135  0.43552  0.37084  1.0000
  Fe  Fe153     1.0  0.59349  0.39081  0.39388  1.0000
  S   S304      1.0  0.58031  0.36273  0.40681  1.0000
  S   S305      1.0  0.62761  0.38879  0.39491  1.0000
  Fe  Fe154     1.0  0.56283  0.36519  0.38614  1.0000
  S   S306      1.0  0.56175  0.34063  0.37080  1.0000
  Fe  Fe155     1.0  0.55465  0.38531  0.41682  1.0000
  S   S307      1.0  0.53836  0.38157  0.44209  1.0000
  S   S308      1.0  0.57799  0.39159  0.37240  1.0000
  S   S309      1.0  0.56860  0.41324  0.40529  1.0000
  C   C731      1.0  0.64327  0.99351  0.35281  1.0000
  H   H1158     1.0  0.35230  0.15829  0.37498  1.0000
  S   S310      1.0  0.63207  0.18107  0.31947  1.0000
  Fe  Fe156     1.0  0.49780  0.25740  0.35585  1.0000
  S   S311      1.0  0.49984  0.26613  0.32924  1.0000
  S   S312      1.0  0.49938  0.27674  0.37512  1.0000
  Fe  Fe157     1.0  0.48749  0.21474  0.35446  1.0000
  S   S313      1.0  0.48850  0.22043  0.32784  1.0000
  S   S314      1.0  0.48637  0.18392  0.37026  1.0000
  Fe  Fe158     1.0  0.51687  0.23429  0.32760  1.0000
  S   S315      1.0  0.54293  0.22593  0.30817  1.0000
  Fe  Fe159     1.0  0.47129  0.25167  0.33139  1.0000
  S   S316      1.0  0.44768  0.26936  0.31592  1.0000
  S   S317      1.0  0.51708  0.22668  0.35399  1.0000
  S   S318      1.0  0.46802  0.24494  0.35817  1.0000
  C   C732      1.0  0.60777  0.19448  0.31588  1.0000
  C   C733      1.0  0.59378  0.20085  0.32882  1.0000
  C   C734      1.0  0.57409  0.21109  0.32658  1.0000
  C   C735      1.0  0.56807  0.21470  0.31139  1.0000
  C   C736      1.0  0.58207  0.20837  0.29843  1.0000
  C   C737      1.0  0.60187  0.19836  0.30064  1.0000
  H   H1159     1.0  0.59830  0.19802  0.34062  1.0000
  H   H1160     1.0  0.56362  0.21621  0.33660  1.0000
  H   H1161     1.0  0.57757  0.21116  0.28663  1.0000
  H   H1162     1.0  0.61251  0.19354  0.29059  1.0000
  H   H1163     1.0  0.55814  0.14035  0.34578  1.0000
  H   H1164     1.0  0.36982  0.25994  0.28970  1.0000
  C   C738      1.0  0.54379  0.32344  0.37214  1.0000
  C   C739      1.0  0.54577  0.31104  0.36007  1.0000
  C   C740      1.0  0.53213  0.29695  0.36066  1.0000
  C   C741      1.0  0.51638  0.29498  0.37343  1.0000
  C   C742      1.0  0.51427  0.30753  0.38544  1.0000
  C   C743      1.0  0.52781  0.32177  0.38477  1.0000
  H   H1165     1.0  0.55811  0.31211  0.35027  1.0000
  H   H1166     1.0  0.53402  0.28738  0.35136  1.0000
  H   H1167     1.0  0.50215  0.30616  0.39537  1.0000
  H   H1168     1.0  0.52608  0.33118  0.39415  1.0000
  C   C744      1.0  0.52218  0.45893  0.37825  1.0000
  C   C745      1.0  0.53277  0.46613  0.38842  1.0000
  H   H1169     1.0  0.38259  0.31133  0.32986  1.0000
  H   H1170     1.0  0.54714  0.45760  0.39147  1.0000
  H   H1171     1.0  0.60622  0.98736  0.36793  1.0000
  N   N71       1.0  0.53790  0.16297  0.33280  1.0000
  C   C746      1.0  0.64315  0.40765  0.38582  1.0000
  C   C747      1.0  0.63547  0.42575  0.37667  1.0000
  C   C748      1.0  0.62326  0.02213  0.36451  1.0000
  H   H1172     1.0  0.36946  0.32269  0.34689  1.0000
  H   H1173     1.0  0.61947  0.42871  0.37517  1.0000
  H   H1174     1.0  0.49554  0.44187  0.45615  1.0000
  C   C749      1.0  0.56482  0.40047  0.45415  1.0000
  C   C750      1.0  0.54901  0.38857  0.45750  1.0000
  S   S319      1.0  0.34527  0.28652  0.24492  1.0000
  H   H1175     1.0  0.57010  0.40633  0.44194  1.0000
  H   H1176     1.0  0.37843  0.14830  0.36868  1.0000
  C   C751      1.0  0.37880  0.26734  0.32075  1.0000
  C   C752      1.0  0.38817  0.28141  0.30923  1.0000
  C   C753      1.0  0.40923  0.28191  0.30807  1.0000
  C   C754      1.0  0.42117  0.26836  0.31843  1.0000
  C   C755      1.0  0.41180  0.25440  0.33010  1.0000
  C   C756      1.0  0.39067  0.25392  0.33124  1.0000
  H   H1177     1.0  0.37921  0.29191  0.30123  1.0000
  H   H1178     1.0  0.41639  0.29279  0.29905  1.0000
  H   H1179     1.0  0.42085  0.24390  0.33815  1.0000
  H   H1180     1.0  0.38352  0.24301  0.34024  1.0000
  H   H1181     1.0  0.50677  0.43448  0.40676  1.0000
  H   H1182     1.0  0.41446  0.10845  0.46904  1.0000
  C   C757      1.0  0.59845  0.35564  0.45070  1.0000
  H   H1183     1.0  0.38794  0.11215  0.36463  1.0000
  C   C758      1.0  0.43840  0.14057  0.37509  1.0000
  C   C759      1.0  0.43561  0.16009  0.36597  1.0000
  C   C760      1.0  0.45026  0.17344  0.36417  1.0000
  C   C761      1.0  0.46779  0.16746  0.37164  1.0000
  C   C762      1.0  0.47062  0.14794  0.38074  1.0000
  C   C763      1.0  0.45606  0.13451  0.38240  1.0000
  H   H1184     1.0  0.42201  0.16495  0.36027  1.0000
  H   H1185     1.0  0.44785  0.18841  0.35715  1.0000
  H   H1186     1.0  0.48409  0.14316  0.38661  1.0000
  H   H1187     1.0  0.45839  0.11958  0.38950  1.0000
  H   H1188     1.0  0.63025  0.33294  0.43528  1.0000
  C   C764      1.0  0.61521  0.38386  0.43635  1.0000
  H   H1189     1.0  0.49553  0.46495  0.36618  1.0000
  C   C765      1.0  0.34496  0.04557  0.38033  1.0000
  C   C766      1.0  0.35725  0.03095  0.37165  1.0000
  C   C767      1.0  0.34824  0.01839  0.36393  1.0000
  C   C768      1.0  0.57413  0.40441  0.46666  1.0000
  H   H1190     1.0  0.53572  0.19453  0.33538  1.0000
  H   H1191     1.0  0.37367  0.02939  0.37088  1.0000
  H   H1192     1.0  0.33757  0.07378  0.32680  1.0000
  H   H1193     1.0  0.36898  0.09543  0.36829  1.0000
  C   C769      1.0  0.42771  0.06066  0.45822  1.0000
  C   C770      1.0  0.41984  0.08149  0.45726  1.0000
  H   H1194     1.0  0.33598  0.32315  0.33737  1.0000
  H   H1195     1.0  0.61152  0.02341  0.35646  1.0000
  H   H1196     1.0  0.41257  0.08908  0.44705  1.0000
  H   H1197     1.0  0.35115  0.13091  0.39834  1.0000
  H   H1198     1.0  0.52813  0.17834  0.35348  1.0000
  C   C771      1.0  0.49340  0.46257  0.42670  1.0000
  H   H1199     1.0  0.42351  0.24364  0.27214  1.0000
  C   C772      1.0  0.35272  0.35772  0.33075  1.0000
  C   C773      1.0  0.32989  0.03867  0.31950  1.0000
  H   H1200     1.0  0.64244  0.45408  0.36235  1.0000
  C   C774      1.0  0.54251  0.14268  0.34234  1.0000
  H   H1201     1.0  0.51527  0.15337  0.32169  1.0000
  H   H1202     1.0  0.34979  0.31126  0.32078  1.0000
  H   H1203     1.0  0.51831  0.38996  0.31929  1.0000
  H   H1204     1.0  0.50055  0.39738  0.33615  1.0000
  H   H1205     1.0  0.51332  0.18057  0.32105  1.0000
  C   C775      1.0  0.50625  0.43524  0.44635  1.0000
  H   H1206     1.0  0.56221  0.37205  0.34207  1.0000
  N   N72       1.0  0.63325  0.00074  0.36793  1.0000
  H   H1207     1.0  0.50532  0.16501  0.33939  1.0000
  H   H1208     1.0  0.47182  0.43469  0.42144  1.0000
  H   H1209     1.0  0.35916  0.25989  0.27188  1.0000
  H   H1210     1.0  0.33288  0.10875  0.37697  1.0000
  H   H1211     1.0  0.55280  0.15248  0.31080  1.0000
  H   H1212     1.0  0.54163  0.13010  0.33558  1.0000
  N   N73       1.0  0.53130  0.38692  0.34101  1.0000
  C   C776      1.0  0.55283  0.16475  0.31809  1.0000
  C   C777      1.0  0.63200  0.35911  0.45563  1.0000
  H   H1213     1.0  0.61561  0.02819  0.37565  1.0000
  C   C778      1.0  0.33644  0.12458  0.37257  1.0000
  C   C779      1.0  0.64874  0.99980  0.37856  1.0000
  H   H1214     1.0  0.37689  0.32841  0.30254  1.0000
  H   H1215     1.0  0.45670  0.00955  0.40398  1.0000
  H   H1216     1.0  0.63471  0.34279  0.46114  1.0000
  C   C780      1.0  0.42091  0.09243  0.46974  1.0000
  H   H1217     1.0  0.64710  0.36388  0.45052  1.0000
  H   H1218     1.0  0.41408  0.01217  0.37547  1.0000
  H   H1219     1.0  0.59155  0.36391  0.46098  1.0000
  H   H1220     1.0  0.37735  0.12152  0.39196  1.0000
  H   H1221     1.0  0.35991  0.15165  0.35516  1.0000
  C   C781      1.0  0.51266  0.43126  0.41847  1.0000
  N   N74       1.0  0.36090  0.33824  0.32443  1.0000
  H   H1222     1.0  0.51633  0.41434  0.42145  1.0000
  N   N75       1.0  0.39188  0.25355  0.26930  1.0000
  C   C782      1.0  0.39306  0.24399  0.25476  1.0000
  C   C783      1.0  0.37162  0.25232  0.27889  1.0000
  C   C784      1.0  0.39478  0.27526  0.26467  1.0000
  H   H1223     1.0  0.40817  0.24452  0.24722  1.0000
  H   H1224     1.0  0.38113  0.25204  0.24731  1.0000
  H   H1225     1.0  0.39064  0.22768  0.25777  1.0000
  H   H1226     1.0  0.36904  0.23619  0.28296  1.0000
  H   H1227     1.0  0.40977  0.27678  0.25719  1.0000
  H   H1228     1.0  0.39420  0.28294  0.27530  1.0000
  H   H1229     1.0  0.38265  0.28401  0.25772  1.0000
  N   N76       1.0  0.47664  0.22578  0.40671  1.0000
  C   C785      1.0  0.46655  0.24731  0.40515  1.0000
  C   C786      1.0  0.46363  0.21277  0.40185  1.0000
  C   C787      1.0  0.47994  0.21861  0.42346  1.0000
  C   C788      1.0  0.49653  0.22442  0.39633  1.0000
  H   H1230     1.0  0.47626  0.25762  0.40829  1.0000
  H   H1231     1.0  0.45157  0.24911  0.41293  1.0000
  H   H1232     1.0  0.46379  0.25315  0.39264  1.0000
  H   H1233     1.0  0.47084  0.19641  0.40282  1.0000
  H   H1234     1.0  0.44840  0.21349  0.40932  1.0000
  H   H1235     1.0  0.46107  0.21753  0.38919  1.0000
  H   H1236     1.0  0.48968  0.22814  0.42749  1.0000
  H   H1237     1.0  0.48768  0.20245  0.42495  1.0000
  H   H1238     1.0  0.46522  0.21932  0.43164  1.0000
  H   H1239     1.0  0.50433  0.20831  0.39657  1.0000
  H   H1240     1.0  0.50696  0.23374  0.39977  1.0000
  H   H1241     1.0  0.49449  0.23046  0.38379  1.0000
  H   H1242     1.0  0.40715  0.24930  0.29007  1.0000
  H   H1243     1.0  0.51215  0.39337  0.36285  1.0000
  H   H1244     1.0  0.33812  0.03615  0.33008  1.0000
  H   H1245     1.0  0.64363  0.17725  0.24141  1.0000
  Fe  Fe160     1.0  0.32830  0.29399  0.26883  1.0000
  C   C789      1.0  0.51703  0.16554  0.32855  1.0000
  H   H1246     1.0  0.60936  0.39389  0.44568  1.0000
  C   C790      1.0  0.50378  0.47038  0.37408  1.0000
  C   C791      1.0  0.40796  0.24268  0.27884  1.0000
  C   C792      1.0  0.36227  0.14699  0.36787  1.0000
  C   C793      1.0  0.53723  0.40767  0.33755  1.0000
  C   C794      1.0  0.46580  0.99813  0.39716  1.0000
  H   H1247     1.0  0.36941  0.11508  0.35126  1.0000
  H   H1248     1.0  0.48192  0.98942  0.35889  1.0000
  H   H1249     1.0  0.64181  0.00525  0.39007  1.0000
  C   C795      1.0  0.46810  0.00165  0.38050  1.0000
  H   H1250     1.0  0.50741  0.46985  0.42552  1.0000
  H   H1251     1.0  0.48142  0.41426  0.43596  1.0000
  H   H1252     1.0  0.35844  0.10457  0.39539  1.0000
  H   H1253     1.0  0.52024  0.36645  0.36149  1.0000
  H   H1254     1.0  0.58720  0.35878  0.44205  1.0000
  H   H1255     1.0  0.52432  0.41947  0.34140  1.0000
  H   H1256     1.0  0.65476  0.00334  0.34647  1.0000
  H   H1257     1.0  0.52724  0.43764  0.41682  1.0000
  H   H1258     1.0  0.54998  0.40875  0.34409  1.0000
  H   H1259     1.0  0.46700  0.43748  0.44225  1.0000
  C   C796      1.0  0.54891  0.37178  0.33586  1.0000
  C   C797      1.0  0.37162  0.11152  0.36404  1.0000
  H   H1260     1.0  0.34050  0.07507  0.30546  1.0000
  H   H1261     1.0  0.54225  0.41200  0.32461  1.0000
  N   N77       1.0  0.49773  0.44010  0.43108  1.0000
  C   C798      1.0  0.52498  0.38195  0.35834  1.0000
  H   H1262     1.0  0.35919  0.35161  0.30001  1.0000
  H   H1263     1.0  0.52094  0.44131  0.44537  1.0000
  C   C799      1.0  0.47863  0.43123  0.43277  1.0000
  H   H1264     1.0  0.54933  0.17973  0.31044  1.0000
  H   H1265     1.0  0.53148  0.14101  0.35353  1.0000
  C   C800      1.0  0.32909  0.07529  0.31644  1.0000
  C   C801      1.0  0.33040  0.28044  0.23169  1.0000
  H   H1266     1.0  0.54514  0.35587  0.33877  1.0000
  H   H1267     1.0  0.50947  0.41838  0.45006  1.0000
  N   N78       1.0  0.61832  0.36203  0.44331  1.0000
  H   H1268     1.0  0.56867  0.16388  0.32084  1.0000
  H   H1269     1.0  0.50934  0.37071  0.33483  1.0000
  H   H1270     1.0  0.55398  0.37476  0.32281  1.0000
  H   H1271     1.0  0.33323  0.12859  0.36003  1.0000
  C   C802      1.0  0.37625  0.32623  0.33420  1.0000
  N   N79       1.0  0.35790  0.12592  0.37376  1.0000
  H   H1272     1.0  0.58659  0.41333  0.46408  1.0000
  C   C803      1.0  0.51411  0.38622  0.33242  1.0000
  C   C804      1.0  0.53919  0.17909  0.34229  1.0000
  H   H1273     1.0  0.53785  0.38189  0.36499  1.0000
  H   H1274     1.0  0.55475  0.17782  0.34565  1.0000
  H   H1275     1.0  0.38313  0.35188  0.30674  1.0000
  C   C805      1.0  0.41429  0.99780  0.37045  1.0000
  H   H1276     1.0  0.35788  0.00708  0.35730  1.0000
  C   C806      1.0  0.32687  0.02034  0.36468  1.0000
  C   C807      1.0  0.64853  0.44011  0.36941  1.0000
  H   H1277     1.0  0.60006  0.33899  0.45530  1.0000
  H   H1278     1.0  0.37660  0.98966  0.38378  1.0000
  Fe  Fe161     1.0  0.33250  0.28449  0.30418  1.0000
  H   H1279     1.0  0.48188  0.46981  0.43577  1.0000
  H   H1280     1.0  0.34143  0.03730  0.30870  1.0000
  H   H1281     1.0  0.36509  0.36677  0.33106  1.0000
  C   C808      1.0  0.37050  0.34272  0.30771  1.0000
  H   H1282     1.0  0.33260  0.33461  0.31736  1.0000
  H   H1283     1.0  0.42492  0.99057  0.39981  1.0000
  H   H1284     1.0  0.38932  0.33461  0.33389  1.0000
  H   H1285     1.0  0.34184  0.36758  0.32320  1.0000
  H   H1286     1.0  0.34437  0.35509  0.34306  1.0000
  H   H1287     1.0  0.65458  0.11360  0.24779  1.0000
  H   H1288     1.0  0.42994  0.99409  0.36392  1.0000
  C   C809      1.0  0.62766  0.34954  0.43057  1.0000
  H   H1289     1.0  0.32563  0.13514  0.37985  1.0000
  H   H1290     1.0  0.38775  0.00115  0.39710  1.0000
  C   C810      1.0  0.65184  0.17690  0.22948  1.0000
  H   H1291     1.0  0.63205  0.99355  0.34458  1.0000
  C   C811      1.0  0.61788  0.98750  0.37577  1.0000
  H   H1292     1.0  0.62531  0.36834  0.46545  1.0000
  H   H1293     1.0  0.63463  0.03236  0.35855  1.0000
  H   H1294     1.0  0.60410  0.38685  0.42761  1.0000
  H   H1295     1.0  0.64258  0.35410  0.42465  1.0000
  H   H1296     1.0  0.61777  0.35156  0.42103  1.0000
  H   H1297     1.0  0.62970  0.38887  0.42986  1.0000
  H   H1298     1.0  0.40337  0.00121  0.36157  1.0000
  H   H1299     1.0  0.60979  0.99265  0.38712  1.0000
  C   C812      1.0  0.52494  0.48462  0.39443  1.0000
  C   C813      1.0  0.48005  0.98675  0.37180  1.0000
  C   C814      1.0  0.38855  0.98685  0.39181  1.0000
  C   C815      1.0  0.32361  0.04769  0.38091  1.0000
  H   H1300     1.0  0.35967  0.48540  0.35269  1.0000
  S   S320      1.0  0.42191  0.23673  0.70859  1.0000
  Fe  Fe162     1.0  0.60766  0.24227  0.70284  1.0000
  S   S321      1.0  0.64145  0.23457  0.70397  1.0000
  S   S322      1.0  0.59762  0.24682  0.67820  1.0000
  Fe  Fe163     1.0  0.47125  0.23384  0.62310  1.0000
  S   S323      1.0  0.48837  0.20265  0.62988  1.0000
  S   S324      1.0  0.43842  0.24311  0.63333  1.0000
  Fe  Fe164     1.0  0.50734  0.24841  0.59989  1.0000
  S   S325      1.0  0.52727  0.21809  0.60558  1.0000
  S   S326      1.0  0.51676  0.27212  0.57861  1.0000
  Fe  Fe165     1.0  0.49990  0.20329  0.60368  1.0000
  S   S327      1.0  0.50531  0.17750  0.58797  1.0000
  Fe  Fe166     1.0  0.51392  0.22011  0.63124  1.0000
  S   S328      1.0  0.52793  0.21048  0.65437  1.0000
  S   S329      1.0  0.48079  0.23347  0.59682  1.0000
  S   S330      1.0  0.49590  0.25144  0.62572  1.0000
  Fe  Fe167     1.0  0.45415  0.09337  0.55302  1.0000
  S   S331      1.0  0.46269  0.05992  0.56226  1.0000
  S   S332      1.0  0.44926  0.11778  0.57000  1.0000
  Fe  Fe168     1.0  0.44330  0.08239  0.52182  1.0000
  S   S333      1.0  0.45060  0.04852  0.52933  1.0000
  S   S334      1.0  0.42981  0.09662  0.49913  1.0000
  Fe  Fe169     1.0  0.43433  0.05490  0.55344  1.0000
  S   S335      1.0  0.41407  0.03353  0.56943  1.0000
  Fe  Fe170     1.0  0.47815  0.05645  0.53739  1.0000
  S   S336      1.0  0.50935  0.03846  0.53050  1.0000
  S   S337      1.0  0.42487  0.08819  0.54542  1.0000
  S   S338      1.0  0.47182  0.09038  0.52852  1.0000
  Fe  Fe171     1.0  0.55053  0.38559  0.55685  1.0000
  S   S339      1.0  0.58100  0.39435  0.54437  1.0000
  S   S340      1.0  0.54391  0.35980  0.57735  1.0000
  Fe  Fe172     1.0  0.52622  0.42325  0.54025  1.0000
  S   S341      1.0  0.55407  0.43504  0.52638  1.0000
  S   S342      1.0  0.49356  0.43697  0.53714  1.0000
  Fe  Fe173     1.0  0.56529  0.40261  0.52231  1.0000
  S   S343      1.0  0.58191  0.39880  0.49751  1.0000
  Fe  Fe174     1.0  0.56825  0.42651  0.54909  1.0000
  S   S344      1.0  0.58514  0.45181  0.55307  1.0000
  S   S345      1.0  0.53620  0.39123  0.53431  1.0000
  S   S346      1.0  0.53911  0.41737  0.56334  1.0000
  C   C816      1.0  0.48342  0.46070  0.54373  1.0000
  C   C817      1.0  0.49310  0.46885  0.55395  1.0000
  H   H1301     1.0  0.53004  0.20539  0.53410  1.0000
  H   H1302     1.0  0.49390  0.23106  0.67369  1.0000
  H   H1303     1.0  0.42087  0.17484  0.67066  1.0000
  H   H1304     1.0  0.50719  0.46068  0.55784  1.0000
  C   C818      1.0  0.35706  0.01766  0.57645  1.0000
  C   C819      1.0  0.37987  0.17969  0.67694  1.0000
  C   C820      1.0  0.56760  0.39663  0.48254  1.0000
  H   H1305     1.0  0.37595  0.02667  0.53677  1.0000
  C   C821      1.0  0.55107  0.38565  0.48594  1.0000
  C   C822      1.0  0.62539  0.47045  0.57634  1.0000
  H   H1306     1.0  0.54597  0.37956  0.49815  1.0000
  C   C823      1.0  0.60310  0.45162  0.56616  1.0000
  C   C824      1.0  0.61010  0.43394  0.57610  1.0000
  C   C825      1.0  0.62460  0.43457  0.58614  1.0000
  C   C826      1.0  0.63239  0.45278  0.58625  1.0000
  C   C827      1.0  0.61084  0.46985  0.56635  1.0000
  H   H1307     1.0  0.60423  0.41984  0.57610  1.0000
  C   C828      1.0  0.41334  0.18983  0.67427  1.0000
  N   N80       1.0  0.38902  0.04271  0.51462  1.0000
  C   C829      1.0  0.51415  0.01182  0.53682  1.0000
  C   C830      1.0  0.50258  0.00247  0.55023  1.0000
  C   C831      1.0  0.34532  0.03494  0.56925  1.0000
  H   H1308     1.0  0.38707  0.00404  0.58203  1.0000
  H   H1309     1.0  0.60822  0.20514  0.69377  1.0000
  H   H1310     1.0  0.49000  0.01155  0.55668  1.0000
  C   C832      1.0  0.49369  0.27483  0.68896  1.0000
  H   H1311     1.0  0.53936  0.00702  0.51811  1.0000
  C   C833      1.0  0.43012  0.08273  0.48316  1.0000
  C   C834      1.0  0.43845  0.06203  0.48391  1.0000
  H   H1312     1.0  0.44590  0.05447  0.49402  1.0000
  C   C835      1.0  0.38756  0.03458  0.56927  1.0000
  C   C836      1.0  0.37808  0.01753  0.57650  1.0000
  C   C837      1.0  0.35474  0.05215  0.56230  1.0000
  C   C838      1.0  0.37574  0.05201  0.56233  1.0000
  N   N81       1.0  0.62709  0.18420  0.67918  1.0000
  H   H1313     1.0  0.38273  0.06540  0.55700  1.0000
  C   C839      1.0  0.52386  0.29663  0.57859  1.0000
  C   C840      1.0  0.52586  0.30370  0.59265  1.0000
  C   C841      1.0  0.53203  0.32302  0.59200  1.0000
  C   C842      1.0  0.53620  0.33558  0.57734  1.0000
  C   C843      1.0  0.53388  0.32867  0.56330  1.0000
  C   C844      1.0  0.52782  0.30930  0.56394  1.0000
  H   H1314     1.0  0.52295  0.29416  0.60400  1.0000
  H   H1315     1.0  0.53380  0.32817  0.60293  1.0000
  H   H1316     1.0  0.53708  0.33809  0.55192  1.0000
  H   H1317     1.0  0.52637  0.30402  0.55298  1.0000
  C   C845      1.0  0.48930  0.16119  0.58310  1.0000
  C   C846      1.0  0.49772  0.14707  0.57241  1.0000
  C   C847      1.0  0.48578  0.13383  0.56815  1.0000
  C   C848      1.0  0.46514  0.13446  0.57456  1.0000
  C   C849      1.0  0.45668  0.14866  0.58519  1.0000
  C   C850      1.0  0.46861  0.16196  0.58940  1.0000
  H   H1318     1.0  0.51369  0.14622  0.56747  1.0000
  H   H1319     1.0  0.49260  0.12302  0.56001  1.0000
  H   H1320     1.0  0.44075  0.14940  0.59022  1.0000
  H   H1321     1.0  0.46181  0.17270  0.59759  1.0000
  C   C851      1.0  0.57749  0.23727  0.67213  1.0000
  C   C852      1.0  0.56622  0.22337  0.68231  1.0000
  C   C853      1.0  0.55126  0.21515  0.67660  1.0000
  C   C854      1.0  0.54720  0.22098  0.66078  1.0000
  C   C855      1.0  0.55825  0.23509  0.65067  1.0000
  C   C856      1.0  0.57340  0.24309  0.65632  1.0000
  H   H1322     1.0  0.56920  0.21875  0.69450  1.0000
  H   H1323     1.0  0.54277  0.20422  0.68449  1.0000
  H   H1324     1.0  0.55531  0.23968  0.63846  1.0000
  H   H1325     1.0  0.58211  0.25378  0.64834  1.0000
  C   C857      1.0  0.42565  0.23787  0.68772  1.0000
  C   C858      1.0  0.41060  0.24786  0.67846  1.0000
  C   C859      1.0  0.41452  0.24917  0.66175  1.0000
  C   C860      1.0  0.43355  0.24072  0.65426  1.0000
  C   C861      1.0  0.44847  0.23050  0.66356  1.0000
  C   C862      1.0  0.44450  0.22911  0.68024  1.0000
  H   H1326     1.0  0.39609  0.25488  0.68416  1.0000
  H   H1327     1.0  0.40295  0.25712  0.65457  1.0000
  H   H1328     1.0  0.46307  0.22370  0.65788  1.0000
  H   H1329     1.0  0.45599  0.22097  0.68739  1.0000
  H   H1330     1.0  0.35922  0.04808  0.52833  1.0000
  N   N82       1.0  0.51124  0.22438  0.55032  1.0000
  C   C863      1.0  0.52523  0.21862  0.56248  1.0000
  C   C864      1.0  0.52284  0.22162  0.53445  1.0000
  C   C865      1.0  0.50195  0.24605  0.55037  1.0000
  C   C866      1.0  0.49499  0.21119  0.55403  1.0000
  H   H1331     1.0  0.53253  0.20233  0.56290  1.0000
  H   H1332     1.0  0.51686  0.22029  0.57455  1.0000
  H   H1333     1.0  0.53746  0.22850  0.56035  1.0000
  H   H1334     1.0  0.51276  0.22581  0.52496  1.0000
  H   H1335     1.0  0.53525  0.23132  0.53135  1.0000
  H   H1336     1.0  0.49134  0.25107  0.54132  1.0000
  H   H1337     1.0  0.51381  0.25641  0.54792  1.0000
  H   H1338     1.0  0.49313  0.24864  0.56222  1.0000
  H   H1339     1.0  0.48404  0.21509  0.54519  1.0000
  H   H1340     1.0  0.48610  0.21269  0.56605  1.0000
  H   H1341     1.0  0.50148  0.19469  0.55421  1.0000
  H   H1342     1.0  0.60537  0.48364  0.55880  1.0000
  C   C867      1.0  0.61130  0.18505  0.66881  1.0000
  H   H1343     1.0  0.57893  0.99787  0.56255  1.0000
  H   H1344     1.0  0.38373  0.17248  0.70824  1.0000
  H   H1345     1.0  0.65029  0.41361  0.65256  1.0000
  H   H1346     1.0  0.37576  0.04393  0.49319  1.0000
  H   H1347     1.0  0.38624  0.06997  0.52555  1.0000
  H   H1348     1.0  0.62979  0.42084  0.59386  1.0000
  H   H1349     1.0  0.32957  0.28452  0.71709  1.0000
  H   H1350     1.0  0.45747  0.46511  0.53100  1.0000
  C   C868      1.0  0.47517  0.26931  0.66853  1.0000
  H   H1351     1.0  0.60282  0.20083  0.66658  1.0000
  C   C869      1.0  0.46511  0.47144  0.53882  1.0000
  H   H1352     1.0  0.65330  0.19876  0.67922  1.0000
  H   H1353     1.0  0.64868  0.19572  0.65977  1.0000
  H   H1354     1.0  0.63283  0.21501  0.67037  1.0000
  H   H1355     1.0  0.61813  0.18051  0.65697  1.0000
  H   H1356     1.0  0.48202  0.23819  0.69269  1.0000
  H   H1357     1.0  0.60122  0.99558  0.52010  1.0000
  N   N83       1.0  0.39392  0.18792  0.68499  1.0000
  C   C870      1.0  0.63867  0.16330  0.68123  1.0000
  C   C871      1.0  0.61721  0.18953  0.69493  1.0000
  H   H1358     1.0  0.40337  0.04852  0.53374  1.0000
  C   C872      1.0  0.38438  0.20829  0.68908  1.0000
  S   S347      1.0  0.60443  0.26875  0.71646  1.0000
  H   H1359     1.0  0.47384  0.28578  0.66336  1.0000
  H   H1360     1.0  0.52646  0.26094  0.66946  1.0000
  N   N84       1.0  0.49393  0.26253  0.67610  1.0000
  C   C873      1.0  0.40480  0.02513  0.51110  1.0000
  H   H1361     1.0  0.51157  0.28142  0.65814  1.0000
  H   H1362     1.0  0.39526  0.05981  0.49127  1.0000
  C   C874      1.0  0.58004  0.99792  0.54946  1.0000
  H   H1363     1.0  0.50754  0.26989  0.69505  1.0000
  C   C875      1.0  0.64111  0.19903  0.67179  1.0000
  H   H1364     1.0  0.64741  0.44701  0.55219  1.0000
  H   H1365     1.0  0.41835  0.03028  0.50312  1.0000
  H   H1366     1.0  0.51319  0.25548  0.65454  1.0000
  H   H1367     1.0  0.49328  0.29139  0.68421  1.0000
  H   H1368     1.0  0.46119  0.26714  0.67725  1.0000
  H   H1369     1.0  0.39887  0.01434  0.50505  1.0000
  H   H1370     1.0  0.60661  0.17865  0.70101  1.0000
  H   H1371     1.0  0.48007  0.27327  0.69819  1.0000
  H   H1372     1.0  0.62066  0.99618  0.54240  1.0000
  C   C876      1.0  0.53049  0.99989  0.52858  1.0000
  C   C877      1.0  0.51205  0.26528  0.66404  1.0000
  H   H1373     1.0  0.41082  0.06272  0.51471  1.0000
  H   H1374     1.0  0.37625  0.19003  0.66588  1.0000
  C   C878      1.0  0.39769  0.05658  0.52254  1.0000
  H   H1375     1.0  0.41029  0.01645  0.52221  1.0000
  C   C879      1.0  0.37138  0.03521  0.52530  1.0000
  H   H1376     1.0  0.34996  0.00435  0.58187  1.0000
  N   N85       1.0  0.40895  0.07926  0.60001  1.0000
  C   C880      1.0  0.39548  0.06452  0.60872  1.0000
  C   C881      1.0  0.43006  0.06852  0.59707  1.0000
  C   C882      1.0  0.40862  0.09588  0.60949  1.0000
  C   C883      1.0  0.40174  0.08811  0.58462  1.0000
  H   H1377     1.0  0.37939  0.07205  0.61110  1.0000
  H   H1378     1.0  0.40052  0.05739  0.62036  1.0000
  H   H1379     1.0  0.39551  0.05189  0.60168  1.0000
  H   H1380     1.0  0.44059  0.07915  0.59031  1.0000
  H   H1381     1.0  0.43614  0.06180  0.60840  1.0000
  H   H1382     1.0  0.43086  0.05577  0.59002  1.0000
  H   H1383     1.0  0.41879  0.10711  0.60307  1.0000
  H   H1384     1.0  0.41405  0.08980  0.62119  1.0000
  H   H1385     1.0  0.39297  0.10446  0.61184  1.0000
  H   H1386     1.0  0.41149  0.09941  0.57776  1.0000
  H   H1387     1.0  0.38578  0.09617  0.58633  1.0000
  H   H1388     1.0  0.40207  0.07599  0.57709  1.0000
  H   H1389     1.0  0.37051  0.06738  0.50180  1.0000
  N   N86       1.0  0.48197  0.38601  0.57476  1.0000
  C   C884      1.0  0.46115  0.39645  0.57256  1.0000
  C   C885      1.0  0.49255  0.37954  0.55952  1.0000
  C   C886      1.0  0.48093  0.36780  0.58708  1.0000
  C   C887      1.0  0.49338  0.40030  0.57982  1.0000
  H   H1390     1.0  0.45271  0.40164  0.58381  1.0000
  H   H1391     1.0  0.45211  0.38619  0.56863  1.0000
  H   H1392     1.0  0.46169  0.41029  0.56332  1.0000
  H   H1393     1.0  0.48456  0.36853  0.55541  1.0000
  H   H1394     1.0  0.49349  0.39290  0.54992  1.0000
  H   H1395     1.0  0.50841  0.37187  0.56070  1.0000
  H   H1396     1.0  0.49654  0.35977  0.58893  1.0000
  H   H1397     1.0  0.47265  0.35652  0.58359  1.0000
  H   H1398     1.0  0.47306  0.37205  0.59877  1.0000
  H   H1399     1.0  0.50910  0.39282  0.58177  1.0000
  H   H1400     1.0  0.48574  0.40574  0.59118  1.0000
  H   H1401     1.0  0.49477  0.41408  0.57066  1.0000
  H   H1402     1.0  0.34569  0.06564  0.55682  1.0000
  H   H1403     1.0  0.40498  0.15833  0.69717  1.0000
  H   H1404     1.0  0.52946  0.37257  0.47611  1.0000
  C   C888      1.0  0.38230  0.05392  0.49958  1.0000
  H   H1405     1.0  0.41096  0.20073  0.66319  1.0000
  C   C889      1.0  0.39803  0.17396  0.69975  1.0000
  H   H1406     1.0  0.56439  0.99743  0.54686  1.0000
  H   H1407     1.0  0.64874  0.41662  0.63156  1.0000
  H   H1408     1.0  0.36513  0.17801  0.68488  1.0000
  H   H1409     1.0  0.58452  0.01284  0.54338  1.0000
  H   H1410     1.0  0.38655  0.16434  0.67360  1.0000
  H   H1411     1.0  0.47498  0.26047  0.65865  1.0000
  H   H1412     1.0  0.59985  0.17478  0.67430  1.0000
  H   H1413     1.0  0.36901  0.20777  0.69612  1.0000
  H   H1414     1.0  0.64685  0.15891  0.66966  1.0000
  H   H1415     1.0  0.50939  0.23467  0.68784  1.0000
  H   H1416     1.0  0.42431  0.19570  0.68019  1.0000
  C   C890      1.0  0.49483  0.24068  0.68291  1.0000
  H   H1417     1.0  0.36437  0.02474  0.51972  1.0000
  H   H1418     1.0  0.39370  0.21421  0.69641  1.0000
  H   H1419     1.0  0.40869  0.17969  0.70608  1.0000
  H   H1420     1.0  0.38243  0.21969  0.67823  1.0000
  H   H1421     1.0  0.63087  0.48468  0.57658  1.0000
  H   H1422     1.0  0.65254  0.45402  0.53104  1.0000
  C   C891      1.0  0.54181  0.38164  0.47343  1.0000
  H   H1423     1.0  0.62870  0.18929  0.70302  1.0000
  S   S348      1.0  0.65073  0.45268  0.59901  1.0000
  H   H1424     1.0  0.62843  0.15175  0.68654  1.0000
  H   H1425     1.0  0.65030  0.16201  0.68938  1.0000
  S   S349      1.0  0.34169  0.18792  0.71839  1.0000
  C   C892      1.0  0.43701  0.05101  0.47160  1.0000
  S   S350      1.0  0.35895  0.23865  0.71856  1.0000
  H   H1426     1.0  0.44326  0.03493  0.47238  1.0000
  Fe  Fe175     1.0  0.63747  0.25955  0.71947  1.0000
  Fe  Fe176     1.0  0.48366  0.26523  0.85535  1.0000
  S   S351      1.0  0.50163  0.23449  0.86271  1.0000
  S   S352      1.0  0.48876  0.29542  0.86221  1.0000
  Fe  Fe177     1.0  0.45967  0.24704  0.83417  1.0000
  S   S353      1.0  0.47554  0.21515  0.84067  1.0000
  S   S354      1.0  0.43882  0.25637  0.81478  1.0000
  Fe  Fe178     1.0  0.47146  0.22283  0.86568  1.0000
  S   S355      1.0  0.45809  0.20471  0.88866  1.0000
  Fe  Fe179     1.0  0.50418  0.22984  0.83691  1.0000
  S   S356      1.0  0.53233  0.21465  0.82214  1.0000
  S   S357      1.0  0.45325  0.25396  0.85949  1.0000
  S   S358      1.0  0.48850  0.26137  0.82930  1.0000
  N   N87       1.0  0.50246  0.17933  0.93823  1.0000
  H   H1427     1.0  0.44237  0.48105  0.94564  1.0000
  Fe  Fe180     1.0  0.48387  0.38174  0.94809  1.0000
  S   S359      1.0  0.51108  0.36980  0.93124  1.0000
  C   C893      1.0  0.65444  0.05586  0.92577  1.0000
  Fe  Fe181     1.0  0.50349  0.33860  0.94224  1.0000
  S   S360      1.0  0.50027  0.31026  0.93173  1.0000
  Fe  Fe182     1.0  0.52889  0.36850  0.95170  1.0000
  S   S361      1.0  0.56079  0.37769  0.94847  1.0000
  S   S362      1.0  0.64716  0.18143  0.73312  1.0000
  H   H1428     1.0  0.50803  0.15323  0.92558  1.0000
  C   C894      1.0  0.51607  0.16971  0.95017  1.0000
  H   H1429     1.0  0.51557  0.15294  0.95315  1.0000
  Fe  Fe183     1.0  0.48532  0.10342  0.94278  1.0000
  S   S363      1.0  0.38924  0.01393  0.94930  1.0000
  S   S364      1.0  0.48972  0.11285  0.91605  1.0000
  H   H1430     1.0  0.49335  0.20922  0.92562  1.0000
  C   C895      1.0  0.36597  0.26600  0.80639  1.0000
  H   H1431     1.0  0.58333  0.29927  0.74183  1.0000
  C   C896      1.0  0.41947  0.03380  0.95464  1.0000
  S   S365      1.0  0.47989  0.07144  0.95334  1.0000
  C   C897      1.0  0.56990  0.39315  0.95999  1.0000
  S   S366      1.0  0.38975  0.20047  0.73558  1.0000
  Fe  Fe184     1.0  0.35073  0.24908  0.74270  1.0000
  S   S367      1.0  0.34662  0.21775  0.75590  1.0000
  Fe  Fe185     1.0  0.38013  0.21455  0.75824  1.0000
  S   S368      1.0  0.39364  0.20204  0.78130  1.0000
  Fe  Fe186     1.0  0.35662  0.20684  0.73197  1.0000
  H   H1432     1.0  0.57305  0.46857  0.94527  1.0000
  S   S369      1.0  0.38348  0.24639  0.74654  1.0000
  Fe  Fe187     1.0  0.59790  0.24631  0.73858  1.0000
  H   H1433     1.0  0.45160  0.10959  0.90228  1.0000
  S   S370      1.0  0.57175  0.25990  0.75596  1.0000
  H   H1434     1.0  0.43268  0.08828  0.94376  1.0000
  C   C898      1.0  0.50899  0.16995  0.92343  1.0000
  H   H1435     1.0  0.48449  0.27005  0.89348  1.0000
  S   S371      1.0  0.63093  0.23858  0.74244  1.0000
  H   H1436     1.0  0.40213  0.09155  0.91990  1.0000
  Fe  Fe188     1.0  0.35098  0.45890  0.96117  1.0000
  S   S372      1.0  0.59860  0.22040  0.72469  1.0000
  H   H1437     1.0  0.58933  0.45972  0.96047  1.0000
  S   S373      1.0  0.50997  0.10398  0.95750  1.0000
  H   H1438     1.0  0.51924  0.20460  0.92976  1.0000
  C   C899      1.0  0.54058  0.48444  0.96536  1.0000
  H   H1439     1.0  0.33787  0.16030  0.74879  1.0000
  H   H1440     1.0  0.41334  0.06854  0.93103  1.0000
  H   H1441     1.0  0.47985  0.15948  0.94711  1.0000
  H   H1442     1.0  0.62748  0.28499  0.74338  1.0000
  C   C900      1.0  0.57312  0.46397  0.95832  1.0000
  N   N88       1.0  0.42393  0.47522  0.96845  1.0000
  H   H1443     1.0  0.60791  0.27455  0.75754  1.0000
  H   H1444     1.0  0.43768  0.09538  0.89289  1.0000
  N   N89       1.0  0.35551  0.26904  0.79209  1.0000
  H   H1445     1.0  0.36862  0.28082  0.80938  1.0000
  H   H1446     1.0  0.42870  0.44298  0.96712  1.0000
  C   C901      1.0  0.56051  0.05722  0.96496  1.0000
  H   H1447     1.0  0.62782  0.28400  0.76443  1.0000
  H   H1448     1.0  0.32533  0.27369  0.80524  1.0000
  H   H1449     1.0  0.46712  0.07763  0.91736  1.0000
  H   H1450     1.0  0.36800  0.23942  0.78545  1.0000
  H   H1451     1.0  0.49923  0.17710  0.91408  1.0000
  C   C902      1.0  0.39917  0.03024  0.95948  1.0000
  H   H1452     1.0  0.42435  0.11583  0.90353  1.0000
  H   H1453     1.0  0.45362  0.06325  0.90775  1.0000
  H   H1454     1.0  0.59901  0.39299  0.94498  1.0000
  C   C903      1.0  0.43718  0.10287  0.90363  1.0000
  S   S374      1.0  0.52394  0.33598  0.96111  1.0000
  C   C904      1.0  0.43611  0.41280  0.94582  1.0000
  C   C905      1.0  0.42328  0.42923  0.93853  1.0000
  C   C906      1.0  0.40273  0.43391  0.94512  1.0000
  C   C907      1.0  0.39479  0.42202  0.95897  1.0000
  H   H1455     1.0  0.42898  0.02545  0.94568  1.0000
  C   C908      1.0  0.42818  0.40076  0.95959  1.0000
  H   H1456     1.0  0.42930  0.43852  0.92781  1.0000
  H   H1457     1.0  0.39300  0.44660  0.93941  1.0000
  H   H1458     1.0  0.36052  0.28210  0.76739  1.0000
  H   H1459     1.0  0.42093  0.11144  0.93306  1.0000
  C   C909      1.0  0.42789  0.24007  0.80535  1.0000
  C   C910      1.0  0.42347  0.22082  0.81289  1.0000
  C   C911      1.0  0.41335  0.20911  0.80529  1.0000
  C   C912      1.0  0.40775  0.21642  0.79003  1.0000
  C   C913      1.0  0.41293  0.23530  0.78229  1.0000
  C   C914      1.0  0.42265  0.24717  0.78999  1.0000
  H   H1460     1.0  0.42728  0.21523  0.82478  1.0000
  H   H1461     1.0  0.40950  0.19449  0.81138  1.0000
  H   H1462     1.0  0.40933  0.24087  0.77041  1.0000
  H   H1463     1.0  0.42610  0.26198  0.78402  1.0000
  C   C915      1.0  0.46673  0.17890  0.89551  1.0000
  C   C916      1.0  0.48259  0.16715  0.88683  1.0000
  C   C917      1.0  0.48937  0.14677  0.89313  1.0000
  C   C918      1.0  0.48062  0.13823  0.90824  1.0000
  C   C919      1.0  0.46469  0.14997  0.91683  1.0000
  C   C920      1.0  0.45766  0.17013  0.91041  1.0000
  H   H1464     1.0  0.48964  0.17378  0.87531  1.0000
  H   H1465     1.0  0.50165  0.13774  0.88637  1.0000
  H   H1466     1.0  0.45761  0.14351  0.92834  1.0000
  H   H1467     1.0  0.44523  0.17912  0.91708  1.0000
  C   C921      1.0  0.54423  0.22773  0.80428  1.0000
  C   C922      1.0  0.55973  0.21682  0.79450  1.0000
  C   C923      1.0  0.56852  0.22645  0.77970  1.0000
  C   C924      1.0  0.56182  0.24709  0.77459  1.0000
  C   C925      1.0  0.54650  0.25803  0.78444  1.0000
  C   C926      1.0  0.53783  0.24845  0.79924  1.0000
  H   H1468     1.0  0.56485  0.20080  0.79832  1.0000
  H   H1469     1.0  0.58036  0.21787  0.77225  1.0000
  H   H1470     1.0  0.54129  0.27403  0.78063  1.0000
  H   H1471     1.0  0.52617  0.25714  0.80671  1.0000
  C   C927      1.0  0.49252  0.29903  0.88153  1.0000
  C   C928      1.0  0.49862  0.31744  0.88359  1.0000
  C   C929      1.0  0.50147  0.32103  0.89877  1.0000
  C   C930      1.0  0.49784  0.30637  0.91215  1.0000
  C   C931      1.0  0.49181  0.28796  0.91008  1.0000
  C   C932      1.0  0.48920  0.28426  0.89488  1.0000
  H   H1472     1.0  0.50147  0.32884  0.87330  1.0000
  H   H1473     1.0  0.50680  0.33495  0.90005  1.0000
  H   H1474     1.0  0.48907  0.27646  0.92032  1.0000
  H   H1475     1.0  0.41921  0.47128  0.94501  1.0000
  N   N90       1.0  0.49123  0.21712  0.78766  1.0000
  C   C933      1.0  0.49200  0.23632  0.79377  1.0000
  C   C934      1.0  0.47904  0.22171  0.77428  1.0000
  C   C935      1.0  0.48165  0.20282  0.80057  1.0000
  C   C936      1.0  0.51222  0.20769  0.78210  1.0000
  H   H1476     1.0  0.49979  0.23322  0.80457  1.0000
  H   H1477     1.0  0.50035  0.24703  0.78477  1.0000
  H   H1478     1.0  0.47813  0.20760  0.76931  1.0000
  H   H1479     1.0  0.46309  0.22867  0.77823  1.0000
  H   H1480     1.0  0.48574  0.23268  0.76444  1.0000
  H   H1481     1.0  0.47988  0.18852  0.79626  1.0000
  H   H1482     1.0  0.46623  0.20990  0.80567  1.0000
  H   H1483     1.0  0.49101  0.19837  0.81054  1.0000
  H   H1484     1.0  0.51224  0.19350  0.77694  1.0000
  H   H1485     1.0  0.52147  0.20340  0.79214  1.0000
  H   H1486     1.0  0.52037  0.21840  0.77291  1.0000
  H   H1487     1.0  0.41584  0.07083  0.90972  1.0000
  S   S375      1.0  0.47529  0.35075  0.95796  1.0000
  C   C937      1.0  0.42757  0.04801  0.96130  1.0000
  C   C938      1.0  0.42607  0.48146  0.95098  1.0000
  H   H1488     1.0  0.52501  0.17184  0.91834  1.0000
  H   H1489     1.0  0.47645  0.24450  0.79723  1.0000
  H   H1490     1.0  0.47097  0.37726  0.91757  1.0000
  C   C939      1.0  0.36786  0.27978  0.77843  1.0000
  C   C940      1.0  0.59819  0.40911  0.96497  1.0000
  H   H1491     1.0  0.43744  0.39248  0.91029  1.0000
  S   S376      1.0  0.46014  0.11830  0.95943  1.0000
  H   H1492     1.0  0.43981  0.36992  0.93614  1.0000
  H   H1493     1.0  0.49855  0.20915  0.94555  1.0000
  H   H1494     1.0  0.34470  0.25057  0.77789  1.0000
  H   H1495     1.0  0.55198  0.07176  0.96069  1.0000
  C   C941      1.0  0.45245  0.07155  0.91816  1.0000
  C   C942      1.0  0.41571  0.07942  0.91980  1.0000
  S   S377      1.0  0.32801  0.27528  0.75172  1.0000
  H   H1496     1.0  0.38116  0.25629  0.80455  1.0000
  H   H1497     1.0  0.45116  0.06009  0.92911  1.0000
  N   N91       1.0  0.44864  0.36023  0.91300  1.0000
  C   C943      1.0  0.47004  0.36334  0.91238  1.0000
  C   C944      1.0  0.44819  0.34216  0.90525  1.0000
  C   C945      1.0  0.43731  0.37866  0.90461  1.0000
  C   C946      1.0  0.43915  0.35679  0.92983  1.0000
  H   H1498     1.0  0.47800  0.36519  0.89991  1.0000
  H   H1499     1.0  0.47879  0.35012  0.91922  1.0000
  H   H1500     1.0  0.45654  0.32801  0.91144  1.0000
  H   H1501     1.0  0.43229  0.33938  0.90533  1.0000
  H   H1502     1.0  0.45564  0.34400  0.89261  1.0000
  H   H1503     1.0  0.42106  0.37691  0.90482  1.0000
  H   H1504     1.0  0.44420  0.38180  0.89190  1.0000
  H   H1505     1.0  0.42281  0.35490  0.93080  1.0000
  H   H1506     1.0  0.44713  0.34275  0.93643  1.0000
  N   N92       1.0  0.60531  0.30735  0.75445  1.0000
  C   C947      1.0  0.59103  0.30832  0.76946  1.0000
  C   C948      1.0  0.59361  0.31101  0.74080  1.0000
  C   C949      1.0  0.61771  0.28685  0.75498  1.0000
  C   C950      1.0  0.61893  0.32307  0.75249  1.0000
  H   H1507     1.0  0.58139  0.32358  0.76956  1.0000
  S   S378      1.0  0.50221  0.38268  0.96763  1.0000
  H   H1508     1.0  0.58054  0.29660  0.77117  1.0000
  H   H1509     1.0  0.32705  0.28407  0.78447  1.0000
  S   S379      1.0  0.46201  0.40823  0.93754  1.0000
  H   H1510     1.0  0.58396  0.32628  0.74005  1.0000
  S   S380      1.0  0.35838  0.48009  0.93859  1.0000
  H   H1511     1.0  0.35695  0.25821  0.81700  1.0000
  Fe  Fe189     1.0  0.36350  0.99470  0.95856  1.0000
  H   H1512     1.0  0.62836  0.32056  0.76239  1.0000
  H   H1513     1.0  0.61012  0.33875  0.75223  1.0000
  H   H1514     1.0  0.62972  0.32279  0.74116  1.0000
  C   C951      1.0  0.58985  0.39801  0.95561  1.0000
  H   H1515     1.0  0.44329  0.05027  0.95767  1.0000
  H   H1516     1.0  0.51142  0.17625  0.96158  1.0000
  H   H1517     1.0  0.53221  0.17187  0.94582  1.0000
  S   S381      1.0  0.36914  0.42766  0.96772  1.0000
  H   H1518     1.0  0.53641  0.99456  0.96595  1.0000
  C   C952      1.0  0.50345  0.20155  0.93465  1.0000
  C   C953      1.0  0.40753  0.40531  0.96608  1.0000
  H   H1519     1.0  0.47045  0.18363  0.93616  1.0000
  N   N93       1.0  0.43484  0.08817  0.91847  1.0000
  H   H1520     1.0  0.44825  0.10585  0.93152  1.0000
  H   H1521     1.0  0.39523  0.46449  0.96934  1.0000
  C   C954      1.0  0.48125  0.17608  0.94466  1.0000
  C   C955      1.0  0.43413  0.09891  0.93232  1.0000
  H   H1522     1.0  0.45157  0.45349  0.96696  1.0000
  H   H1523     1.0  0.36989  0.29513  0.78076  1.0000
  H   H1524     1.0  0.59937  0.30536  0.78001  1.0000
  Fe  Fe190     1.0  0.39145  0.23273  0.72371  1.0000
  H   H1525     1.0  0.64703  0.06454  0.91549  1.0000
  N   N94       1.0  0.56239  0.48045  0.96749  1.0000
  H   H1526     1.0  0.59002  0.06639  0.95562  1.0000
  H   H1527     1.0  0.38332  0.27094  0.77581  1.0000
  H   H1528     1.0  0.61360  0.41260  0.96150  1.0000
  S   S382      1.0  0.33086  0.00198  0.95349  1.0000
  Fe  Fe191     1.0  0.63239  0.21429  0.72665  1.0000
  H   H1529     1.0  0.34429  0.24005  0.79854  1.0000
  C   C956      1.0  0.58205  0.05413  0.96208  1.0000
  H   H1530     1.0  0.64068  0.03141  0.90931  1.0000
  S   S383      1.0  0.62987  0.46845  0.96474  1.0000
  C   C957      1.0  0.35299  0.24890  0.78836  1.0000
  S   S384      1.0  0.62018  0.03138  0.96368  1.0000
  H   H1531     1.0  0.47607  0.18237  0.95612  1.0000
  C   C958      1.0  0.64834  0.02366  0.91973  1.0000
  H   H1532     1.0  0.63625  0.02223  0.93027  1.0000
  C   C959      1.0  0.33069  0.15466  0.74030  1.0000
  H   H1533     1.0  0.60398  0.31028  0.72928  1.0000
  H   H1534     1.0  0.56588  0.44981  0.96183  1.0000
  Fe  Fe192     1.0  0.63582  0.99872  0.96866  1.0000
  H   H1535     1.0  0.43796  0.38809  0.96533  1.0000
  H   H1536     1.0  0.53310  0.47054  0.96976  1.0000
  C   C960      1.0  0.33520  0.28144  0.79515  1.0000
  H   H1537     1.0  0.64239  0.05516  0.93639  1.0000
  C   C961      1.0  0.33035  0.16533  0.72488  1.0000
  H   H1538     1.0  0.33646  0.29673  0.79807  1.0000
  C   C962      1.0  0.59320  0.03517  0.96738  1.0000
  H   H1539     1.0  0.65503  0.00788  0.91735  1.0000
  Fe  Fe193     1.0  0.50244  0.07318  0.96965  1.0000
  Fe  Fe194     1.0  0.52206  0.70210  0.10922  1.0000
  S   S385      1.0  0.49710  0.72901  0.10989  1.0000
  S   S386      1.0  0.53825  0.69089  0.13120  1.0000
  Fe  Fe195     1.0  0.51074  0.69141  0.07820  1.0000
  S   S387      1.0  0.48476  0.71746  0.07704  1.0000
  S   S388      1.0  0.52114  0.67014  0.05919  1.0000
  Fe  Fe196     1.0  0.50666  0.73581  0.08339  1.0000
  S   S389      1.0  0.50879  0.76901  0.07320  1.0000
  Fe  Fe197     1.0  0.47752  0.70845  0.10361  1.0000
  S   S390      1.0  0.44548  0.70549  0.11625  1.0000
  S   S391      1.0  0.53335  0.71040  0.08311  1.0000
  S   S392      1.0  0.50177  0.68088  0.10430  1.0000
  Fe  Fe198     1.0  0.50259  0.82872  0.98709  1.0000
  H   H1540     1.0  0.43059  0.80613  0.08167  1.0000
  S   S393      1.0  0.49100  0.80099  0.00231  1.0000
  H   H1541     1.0  0.45445  0.67725  0.15274  1.0000
  C   C963      1.0  0.50882  0.58059  0.03654  1.0000
  H   H1542     1.0  0.47427  0.77052  0.09713  1.0000
  S   S394      1.0  0.55693  0.86899  0.99221  1.0000
  C   C964      1.0  0.54614  0.53722  0.99830  1.0000
  S   S395      1.0  0.50114  0.86085  0.99231  1.0000
  Fe  Fe199     1.0  0.47335  0.60897  0.00452  1.0000
  S   S396      1.0  0.50441  0.60123  0.99091  1.0000
  S   S397      1.0  0.46465  0.63220  0.02210  1.0000
  Fe  Fe200     1.0  0.45448  0.57899  0.98897  1.0000
  H   H1543     1.0  0.46785  0.76082  0.07162  1.0000
  S   S398      1.0  0.42547  0.56398  0.99340  1.0000
  Fe  Fe201     1.0  0.49872  0.56857  0.99597  1.0000
  H   H1544     1.0  0.44293  0.76731  0.06566  1.0000
  H   H1545     1.0  0.50542  0.57062  0.02843  1.0000
  S   S399      1.0  0.46882  0.57608  0.01137  1.0000
  S   S400      1.0  0.45648  0.61287  0.98330  1.0000
  Fe  Fe202     1.0  0.38851  0.72387  0.20220  1.0000
  H   H1546     1.0  0.46364  0.69917  0.99313  1.0000
  S   S401      1.0  0.41641  0.73228  0.18504  1.0000
  C   C965      1.0  0.59738  0.90978  0.98513  1.0000
  H   H1547     1.0  0.55626  0.55546  0.04193  1.0000
  H   H1548     1.0  0.52851  0.60824  0.04452  1.0000
  C   C966      1.0  0.39651  0.54288  0.98725  1.0000
  H   H1549     1.0  0.49046  0.68956  0.99237  1.0000
  H   H1550     1.0  0.50364  0.69291  0.15795  1.0000
  Fe  Fe203     1.0  0.64082  0.74711  0.19799  1.0000
  H   H1551     1.0  0.53690  0.54711  0.03352  1.0000
  Fe  Fe204     1.0  0.61037  0.73365  0.17962  1.0000
  S   S402      1.0  0.59656  0.71469  0.20141  1.0000
  S   S403      1.0  0.60155  0.73671  0.15467  1.0000
  H   H1552     1.0  0.62022  0.68475  0.18312  1.0000
  Fe  Fe205     1.0  0.62898  0.70415  0.20630  1.0000
  S   S404      1.0  0.60959  0.76108  0.19196  1.0000
  S   S405      1.0  0.64277  0.72135  0.18361  1.0000
  H   H1553     1.0  0.45429  0.78547  0.10858  1.0000
  H   H1554     1.0  0.40478  0.88250  0.98738  1.0000
  H   H1555     1.0  0.55797  0.58425  0.02000  1.0000
  H   H1556     1.0  0.45312  0.73020  0.19933  1.0000
  H   H1557     1.0  0.60344  0.67356  0.17397  1.0000
  H   H1558     1.0  0.64461  0.68665  0.14103  1.0000
  C   C967      1.0  0.43231  0.48980  0.97592  1.0000
  H   H1559     1.0  0.42834  0.75008  0.09197  1.0000
  H   H1560     1.0  0.47144  0.67289  0.13485  1.0000
  N   N95       1.0  0.54461  0.96259  0.97464  1.0000
  H   H1561     1.0  0.55152  0.59125  0.04816  1.0000
  C   C968      1.0  0.32903  0.65904  0.19756  1.0000
  N   N96       1.0  0.53107  0.57890  0.03667  1.0000
  H   H1562     1.0  0.55225  0.51001  0.01515  1.0000
  H   H1563     1.0  0.44132  0.68129  0.98137  1.0000
  H   H1564     1.0  0.41504  0.78648  0.08251  1.0000
  S   S406      1.0  0.62360  0.97453  0.98723  1.0000
  C   C969      1.0  0.57530  0.54601  0.97915  1.0000
  H   H1565     1.0  0.39125  0.54205  0.99992  1.0000
  C   C970      1.0  0.48152  0.66306  0.17317  1.0000
  H   H1566     1.0  0.37310  0.52664  0.98289  1.0000
  H   H1567     1.0  0.53536  0.60199  0.01626  1.0000
  C   C971      1.0  0.57925  0.51560  0.99864  1.0000
  C   C972      1.0  0.53546  0.96494  0.99124  1.0000
  H   H1568     1.0  0.47850  0.75000  0.21704  1.0000
  C   C973      1.0  0.63281  0.68772  0.15170  1.0000
  N   N97       1.0  0.48617  0.66955  0.15582  1.0000
  C   C974      1.0  0.53488  0.59192  0.04790  1.0000
  C   C975      1.0  0.58765  0.52848  0.98560  1.0000
  H   H1569     1.0  0.51819  0.65766  0.15477  1.0000
  C   C976      1.0  0.58449  0.89516  0.99215  1.0000
  H   H1570     1.0  0.44230  0.87441  0.97923  1.0000
  H   H1571     1.0  0.58357  0.88978  0.00481  1.0000
  H   H1572     1.0  0.60628  0.91558  0.99237  1.0000
  S   S407      1.0  0.61311  0.52255  0.97663  1.0000
  H   H1573     1.0  0.46558  0.65162  0.14961  1.0000
  C   C977      1.0  0.43969  0.75597  0.09747  1.0000
  H   H1574     1.0  0.46761  0.67266  0.17844  1.0000
  H   H1575     1.0  0.33716  0.67120  0.19109  1.0000
  H   H1576     1.0  0.49439  0.66440  0.17948  1.0000
  H   H1577     1.0  0.41983  0.79375  0.10065  1.0000
  C   C978      1.0  0.43695  0.71374  0.13506  1.0000
  C   C979      1.0  0.44775  0.72614  0.14112  1.0000
  C   C980      1.0  0.44107  0.73185  0.15638  1.0000
  C   C981      1.0  0.42356  0.72522  0.16573  1.0000
  C   C982      1.0  0.41261  0.71299  0.15963  1.0000
  C   C983      1.0  0.41924  0.70736  0.14430  1.0000
  H   H1578     1.0  0.46126  0.73132  0.13411  1.0000
  H   H1579     1.0  0.44954  0.74144  0.16098  1.0000
  H   H1580     1.0  0.39906  0.70785  0.16672  1.0000
  H   H1581     1.0  0.41075  0.69782  0.13966  1.0000
  C   C984      1.0  0.55496  0.70460  0.13784  1.0000
  C   C985      1.0  0.56013  0.69890  0.15338  1.0000
  C   C986      1.0  0.57383  0.70903  0.15893  1.0000
  C   C987      1.0  0.58287  0.72466  0.14883  1.0000
  C   C988      1.0  0.57769  0.73034  0.13331  1.0000
  C   C989      1.0  0.56365  0.72053  0.12788  1.0000
  H   H1582     1.0  0.55348  0.68662  0.16119  1.0000
  H   H1583     1.0  0.57751  0.70469  0.17095  1.0000
  H   H1584     1.0  0.58462  0.74238  0.12540  1.0000
  H   H1585     1.0  0.55990  0.72502  0.11588  1.0000
  C   C990      1.0  0.49636  0.79244  0.02193  1.0000
  C   C991      1.0  0.49951  0.80601  0.03176  1.0000
  C   C992      1.0  0.50337  0.79864  0.04749  1.0000
  C   C993      1.0  0.50420  0.77771  0.05340  1.0000
  C   C994      1.0  0.50092  0.76420  0.04360  1.0000
  C   C995      1.0  0.49687  0.77159  0.02796  1.0000
  H   H1586     1.0  0.49857  0.82219  0.02731  1.0000
  H   H1587     1.0  0.50559  0.80920  0.05512  1.0000
  H   H1588     1.0  0.50155  0.74803  0.04803  1.0000
  H   H1589     1.0  0.49428  0.76106  0.02044  1.0000
  C   C996      1.0  0.50507  0.66040  0.04865  1.0000
  C   C997      1.0  0.51395  0.64961  0.03585  1.0000
  C   C998      1.0  0.50184  0.64090  0.02757  1.0000
  C   C999      1.0  0.48067  0.64284  0.03206  1.0000
  C   C1000     1.0  0.47176  0.65399  0.04461  1.0000
  C   C1001     1.0  0.48386  0.66269  0.05289  1.0000
  H   H1590     1.0  0.53032  0.64801  0.03236  1.0000
  H   H1591     1.0  0.50884  0.63283  0.01768  1.0000
  H   H1592     1.0  0.45537  0.65573  0.04808  1.0000
  H   H1593     1.0  0.47680  0.67098  0.06267  1.0000
  N   N98       1.0  0.44525  0.77552  0.08849  1.0000
  C   C1002     1.0  0.46162  0.75458  0.21836  1.0000
  C   C1003     1.0  0.55454  0.55030  0.98539  1.0000
  N   N99       1.0  0.63504  0.66906  0.16359  1.0000
  H   H1594     1.0  0.45768  0.76305  0.20669  1.0000
  H   H1595     1.0  0.45863  0.78689  0.06478  1.0000
  H   H1596     1.0  0.44813  0.70911  0.21445  1.0000
  H   H1597     1.0  0.48891  0.64652  0.97043  1.0000
  H   H1598     1.0  0.50194  0.59655  0.03241  1.0000
  C   C1004     1.0  0.53948  0.55735  0.04177  1.0000
  C   C1005     1.0  0.41292  0.89381  0.97962  1.0000
  S   S408      1.0  0.52019  0.54168  0.00642  1.0000
  H   H1599     1.0  0.50244  0.63999  0.15123  1.0000
  H   H1600     1.0  0.54279  0.95280  0.99992  1.0000
  H   H1601     1.0  0.50066  0.57588  0.04861  1.0000
  H   H1602     1.0  0.58866  0.50221  0.00382  1.0000
  C   C1006     1.0  0.33067  0.65253  0.21371  1.0000
  C   C1007     1.0  0.45668  0.72245  0.21130  1.0000
  C   C1008     1.0  0.63292  0.65112  0.15633  1.0000
  H   H1603     1.0  0.52763  0.58713  0.06027  1.0000
  H   H1604     1.0  0.47200  0.67529  0.00480  1.0000
  H   H1605     1.0  0.63445  0.63682  0.16504  1.0000
  H   H1606     1.0  0.45033  0.65742  0.99280  1.0000
  C   C1009     1.0  0.55862  0.52007  0.00505  1.0000
  C   C1010     1.0  0.65534  0.66610  0.16893  1.0000
  H   H1607     1.0  0.61773  0.65294  0.15218  1.0000
  H   H1608     1.0  0.54504  0.56360  0.98013  1.0000
  H   H1609     1.0  0.63429  0.70158  0.15679  1.0000
  H   H1610     1.0  0.48755  0.64536  0.99159  1.0000
  H   H1611     1.0  0.53720  0.98005  0.99427  1.0000
  C   C1011     1.0  0.61901  0.67132  0.17746  1.0000
  H   H1612     1.0  0.57471  0.95184  0.98106  1.0000
  C   C1012     1.0  0.65240  0.79881  0.20641  1.0000
  N   N100      1.0  0.56117  0.81136  0.02004  1.0000
  C   C1013     1.0  0.57617  0.81744  0.00615  1.0000
  C   C1014     1.0  0.55210  0.79391  0.01706  1.0000
  C   C1015     1.0  0.54491  0.82889  0.02258  1.0000
  C   C1016     1.0  0.57151  0.80524  0.03441  1.0000
  H   H1613     1.0  0.58312  0.83075  0.00792  1.0000
  H   H1614     1.0  0.56886  0.82227  0.99512  1.0000
  H   H1615     1.0  0.58875  0.80468  0.00382  1.0000
  H   H1616     1.0  0.54151  0.78824  0.02763  1.0000
  H   H1617     1.0  0.54311  0.79824  0.00687  1.0000
  H   H1618     1.0  0.56401  0.78076  0.01430  1.0000
  H   H1619     1.0  0.53380  0.82523  0.03336  1.0000
  H   H1620     1.0  0.53626  0.83345  0.01220  1.0000
  H   H1621     1.0  0.55133  0.84263  0.02412  1.0000
  H   H1622     1.0  0.58390  0.79206  0.03291  1.0000
  H   H1623     1.0  0.56059  0.80053  0.04512  1.0000
  H   H1624     1.0  0.57845  0.81808  0.03705  1.0000
  H   H1625     1.0  0.53210  0.49693  0.97206  1.0000
  Fe  Fe206     1.0  0.62998  0.49043  0.98194  1.0000
  H   H1626     1.0  0.50855  0.66093  0.13621  1.0000
  H   H1627     1.0  0.44879  0.49011  0.97147  1.0000
  H   H1628     1.0  0.61755  0.69061  0.14756  1.0000
  H   H1629     1.0  0.32451  0.56722  0.13354  1.0000
  H   H1630     1.0  0.49257  0.69675  0.13990  1.0000
  C   C1017     1.0  0.50459  0.65638  0.14928  1.0000
  C   C1018     1.0  0.46054  0.78236  0.09624  1.0000
  C   C1019     1.0  0.41343  0.55290  0.98064  1.0000
  C   C1020     1.0  0.42685  0.79118  0.08833  1.0000
  C   C1021     1.0  0.65362  0.81815  0.21034  1.0000
  S   S409      1.0  0.35639  0.72024  0.19964  1.0000
  H   H1631     1.0  0.56961  0.97890  0.97482  1.0000
  C   C1022     1.0  0.56670  0.96381  0.97266  1.0000
  H   H1632     1.0  0.53219  0.55160  0.05391  1.0000
  C   C1023     1.0  0.45396  0.77253  0.07192  1.0000
  H   H1633     1.0  0.43312  0.75749  0.11008  1.0000
  H   H1634     1.0  0.46598  0.79650  0.08934  1.0000
  H   H1635     1.0  0.62041  0.65772  0.18686  1.0000
  H   H1636     1.0  0.53826  0.57639  0.01166  1.0000
  H   H1637     1.0  0.45329  0.74390  0.09782  1.0000
  Fe  Fe207     1.0  0.59795  0.74097  0.21420  1.0000
  C   C1024     1.0  0.46866  0.66771  0.14794  1.0000
  H   H1638     1.0  0.47869  0.64685  0.17580  1.0000
  S   S410      1.0  0.53558  0.82567  0.97639  1.0000
  H   H1639     1.0  0.47668  0.70134  0.15830  1.0000
  C   C1025     1.0  0.54111  0.58572  0.02046  1.0000
  H   H1640     1.0  0.64482  0.64893  0.14584  1.0000
  C   C1026     1.0  0.48987  0.69108  0.15291  1.0000
  Fe  Fe208     1.0  0.35924  0.95000  0.97159  1.0000
  C   C1027     1.0  0.57286  0.88742  0.98290  1.0000
  Fe  Fe209     1.0  0.53361  0.85865  0.97985  1.0000
  S   S411      1.0  0.63859  0.67022  0.21371  1.0000
  H   H1641     1.0  0.63792  0.79304  0.20857  1.0000
  H   H1642     1.0  0.45221  0.65951  0.97149  1.0000
  H   H1643     1.0  0.51882  0.96392  0.99315  1.0000
  C   C1028     1.0  0.40222  0.91307  0.97439  1.0000
  S   S412      1.0  0.48435  0.56945  0.97395  1.0000
  H   H1644     1.0  0.47330  0.71652  0.21012  1.0000
  C   C1029     1.0  0.38618  0.53413  0.97762  1.0000
  S   S413      1.0  0.35578  0.97828  0.98343  1.0000
  C   C1030     1.0  0.48968  0.65558  0.98002  1.0000
  H   H1645     1.0  0.50540  0.65958  0.97831  1.0000
  H   H1646     1.0  0.33352  0.58870  0.13880  1.0000
  H   H1647     1.0  0.39317  0.49073  0.97227  1.0000
  H   H1648     1.0  0.54886  0.92968  0.97946  1.0000
  C   C1031     1.0  0.43417  0.88920  0.97503  1.0000
  N   N101      1.0  0.47404  0.67400  0.97970  1.0000
  S   S414      1.0  0.37552  0.91841  0.98021  1.0000
  C   C1032     1.0  0.47509  0.68504  0.99306  1.0000
  C   C1033     1.0  0.45357  0.66781  0.98141  1.0000
  Fe  Fe210     1.0  0.35945  0.69341  0.21921  1.0000
  H   H1649     1.0  0.42377  0.75112  0.21320  1.0000
  H   H1650     1.0  0.42427  0.50569  0.97327  1.0000
  Fe  Fe211     1.0  0.65565  0.96758  0.99367  1.0000
  H   H1651     1.0  0.63995  0.82728  0.21542  1.0000
  Fe  Fe212     1.0  0.34678  0.73919  0.21980  1.0000
  S   S415      1.0  0.39246  0.69539  0.21996  1.0000
  H   H1652     1.0  0.52521  0.94098  0.97229  1.0000
  C   C1034     1.0  0.54170  0.94245  0.97114  1.0000
  S   S416      1.0  0.34870  0.71220  0.23919  1.0000
  Fe  Fe213     1.0  0.38142  0.71637  0.23845  1.0000
  S   S417      1.0  0.40059  0.70770  0.25887  1.0000
  H   H1653     1.0  0.54971  0.93645  0.43557  1.0000
  Fe  Fe214     1.0  0.46787  0.74730  0.31020  1.0000
  S   S418      1.0  0.47862  0.71349  0.31421  1.0000
  S   S419      1.0  0.44236  0.76112  0.29542  1.0000
  Fe  Fe215     1.0  0.49961  0.75788  0.32894  1.0000
  S   S420      1.0  0.51246  0.72446  0.33420  1.0000
  S   S421      1.0  0.51881  0.78142  0.33325  1.0000
  Fe  Fe216     1.0  0.51000  0.72247  0.30881  1.0000
  S   S422      1.0  0.53601  0.70386  0.29500  1.0000
  Fe  Fe217     1.0  0.48004  0.71809  0.33925  1.0000
  S   S423      1.0  0.47057  0.69520  0.36083  1.0000
  S   S424      1.0  0.49934  0.75602  0.30293  1.0000
  S   S425      1.0  0.46693  0.75173  0.33591  1.0000
  Fe  Fe218     1.0  0.52790  0.87504  0.38291  1.0000
  S   S426      1.0  0.52866  0.90787  0.37124  1.0000
  S   S427      1.0  0.50954  0.85066  0.37880  1.0000
  Fe  Fe219     1.0  0.55003  0.88119  0.41021  1.0000
  S   S428      1.0  0.55311  0.91398  0.40067  1.0000
  S   S429      1.0  0.55700  0.86295  0.43392  1.0000
  Fe  Fe220     1.0  0.52068  0.91713  0.39582  1.0000
  S   S430      1.0  0.49730  0.94134  0.40699  1.0000
  Fe  Fe221     1.0  0.56125  0.90280  0.37677  1.0000
  S   S431      1.0  0.58602  0.91452  0.35771  1.0000
  S   S432      1.0  0.51713  0.88512  0.40707  1.0000
  S   S433      1.0  0.56094  0.86939  0.38671  1.0000
  Fe  Fe222     1.0  0.44699  0.57799  0.37584  1.0000
  S   S434      1.0  0.41516  0.57085  0.38508  1.0000
  S   S435      1.0  0.45265  0.60577  0.35704  1.0000
  Fe  Fe223     1.0  0.46660  0.53680  0.39263  1.0000
  S   S436      1.0  0.43640  0.52662  0.40298  1.0000
  S   S437      1.0  0.49640  0.51826  0.39918  1.0000
  Fe  Fe224     1.0  0.42665  0.53911  0.37891  1.0000
  S   S438      1.0  0.41258  0.52131  0.36398  1.0000
  Fe  Fe225     1.0  0.42742  0.55892  0.40842  1.0000
  S   S439      1.0  0.40855  0.56549  0.43202  1.0000
  S   S440      1.0  0.45786  0.54691  0.36812  1.0000
  S   S441      1.0  0.45831  0.56852  0.39963  1.0000
  C   C1035     1.0  0.42070  0.56647  0.44863  1.0000
  C   C1036     1.0  0.44195  0.56514  0.44730  1.0000
  H   H1654     1.0  0.53325  0.49019  0.40222  1.0000
  H   H1655     1.0  0.45138  0.56212  0.43621  1.0000
  H   H1656     1.0  0.53285  0.80739  0.39131  1.0000
  C   C1037     1.0  0.56349  0.87629  0.44809  1.0000
  C   C1038     1.0  0.57128  0.89476  0.44330  1.0000
  H   H1657     1.0  0.57406  0.90067  0.43076  1.0000
  C   C1039     1.0  0.62140  0.93173  0.35015  1.0000
  C   C1040     1.0  0.60821  0.92194  0.36238  1.0000
  C   C1041     1.0  0.61313  0.91804  0.37791  1.0000
  H   H1658     1.0  0.61762  0.93484  0.33811  1.0000
  H   H1659     1.0  0.60316  0.91046  0.38742  1.0000
  C   C1042     1.0  0.36302  0.49592  0.35988  1.0000
  H   H1660     1.0  0.33239  0.51023  0.31857  1.0000
  H   H1661     1.0  0.62515  0.97134  0.37871  1.0000
  H   H1662     1.0  0.43269  0.59567  0.42073  1.0000
  H   H1663     1.0  0.43139  0.61452  0.40347  1.0000
  C   C1043     1.0  0.34777  0.50393  0.37131  1.0000
  C   C1044     1.0  0.35269  0.51691  0.38100  1.0000
  C   C1045     1.0  0.37251  0.52219  0.37908  1.0000
  C   C1046     1.0  0.38763  0.51452  0.36743  1.0000
  H   H1664     1.0  0.45750  0.76553  0.22724  1.0000
  H   H1665     1.0  0.42461  0.95753  0.36921  1.0000
  H   H1666     1.0  0.37606  0.53228  0.38656  1.0000
  H   H1667     1.0  0.43996  0.97194  0.38824  1.0000
  N   N102      1.0  0.52944  0.65334  0.33081  1.0000
  H   H1668     1.0  0.34768  0.56204  0.33472  1.0000
  C   C1047     1.0  0.42158  0.62272  0.44228  1.0000
  C   C1048     1.0  0.48950  0.96831  0.37972  1.0000
  C   C1049     1.0  0.48684  0.96463  0.39640  1.0000
  H   H1669     1.0  0.35659  0.50936  0.32513  1.0000
  H   H1670     1.0  0.46134  0.62617  0.41230  1.0000
  C   C1050     1.0  0.45101  0.56817  0.46025  1.0000
  H   H1671     1.0  0.49861  0.95686  0.37294  1.0000
  H   H1672     1.0  0.54175  0.93197  0.46521  1.0000
  H   H1673     1.0  0.34051  0.78724  0.22814  1.0000
  C   C1051     1.0  0.51574  0.80067  0.34601  1.0000
  C   C1052     1.0  0.49838  0.80428  0.35724  1.0000
  C   C1053     1.0  0.49677  0.81970  0.36703  1.0000
  C   C1054     1.0  0.51238  0.83181  0.36574  1.0000
  C   C1055     1.0  0.52980  0.82813  0.35457  1.0000
  C   C1056     1.0  0.53144  0.81267  0.34480  1.0000
  H   H1674     1.0  0.48616  0.79526  0.35836  1.0000
  H   H1675     1.0  0.48323  0.82234  0.37563  1.0000
  H   H1676     1.0  0.54197  0.83725  0.35339  1.0000
  H   H1677     1.0  0.54496  0.81007  0.33619  1.0000
  C   C1057     1.0  0.46610  0.67022  0.35960  1.0000
  C   C1058     1.0  0.46484  0.66417  0.34500  1.0000
  C   C1059     1.0  0.46075  0.64437  0.34448  1.0000
  C   C1060     1.0  0.45809  0.63032  0.35851  1.0000
  C   C1061     1.0  0.45974  0.63622  0.37308  1.0000
  C   C1062     1.0  0.46358  0.65615  0.37363  1.0000
  H   H1678     1.0  0.46685  0.67477  0.33412  1.0000
  H   H1679     1.0  0.45960  0.63984  0.33315  1.0000
  H   H1680     1.0  0.45819  0.62536  0.38383  1.0000
  H   H1681     1.0  0.46476  0.66066  0.38495  1.0000
  C   C1063     1.0  0.56023  0.73830  0.24696  1.0000
  C   C1064     1.0  0.57214  0.72090  0.25386  1.0000
  C   C1065     1.0  0.56436  0.70989  0.26837  1.0000
  C   C1066     1.0  0.54470  0.71630  0.27598  1.0000
  C   C1067     1.0  0.53251  0.73315  0.26869  1.0000
  C   C1068     1.0  0.54027  0.74411  0.25423  1.0000
  H   H1682     1.0  0.58754  0.71628  0.24827  1.0000
  H   H1683     1.0  0.57381  0.69676  0.27389  1.0000
  H   H1684     1.0  0.51715  0.73786  0.27423  1.0000
  H   H1685     1.0  0.53089  0.75735  0.24876  1.0000
  C   C1069     1.0  0.51869  0.65460  0.34718  1.0000
  C   C1070     1.0  0.41263  0.72334  0.26797  1.0000
  C   C1071     1.0  0.40649  0.74447  0.26722  1.0000
  C   C1072     1.0  0.41601  0.75600  0.27541  1.0000
  C   C1073     1.0  0.43190  0.74655  0.28418  1.0000
  C   C1074     1.0  0.43847  0.72555  0.28442  1.0000
  C   C1075     1.0  0.42867  0.71398  0.27657  1.0000
  H   H1686     1.0  0.39404  0.75183  0.26072  1.0000
  H   H1687     1.0  0.41081  0.77225  0.27517  1.0000
  H   H1688     1.0  0.45090  0.71816  0.29083  1.0000
  H   H1689     1.0  0.43362  0.69765  0.27707  1.0000
  N   N103      1.0  0.41177  0.70405  0.33017  1.0000
  C   C1076     1.0  0.42135  0.70260  0.34473  1.0000
  C   C1077     1.0  0.41015  0.72536  0.32195  1.0000
  C   C1078     1.0  0.39116  0.69802  0.33452  1.0000
  C   C1079     1.0  0.42444  0.69021  0.31944  1.0000
  H   H1690     1.0  0.42303  0.68670  0.35124  1.0000
  H   H1691     1.0  0.41226  0.71284  0.35313  1.0000
  H   H1692     1.0  0.43689  0.70718  0.34182  1.0000
  H   H1693     1.0  0.40349  0.72704  0.31064  1.0000
  H   H1694     1.0  0.40042  0.73625  0.32954  1.0000
  H   H1695     1.0  0.42541  0.73054  0.31884  1.0000
  H   H1696     1.0  0.39186  0.68195  0.34067  1.0000
  H   H1697     1.0  0.38354  0.69905  0.32374  1.0000
  H   H1698     1.0  0.38117  0.70809  0.34265  1.0000
  H   H1699     1.0  0.41756  0.69081  0.30836  1.0000
  H   H1700     1.0  0.42620  0.67400  0.32533  1.0000
  H   H1701     1.0  0.44001  0.69446  0.31574  1.0000
  C   C1080     1.0  0.32520  0.79522  0.22733  1.0000
  N   N104      1.0  0.51969  0.94164  0.44887  1.0000
  H   H1702     1.0  0.40898  0.61151  0.41780  1.0000
  C   C1081     1.0  0.42854  0.74340  0.22483  1.0000
  H   H1703     1.0  0.42343  0.75429  0.23368  1.0000
  H   H1704     1.0  0.45821  0.63472  0.43150  1.0000
  H   H1705     1.0  0.58163  0.91988  0.45094  1.0000
  C   C1082     1.0  0.52724  0.94254  0.46397  1.0000
  C   C1083     1.0  0.53796  0.63180  0.32920  1.0000
  H   H1706     1.0  0.35992  0.54096  0.30481  1.0000
  H   H1707     1.0  0.55456  0.85418  0.46821  1.0000
  C   C1084     1.0  0.34011  0.51581  0.32719  1.0000
  H   H1708     1.0  0.50381  0.91597  0.45848  1.0000
  C   C1085     1.0  0.50636  0.49591  0.39048  1.0000
  N   N105      1.0  0.43114  0.62635  0.42545  1.0000
  H   H1709     1.0  0.49431  0.95562  0.43656  1.0000
  C   C1086     1.0  0.64440  0.93336  0.36893  1.0000
  C   C1087     1.0  0.49580  0.48875  0.38027  1.0000
  C   C1088     1.0  0.56048  0.86853  0.46442  1.0000
  C   C1089     1.0  0.63934  0.93758  0.35341  1.0000
  H   H1710     1.0  0.50306  0.97221  0.44754  1.0000
  C   C1090     1.0  0.45358  0.62376  0.42481  1.0000
  C   C1091     1.0  0.45623  0.72594  0.23894  1.0000
  S   S442      1.0  0.34546  0.66373  0.22436  1.0000
  C   C1092     1.0  0.54714  0.81055  0.39486  1.0000
  C   C1093     1.0  0.57564  0.90557  0.45475  1.0000
  H   H1711     1.0  0.39445  0.49518  0.34893  1.0000
  H   H1712     1.0  0.64917  0.94527  0.34391  1.0000
  C   C1094     1.0  0.63119  0.92364  0.38113  1.0000
  C   C1095     1.0  0.50057  0.95614  0.44770  1.0000
  C   C1096     1.0  0.52809  0.82917  0.41563  1.0000
  H   H1713     1.0  0.55080  0.82508  0.38738  1.0000
  H   H1714     1.0  0.52973  0.90925  0.44974  1.0000
  H   H1715     1.0  0.56823  0.83109  0.40948  1.0000
  H   H1716     1.0  0.46740  0.56755  0.45902  1.0000
  C   C1097     1.0  0.56383  0.81647  0.41628  1.0000
  H   H1717     1.0  0.41997  0.73017  0.22883  1.0000
  H   H1718     1.0  0.52599  0.83142  0.42840  1.0000
  N   N106      1.0  0.54459  0.81224  0.41207  1.0000
  H   H1719     1.0  0.38432  0.97468  0.40172  1.0000
  H   H1720     1.0  0.45966  0.60801  0.43019  1.0000
  H   H1721     1.0  0.34107  0.52305  0.38998  1.0000
  H   H1722     1.0  0.47293  0.72054  0.23835  1.0000
  C   C1098     1.0  0.53519  0.94727  0.43522  1.0000
  C   C1099     1.0  0.42579  0.61147  0.41644  1.0000
  H   H1723     1.0  0.47271  0.97690  0.41795  1.0000
  H   H1724     1.0  0.50619  0.64500  0.35009  1.0000
  H   H1725     1.0  0.52984  0.94698  0.42364  1.0000
  C   C1100     1.0  0.42361  0.64735  0.41829  1.0000
  H   H1726     1.0  0.48147  0.49736  0.37716  1.0000
  H   H1727     1.0  0.53031  0.95818  0.46464  1.0000
  H   H1728     1.0  0.55960  0.79809  0.39159  1.0000
  H   H1729     1.0  0.40471  0.62360  0.44326  1.0000
  H   H1730     1.0  0.57672  0.80408  0.41376  1.0000
  H   H1731     1.0  0.33443  0.54181  0.30045  1.0000
  N   N107      1.0  0.33704  0.53839  0.32541  1.0000
  H   H1732     1.0  0.39226  0.57119  0.46430  1.0000
  H   H1733     1.0  0.42083  0.96428  0.40425  1.0000
  H   H1734     1.0  0.50210  0.65193  0.32119  1.0000
  C   C1101     1.0  0.54615  0.66594  0.32760  1.0000
  H   H1735     1.0  0.40673  0.64965  0.41855  1.0000
  H   H1736     1.0  0.54900  0.62542  0.33778  1.0000
  H   H1737     1.0  0.54020  0.68230  0.32872  1.0000
  H   H1738     1.0  0.42482  0.63397  0.44940  1.0000
  H   H1739     1.0  0.52925  0.64925  0.35625  1.0000
  C   C1102     1.0  0.40870  0.57015  0.46317  1.0000
  H   H1740     1.0  0.55436  0.66564  0.31523  1.0000
  H   H1741     1.0  0.34432  0.53942  0.34874  1.0000
  H   H1742     1.0  0.53167  0.84378  0.40844  1.0000
  H   H1743     1.0  0.40557  0.94923  0.38512  1.0000
  C   C1103     1.0  0.51490  0.66108  0.31922  1.0000
  H   H1744     1.0  0.34149  0.56363  0.30678  1.0000
  H   H1745     1.0  0.53705  0.79377  0.43455  1.0000
  H   H1746     1.0  0.55130  0.77977  0.41912  1.0000
  H   H1747     1.0  0.56233  0.81812  0.42916  1.0000
  H   H1748     1.0  0.43057  0.65057  0.40560  1.0000
  H   H1749     1.0  0.52467  0.78936  0.41861  1.0000
  H   H1750     1.0  0.48857  0.95251  0.45788  1.0000
  N   N108      1.0  0.45080  0.73660  0.22335  1.0000
  H   H1751     1.0  0.42734  0.65901  0.42480  1.0000
  S   S443      1.0  0.57032  0.75428  0.23019  1.0000
  N   N109      1.0  0.55749  0.78206  0.28226  1.0000
  C   C1104     1.0  0.54686  0.78688  0.26801  1.0000
  C   C1105     1.0  0.57783  0.78876  0.27821  1.0000
  C   C1106     1.0  0.55997  0.75973  0.28761  1.0000
  C   C1107     1.0  0.54534  0.79284  0.29520  1.0000
  H   H1752     1.0  0.53172  0.78141  0.27048  1.0000
  H   H1753     1.0  0.55593  0.77949  0.25783  1.0000
  H   H1754     1.0  0.54423  0.80365  0.26390  1.0000
  H   H1755     1.0  0.58735  0.78080  0.26849  1.0000
  H   H1756     1.0  0.57655  0.80552  0.27402  1.0000
  H   H1757     1.0  0.58627  0.78543  0.28871  1.0000
  H   H1758     1.0  0.56812  0.75548  0.29825  1.0000
  H   H1759     1.0  0.56873  0.75106  0.27803  1.0000
  H   H1760     1.0  0.54492  0.75416  0.29101  1.0000
  H   H1761     1.0  0.55259  0.78918  0.30632  1.0000
  H   H1762     1.0  0.52977  0.78836  0.29835  1.0000
  H   H1763     1.0  0.54340  0.80975  0.29177  1.0000
  H   H1764     1.0  0.51325  0.82664  0.41262  1.0000
  H   H1765     1.0  0.42743  0.60725  0.44816  1.0000
  H   H1766     1.0  0.51168  0.67063  0.34871  1.0000
  H   H1767     1.0  0.52256  0.66071  0.30670  1.0000
  C   C1108     1.0  0.53917  0.79290  0.42152  1.0000
  H   H1768     1.0  0.54615  0.63034  0.31696  1.0000
  C   C1109     1.0  0.40929  0.96232  0.37588  1.0000
  H   H1769     1.0  0.52570  0.62190  0.33151  1.0000
  H   H1770     1.0  0.55755  0.66052  0.33602  1.0000
  H   H1771     1.0  0.50824  0.67728  0.32016  1.0000
  H   H1772     1.0  0.44815  0.71237  0.24308  1.0000
  C   C1110     1.0  0.34354  0.54660  0.30862  1.0000
  H   H1773     1.0  0.39796  0.96490  0.36734  1.0000
  H   H1774     1.0  0.45187  0.73621  0.24831  1.0000
  H   H1775     1.0  0.65138  0.97762  0.35502  1.0000
  C   C1111     1.0  0.51573  0.92064  0.44857  1.0000
  H   H1776     1.0  0.51048  0.91933  0.43715  1.0000
  H   H1777     1.0  0.53874  0.96294  0.43511  1.0000
  C   C1112     1.0  0.42432  0.97673  0.39436  1.0000
  H   H1778     1.0  0.33150  0.82339  0.23338  1.0000
  H   H1779     1.0  0.36580  0.53905  0.33333  1.0000
  C   C1113     1.0  0.38277  0.50136  0.35786  1.0000
  N   N110      1.0  0.40910  0.98093  0.38313  1.0000
  H   H1780     1.0  0.63495  0.92034  0.39318  1.0000
  C   C1114     1.0  0.47495  0.97960  0.40506  1.0000
  H   H1781     1.0  0.33370  0.50916  0.33933  1.0000
  C   C1115     1.0  0.34925  0.54507  0.33596  1.0000
  S   S444      1.0  0.62914  0.72883  0.22117  1.0000
  S   S445      1.0  0.37853  0.74516  0.22078  1.0000
  H   H1782     1.0  0.65656  0.98382  0.38142  1.0000
  Fe  Fe226     1.0  0.57583  0.90539  0.51164  1.0000
  S   S446      1.0  0.54885  0.89867  0.52999  1.0000
  S   S447      1.0  0.57559  0.91382  0.48487  1.0000
  Fe  Fe227     1.0  0.60258  0.90894  0.53673  1.0000
  S   S448      1.0  0.57784  0.90237  0.55691  1.0000
  S   S449      1.0  0.63470  0.91527  0.53813  1.0000
  Fe  Fe228     1.0  0.57189  0.87783  0.54382  1.0000
  S   S450      1.0  0.56494  0.84902  0.56082  1.0000
  Fe  Fe229     1.0  0.55633  0.92340  0.54190  1.0000
  S   S451      1.0  0.53063  0.94348  0.55499  1.0000
  S   S452      1.0  0.59866  0.88265  0.52455  1.0000
  S   S453      1.0  0.58142  0.93197  0.52262  1.0000
  Fe  Fe230     1.0  0.39533  0.57060  0.53922  1.0000
  S   S454      1.0  0.40876  0.59848  0.52612  1.0000
  S   S455      1.0  0.36072  0.57347  0.54072  1.0000
  Fe  Fe231     1.0  0.43686  0.54815  0.54719  1.0000
  S   S456      1.0  0.45303  0.57438  0.53494  1.0000
  S   S457      1.0  0.45640  0.52230  0.56082  1.0000
  Fe  Fe232     1.0  0.42696  0.59508  0.54653  1.0000
  S   S458      1.0  0.42883  0.61877  0.56252  1.0000
  Fe  Fe233     1.0  0.43371  0.57550  0.51557  1.0000
  S   S459      1.0  0.45078  0.57712  0.49033  1.0000
  S   S460      1.0  0.41190  0.56858  0.56024  1.0000
  S   S461      1.0  0.41911  0.54786  0.52714  1.0000
  H   H1783     1.0  0.34457  0.88849  0.60201  1.0000
  H   H1784     1.0  0.57352  0.63328  0.64094  1.0000
  S   S462      1.0  0.61481  0.69974  0.63672  1.0000
  H   H1785     1.0  0.39763  0.70698  0.60453  1.0000
  Fe  Fe234     1.0  0.33938  0.79377  0.63232  1.0000
  C   C1116     1.0  0.56466  0.87949  0.47593  1.0000
  S   S463      1.0  0.37040  0.79571  0.61710  1.0000
  H   H1786     1.0  0.63339  0.94763  0.58625  1.0000
  H   H1787     1.0  0.59840  0.94758  0.54826  1.0000
  H   H1788     1.0  0.43401  0.73209  0.56257  1.0000
  Fe  Fe235     1.0  0.48645  0.71353  0.56800  1.0000
  S   S464      1.0  0.49168  0.70068  0.59307  1.0000
  S   S465      1.0  0.47294  0.69847  0.55081  1.0000
  Fe  Fe236     1.0  0.50333  0.75364  0.56971  1.0000
  S   S466      1.0  0.50915  0.74359  0.59515  1.0000
  S   S467      1.0  0.51086  0.78249  0.55303  1.0000
  Fe  Fe237     1.0  0.52179  0.71288  0.58719  1.0000
  S   S468      1.0  0.55302  0.69366  0.58932  1.0000
  Fe  Fe238     1.0  0.47848  0.73247  0.59870  1.0000
  S   S469      1.0  0.45412  0.73499  0.62033  1.0000
  S   S470      1.0  0.51744  0.72357  0.56155  1.0000
  S   S471      1.0  0.47174  0.74474  0.57387  1.0000
  C   C1117     1.0  0.39301  0.77779  0.61794  1.0000
  C   C1118     1.0  0.40945  0.78011  0.60566  1.0000
  C   C1119     1.0  0.42812  0.76691  0.60614  1.0000
  C   C1120     1.0  0.43061  0.75138  0.61904  1.0000
  C   C1121     1.0  0.41411  0.74890  0.63124  1.0000
  C   C1122     1.0  0.39530  0.76195  0.63065  1.0000
  H   H1789     1.0  0.40784  0.79236  0.59580  1.0000
  H   H1790     1.0  0.44076  0.76913  0.59677  1.0000
  H   H1791     1.0  0.41593  0.73693  0.64127  1.0000
  H   H1792     1.0  0.38279  0.76005  0.64021  1.0000
  H   H1793     1.0  0.54304  0.75711  0.57080  1.0000
  H   H1794     1.0  0.34475  0.78107  0.69139  1.0000
  H   H1795     1.0  0.59193  0.72517  0.57888  1.0000
  C   C1123     1.0  0.59816  0.69812  0.62310  1.0000
  C   C1124     1.0  0.60396  0.68602  0.61084  1.0000
  C   C1125     1.0  0.58989  0.68472  0.60066  1.0000
  C   C1126     1.0  0.57005  0.69577  0.60247  1.0000
  C   C1127     1.0  0.56440  0.70823  0.61448  1.0000
  C   C1128     1.0  0.57840  0.70934  0.62476  1.0000
  H   H1796     1.0  0.61932  0.67787  0.60908  1.0000
  H   H1797     1.0  0.59442  0.67524  0.59124  1.0000
  H   H1798     1.0  0.54918  0.71680  0.61600  1.0000
  H   H1799     1.0  0.57383  0.71884  0.63417  1.0000
  C   C1129     1.0  0.60927  0.60793  0.63681  1.0000
  H   H1800     1.0  0.46718  0.51079  0.51251  1.0000
  H   H1801     1.0  0.46156  0.53774  0.50613  1.0000
  C   C1130     1.0  0.44329  0.63947  0.55873  1.0000
  C   C1131     1.0  0.44895  0.64656  0.57171  1.0000
  C   C1132     1.0  0.45902  0.66392  0.56943  1.0000
  C   C1133     1.0  0.46289  0.67489  0.55416  1.0000
  C   C1134     1.0  0.45729  0.66776  0.54118  1.0000
  C   C1135     1.0  0.44778  0.65003  0.54340  1.0000
  H   H1802     1.0  0.44562  0.63848  0.58362  1.0000
  H   H1803     1.0  0.46354  0.66890  0.57952  1.0000
  H   H1804     1.0  0.46017  0.67611  0.52932  1.0000
  H   H1805     1.0  0.44337  0.64491  0.53331  1.0000
  H   H1806     1.0  0.49309  0.54901  0.52502  1.0000
  H   H1807     1.0  0.34764  0.83225  0.60819  1.0000
  C   C1136     1.0  0.35316  0.53941  0.56277  1.0000
  C   C1137     1.0  0.34498  0.55712  0.55347  1.0000
  H   H1808     1.0  0.57985  0.78011  0.56154  1.0000
  H   H1809     1.0  0.59186  0.62088  0.66464  1.0000
  C   C1138     1.0  0.57774  0.76869  0.55408  1.0000
  H   H1810     1.0  0.36955  0.53524  0.56211  1.0000
  H   H1811     1.0  0.59637  0.75068  0.57954  1.0000
  H   H1812     1.0  0.58439  0.65664  0.63780  1.0000
  C   C1139     1.0  0.58709  0.64057  0.63511  1.0000
  H   H1813     1.0  0.48805  0.56002  0.50526  1.0000
  S   S472      1.0  0.32747  0.81401  0.65137  1.0000
  H   H1814     1.0  0.40838  0.57580  0.48733  1.0000
  C   C1140     1.0  0.55001  0.83062  0.55831  1.0000
  C   C1141     1.0  0.54284  0.83064  0.54390  1.0000
  C   C1142     1.0  0.53074  0.81588  0.54256  1.0000
  C   C1143     1.0  0.52558  0.80107  0.55560  1.0000
  C   C1144     1.0  0.53244  0.80132  0.57010  1.0000
  C   C1145     1.0  0.54476  0.81590  0.57138  1.0000
  H   H1815     1.0  0.54675  0.84189  0.53374  1.0000
  H   H1816     1.0  0.52545  0.81586  0.53130  1.0000
  H   H1817     1.0  0.52812  0.79040  0.58036  1.0000
  H   H1818     1.0  0.55005  0.81592  0.58264  1.0000
  H   H1819     1.0  0.54760  0.96965  0.52715  1.0000
  H   H1820     1.0  0.58767  0.64147  0.62196  1.0000
  H   H1821     1.0  0.36635  0.57278  0.57410  1.0000
  H   H1822     1.0  0.35136  0.63103  0.59056  1.0000
  C   C1146     1.0  0.63382  0.93236  0.56585  1.0000
  C   C1147     1.0  0.64524  0.92640  0.55177  1.0000
  H   H1823     1.0  0.58075  0.98063  0.52324  1.0000
  H   H1824     1.0  0.39825  0.70671  0.56896  1.0000
  H   H1825     1.0  0.61827  0.92926  0.56915  1.0000
  H   H1826     1.0  0.43450  0.69316  0.59866  1.0000
  H   H1827     1.0  0.35964  0.88965  0.61726  1.0000
  H   H1828     1.0  0.37169  0.61259  0.59781  1.0000
  H   H1829     1.0  0.42498  0.69780  0.56418  1.0000
  H   H1830     1.0  0.36774  0.83325  0.63034  1.0000
  H   H1831     1.0  0.56187  0.87364  0.48849  1.0000
  C   C1148     1.0  0.60480  0.62862  0.65805  1.0000
  H   H1832     1.0  0.49187  0.49371  0.56737  1.0000
  H   H1833     1.0  0.51355  0.54864  0.50869  1.0000
  C   C1149     1.0  0.52411  0.96958  0.54745  1.0000
  H   H1834     1.0  0.33427  0.88306  0.62258  1.0000
  H   H1835     1.0  0.60251  0.64439  0.66129  1.0000
  H   H1836     1.0  0.58496  0.73164  0.54401  1.0000
  H   H1837     1.0  0.33817  0.59851  0.56377  1.0000
  C   C1150     1.0  0.59355  0.74030  0.57149  1.0000
  C   C1151     1.0  0.64248  0.94262  0.57559  1.0000
  H   H1838     1.0  0.55502  0.73663  0.58396  1.0000
  N   N111      1.0  0.41758  0.71619  0.58321  1.0000
  H   H1839     1.0  0.55792  0.74017  0.54748  1.0000
  H   H1840     1.0  0.50126  0.49507  0.51796  1.0000
  H   H1841     1.0  0.55901  0.76240  0.58411  1.0000
  H   H1842     1.0  0.60740  0.73809  0.56250  1.0000
  C   C1152     1.0  0.43629  0.70764  0.59044  1.0000
  C   C1153     1.0  0.48438  0.48755  0.55935  1.0000
  H   H1843     1.0  0.34653  0.51316  0.57997  1.0000
  H   H1844     1.0  0.36384  0.77957  0.71427  1.0000
  H   H1845     1.0  0.56931  0.71909  0.56050  1.0000
  H   H1846     1.0  0.59121  0.76736  0.54465  1.0000
  H   H1847     1.0  0.38821  0.60961  0.57020  1.0000
  H   H1848     1.0  0.38213  0.84048  0.60189  1.0000
  C   C1154     1.0  0.59590  0.98124  0.52667  1.0000
  C   C1155     1.0  0.34007  0.52695  0.57290  1.0000
  H   H1849     1.0  0.63812  0.63112  0.63645  1.0000
  H   H1850     1.0  0.34827  0.85158  0.63913  1.0000
  C   C1156     1.0  0.42103  0.73514  0.57223  1.0000
  H   H1851     1.0  0.44246  0.49852  0.54017  1.0000
  H   H1852     1.0  0.37400  0.60395  0.55591  1.0000
  H   H1853     1.0  0.34560  0.60833  0.60381  1.0000
  H   H1854     1.0  0.42479  0.74689  0.57865  1.0000
  H   H1855     1.0  0.59643  0.59961  0.64276  1.0000
  C   C1157     1.0  0.36465  0.58136  0.58440  1.0000
  C   C1158     1.0  0.53528  0.97878  0.53374  1.0000
  C   C1159     1.0  0.40054  0.72092  0.59596  1.0000
  H   H1856     1.0  0.61051  0.60773  0.62373  1.0000
  C   C1160     1.0  0.57173  0.73426  0.55347  1.0000
  C   C1161     1.0  0.62357  0.63937  0.63252  1.0000
  H   H1857     1.0  0.40394  0.73228  0.60295  1.0000
  C   C1162     1.0  0.41262  0.70107  0.57421  1.0000
  C   C1163     1.0  0.33756  0.60630  0.57438  1.0000
  H   H1858     1.0  0.40728  0.74199  0.56645  1.0000
  H   H1859     1.0  0.60671  0.96809  0.52230  1.0000
  C   C1164     1.0  0.34733  0.78124  0.71623  1.0000
  N   N112      1.0  0.57512  0.74866  0.56380  1.0000
  H   H1860     1.0  0.44039  0.71854  0.59740  1.0000
  C   C1165     1.0  0.33655  0.78209  0.70326  1.0000
  H   H1861     1.0  0.38613  0.72754  0.59099  1.0000
  C   C1166     1.0  0.50767  0.98146  0.55561  1.0000
  N   N113      1.0  0.35784  0.60343  0.57976  1.0000
  H   H1862     1.0  0.37391  0.85727  0.63338  1.0000
  H   H1863     1.0  0.41086  0.68621  0.58193  1.0000
  H   H1864     1.0  0.56408  0.77523  0.54804  1.0000
  H   H1865     1.0  0.44954  0.70431  0.58116  1.0000
  N   N114      1.0  0.50701  0.88669  0.57287  1.0000
  C   C1167     1.0  0.49329  0.88368  0.58812  1.0000
  C   C1168     1.0  0.50871  0.86880  0.56441  1.0000
  C   C1169     1.0  0.52744  0.88885  0.57612  1.0000
  C   C1170     1.0  0.49868  0.90542  0.56284  1.0000
  H   H1866     1.0  0.47773  0.88194  0.58612  1.0000
  H   H1867     1.0  0.49176  0.89692  0.59479  1.0000
  H   H1868     1.0  0.49923  0.86968  0.59596  1.0000
  H   H1869     1.0  0.51943  0.87033  0.55305  1.0000
  H   H1870     1.0  0.51470  0.85439  0.57176  1.0000
  H   H1871     1.0  0.49370  0.86680  0.56144  1.0000
  H   H1872     1.0  0.53816  0.89078  0.56488  1.0000
  H   H1873     1.0  0.53430  0.87502  0.58366  1.0000
  H   H1874     1.0  0.52697  0.90250  0.58212  1.0000
  H   H1875     1.0  0.50884  0.90828  0.55132  1.0000
  H   H1876     1.0  0.49732  0.91925  0.56883  1.0000
  H   H1877     1.0  0.48333  0.90437  0.56002  1.0000
  N   N115      1.0  0.49290  0.52707  0.50937  1.0000
  C   C1171     1.0  0.47086  0.52599  0.51378  1.0000
  C   C1172     1.0  0.49886  0.52488  0.49231  1.0000
  C   C1173     1.0  0.50462  0.51041  0.51925  1.0000
  H   H1878     1.0  0.62675  0.96887  0.54368  1.0000
  Fe  Fe239     1.0  0.64542  0.68105  0.64147  1.0000
  H   H1879     1.0  0.49892  0.97445  0.56620  1.0000
  H   H1880     1.0  0.37217  0.86339  0.58977  1.0000
  C   C1174     1.0  0.61518  0.98152  0.54801  1.0000
  C   C1175     1.0  0.45660  0.49035  0.54396  1.0000
  H   H1881     1.0  0.49016  0.53730  0.48463  1.0000
  H   H1882     1.0  0.51608  0.93808  0.47454  1.0000
  S   S473      1.0  0.64507  0.65869  0.66418  1.0000
  H   H1883     1.0  0.50078  0.51206  0.53215  1.0000
  H   H1884     1.0  0.32792  0.84815  0.61897  1.0000
  H   H1885     1.0  0.58721  0.95972  0.56545  1.0000
  C   C1176     1.0  0.35653  0.61433  0.59362  1.0000
  N   N116      1.0  0.35689  0.85911  0.61386  1.0000
  C   C1177     1.0  0.36194  0.84994  0.62989  1.0000
  C   C1178     1.0  0.34854  0.88103  0.61393  1.0000
  C   C1179     1.0  0.34147  0.84841  0.60958  1.0000
  C   C1180     1.0  0.37551  0.85694  0.60204  1.0000
  C   C1181     1.0  0.55727  0.75135  0.57622  1.0000
  H   H1886     1.0  0.36823  0.62839  0.56286  1.0000
  C   C1182     1.0  0.49712  0.54707  0.51218  1.0000
  H   H1887     1.0  0.46561  0.52866  0.52633  1.0000
  H   H1888     1.0  0.38750  0.86493  0.60480  1.0000
  H   H1889     1.0  0.61909  0.62026  0.66252  1.0000
  H   H1890     1.0  0.62515  0.64008  0.61933  1.0000
  H   H1891     1.0  0.62363  0.59899  0.64078  1.0000
  N   N117      1.0  0.60613  0.62910  0.64062  1.0000
  H   H1892     1.0  0.35354  0.57437  0.59395  1.0000
  H   H1893     1.0  0.52138  0.51037  0.51602  1.0000
  H   H1894     1.0  0.37975  0.57864  0.58879  1.0000
  H   H1895     1.0  0.62180  0.65532  0.63525  1.0000
  C   C1183     1.0  0.37269  0.61173  0.56662  1.0000
  H   H1896     1.0  0.49574  0.50998  0.48982  1.0000
  C   C1184     1.0  0.46627  0.49850  0.55422  1.0000
  H   H1897     1.0  0.57232  0.95990  0.54985  1.0000
  H   H1898     1.0  0.51542  0.52564  0.48851  1.0000
  H   H1899     1.0  0.33622  0.85577  0.59806  1.0000
  C   C1185     1.0  0.57211  0.89816  0.47111  1.0000
  N   N118      1.0  0.59474  0.98046  0.54411  1.0000
  C   C1186     1.0  0.58786  0.96107  0.55228  1.0000
  H   H1900     1.0  0.32604  0.59981  0.58386  1.0000
  C   C1187     1.0  0.41780  0.57277  0.47623  1.0000
  H   H1901     1.0  0.61517  0.98025  0.56112  1.0000
  H   H1902     1.0  0.65372  0.65541  0.70842  1.0000
  H   H1903     1.0  0.32559  0.52326  0.53607  1.0000
  H   H1904     1.0  0.33184  0.62278  0.57093  1.0000
  H   H1905     1.0  0.33076  0.49694  0.53263  1.0000
  C   C1188     1.0  0.43896  0.57208  0.47473  1.0000
  S   S474      1.0  0.32479  0.76694  0.64598  1.0000
  C   C1189     1.0  0.32364  0.56232  0.55449  1.0000
  S   S475      1.0  0.52479  0.87052  0.95558  1.0000
  Fe  Fe240     1.0  0.52372  0.83776  0.95313  1.0000
  S   S476      1.0  0.53716  0.82503  0.93009  1.0000
  S   S477      1.0  0.50223  0.61988  0.94711  1.0000
  Fe  Fe241     1.0  0.48627  0.76036  0.88029  1.0000
  S   S478      1.0  0.45723  0.74819  0.87942  1.0000
  S   S479      1.0  0.48197  0.79007  0.89083  1.0000
  Fe  Fe242     1.0  0.51326  0.72486  0.86574  1.0000
  S   S480      1.0  0.48627  0.70986  0.86398  1.0000
  S   S481      1.0  0.54505  0.70676  0.86032  1.0000
  Fe  Fe243     1.0  0.47114  0.74137  0.85497  1.0000
  S   S482      1.0  0.45411  0.74394  0.83348  1.0000
  Fe  Fe244     1.0  0.47409  0.71761  0.88849  1.0000
  S   S483      1.0  0.45590  0.69708  0.90710  1.0000
  S   S484      1.0  0.49926  0.75601  0.85485  1.0000
  S   S485      1.0  0.50200  0.73022  0.89125  1.0000
  Fe  Fe245     1.0  0.33562  0.97176  0.94410  1.0000
  C   C1190     1.0  0.57163  0.49933  0.96172  1.0000
  S   S486      1.0  0.38032  0.52457  0.94847  1.0000
  H   H1906     1.0  0.44976  0.67896  0.87809  1.0000
  H   H1907     1.0  0.32742  0.89777  0.91982  1.0000
  H   H1908     1.0  0.34277  0.71939  0.75009  1.0000
  H   H1909     1.0  0.35064  0.91467  0.95848  1.0000
  S   S487      1.0  0.36882  0.96588  0.94725  1.0000
  C   C1191     1.0  0.42564  0.71426  0.87170  1.0000
  H   H1910     1.0  0.55030  0.76625  0.90544  1.0000
  H   H1911     1.0  0.53114  0.76125  0.88421  1.0000
  S   S488      1.0  0.62551  0.72662  0.81330  1.0000
  C   C1192     1.0  0.44385  0.68124  0.86639  1.0000
  C   C1193     1.0  0.60926  0.73415  0.77542  1.0000
  Fe  Fe246     1.0  0.33948  0.76535  0.80898  1.0000
  H   H1912     1.0  0.33297  0.83081  0.80746  1.0000
  S   S489      1.0  0.35827  0.76375  0.82934  1.0000
  S   S490      1.0  0.47130  0.89883  0.95853  1.0000
  S   S491      1.0  0.32616  0.95384  0.96799  1.0000
  H   H1913     1.0  0.55067  0.77075  0.86928  1.0000
  H   H1914     1.0  0.35456  0.89703  0.91904  1.0000
  H   H1915     1.0  0.60642  0.74636  0.76522  1.0000
  C   C1194     1.0  0.41291  0.92761  0.96444  1.0000
  H   H1916     1.0  0.41554  0.68382  0.84684  1.0000
  H   H1917     1.0  0.37256  0.84956  0.82493  1.0000
  C   C1195     1.0  0.58123  0.74091  0.87716  1.0000
  H   H1918     1.0  0.62526  0.69794  0.78921  1.0000
  C   C1196     1.0  0.36304  0.83923  0.83331  1.0000
  C   C1197     1.0  0.42746  0.75022  0.83237  1.0000
  C   C1198     1.0  0.41348  0.75698  0.84507  1.0000
  C   C1199     1.0  0.39240  0.76093  0.84392  1.0000
  C   C1200     1.0  0.38503  0.75849  0.82999  1.0000
  C   C1201     1.0  0.39902  0.75211  0.81718  1.0000
  C   C1202     1.0  0.42010  0.74793  0.81841  1.0000
  H   H1919     1.0  0.41892  0.75922  0.85576  1.0000
  H   H1920     1.0  0.38172  0.76597  0.85388  1.0000
  H   H1921     1.0  0.39362  0.75020  0.80637  1.0000
  H   H1922     1.0  0.43078  0.74281  0.80847  1.0000
  C   C1203     1.0  0.56665  0.71241  0.84631  1.0000
  C   C1204     1.0  0.56754  0.73171  0.83724  1.0000
  C   C1205     1.0  0.58566  0.73581  0.82716  1.0000
  C   C1206     1.0  0.60296  0.72064  0.82594  1.0000
  C   C1207     1.0  0.60192  0.70128  0.83481  1.0000
  C   C1208     1.0  0.58391  0.69725  0.84501  1.0000
  H   H1923     1.0  0.55440  0.74353  0.83811  1.0000
  H   H1924     1.0  0.58633  0.75085  0.82034  1.0000
  H   H1925     1.0  0.61511  0.68949  0.83407  1.0000
  H   H1926     1.0  0.58342  0.68232  0.85206  1.0000
  C   C1209     1.0  0.65417  0.65758  0.73328  1.0000
  H   H1927     1.0  0.45545  0.68804  0.85718  1.0000
  H   H1928     1.0  0.41468  0.54644  0.94187  1.0000
  H   H1929     1.0  0.41328  0.68151  0.89079  1.0000
  C   C1210     1.0  0.48902  0.64134  0.93625  1.0000
  C   C1211     1.0  0.50014  0.65348  0.92413  1.0000
  C   C1212     1.0  0.49017  0.67072  0.91521  1.0000
  C   C1213     1.0  0.46896  0.67584  0.91830  1.0000
  C   C1214     1.0  0.45782  0.66376  0.93046  1.0000
  C   C1215     1.0  0.46782  0.64657  0.93944  1.0000
  H   H1930     1.0  0.51654  0.64945  0.92156  1.0000
  H   H1931     1.0  0.49888  0.67986  0.90581  1.0000
  H   H1932     1.0  0.44139  0.66758  0.93284  1.0000
  H   H1933     1.0  0.45910  0.63711  0.94857  1.0000
  C   C1216     1.0  0.41725  0.69832  0.85088  1.0000
  C   C1217     1.0  0.39259  0.53545  0.96119  1.0000
  S   S492      1.0  0.33426  0.79428  0.79162  1.0000
  H   H1934     1.0  0.58826  0.91418  0.94683  1.0000
  H   H1935     1.0  0.33144  0.71673  0.72448  1.0000
  H   H1936     1.0  0.54449  0.81348  0.89881  1.0000
  H   H1937     1.0  0.33690  0.88199  0.96212  1.0000
  H   H1938     1.0  0.62517  0.73387  0.77778  1.0000
  C   C1218     1.0  0.52250  0.81295  0.92011  1.0000
  C   C1219     1.0  0.50339  0.80777  0.92717  1.0000
  C   C1220     1.0  0.49154  0.79947  0.91843  1.0000
  C   C1221     1.0  0.49881  0.79599  0.90267  1.0000
  C   C1222     1.0  0.51804  0.80090  0.89571  1.0000
  C   C1223     1.0  0.52987  0.80921  0.90442  1.0000
  H   H1939     1.0  0.49764  0.81034  0.93930  1.0000
  H   H1940     1.0  0.47648  0.79615  0.92379  1.0000
  H   H1941     1.0  0.52333  0.79935  0.88331  1.0000
  H   H1942     1.0  0.59883  0.70208  0.79699  1.0000
  N   N119      1.0  0.47263  0.86949  0.91934  1.0000
  C   C1224     1.0  0.47399  0.85893  0.90527  1.0000
  C   C1225     1.0  0.49338  0.86910  0.92319  1.0000
  C   C1226     1.0  0.46026  0.85893  0.93309  1.0000
  C   C1227     1.0  0.46293  0.89099  0.91586  1.0000
  H   H1943     1.0  0.45862  0.85857  0.90214  1.0000
  H   H1944     1.0  0.48156  0.84276  0.90750  1.0000
  H   H1945     1.0  0.48311  0.86655  0.89463  1.0000
  H   H1946     1.0  0.50341  0.87634  0.91295  1.0000
  H   H1947     1.0  0.49302  0.87740  0.93346  1.0000
  H   H1948     1.0  0.50089  0.85316  0.92643  1.0000
  H   H1949     1.0  0.46703  0.84260  0.93597  1.0000
  H   H1950     1.0  0.44440  0.85920  0.93072  1.0000
  H   H1951     1.0  0.45919  0.86635  0.94399  1.0000
  H   H1952     1.0  0.46159  0.89924  0.92637  1.0000
  H   H1953     1.0  0.44725  0.89194  0.91285  1.0000
  H   H1954     1.0  0.47200  0.89954  0.90571  1.0000
  H   H1955     1.0  0.58795  0.49714  0.96361  1.0000
  H   H1956     1.0  0.43026  0.71214  0.88380  1.0000
  H   H1957     1.0  0.37299  0.82955  0.84172  1.0000
  Fe  Fe247     1.0  0.32428  0.48769  0.93859  1.0000
  C   C1228     1.0  0.34158  0.81298  0.83623  1.0000
  Fe  Fe248     1.0  0.35556  0.50382  0.95497  1.0000
  C   C1229     1.0  0.60971  0.69848  0.78620  1.0000
  C   C1230     1.0  0.32757  0.72821  0.75370  1.0000
  H   H1958     1.0  0.58656  0.75427  0.86899  1.0000
  H   H1959     1.0  0.58167  0.72656  0.75843  1.0000
  H   H1960     1.0  0.40238  0.70867  0.85072  1.0000
  H   H1961     1.0  0.57960  0.72941  0.86961  1.0000
  H   H1962     1.0  0.41093  0.72484  0.87195  1.0000
  H   H1963     1.0  0.51794  0.97862  0.96465  1.0000
  H   H1964     1.0  0.61846  0.71950  0.74729  1.0000
  H   H1965     1.0  0.43733  0.72203  0.86330  1.0000
  H   H1966     1.0  0.59354  0.73387  0.88448  1.0000
  H   H1967     1.0  0.56964  0.77575  0.89039  1.0000
  S   S493      1.0  0.49081  0.83875  0.96349  1.0000
  H   H1968     1.0  0.37993  0.82347  0.80630  1.0000
  Fe  Fe249     1.0  0.65378  0.70342  0.80720  1.0000
  H   H1969     1.0  0.64071  0.59325  0.80210  1.0000
  C   C1231     1.0  0.33930  0.90500  0.92357  1.0000
  H   H1970     1.0  0.32669  0.87480  0.94604  1.0000
  H   H1971     1.0  0.57650  0.75475  0.90545  1.0000
  C   C1232     1.0  0.40861  0.68445  0.87861  1.0000
  C   C1233     1.0  0.43404  0.92296  0.95974  1.0000
  C   C1234     1.0  0.33685  0.78201  0.73175  1.0000
  N   N120      1.0  0.35395  0.82650  0.82465  1.0000
  C   C1235     1.0  0.55493  0.72852  0.89734  1.0000
  C   C1236     1.0  0.47783  0.68744  0.96434  1.0000
  H   H1972     1.0  0.35188  0.93058  0.93952  1.0000
  Fe  Fe250     1.0  0.63457  0.95335  0.96883  1.0000
  H   H1973     1.0  0.64494  0.64554  0.73771  1.0000
  H   H1974     1.0  0.36820  0.90647  0.94192  1.0000
  S   S494      1.0  0.33102  0.96369  0.92008  1.0000
  Fe  Fe251     1.0  0.33400  0.77377  0.77339  1.0000
  H   H1975     1.0  0.59899  0.73872  0.78624  1.0000
  C   C1237     1.0  0.40960  0.54533  0.95457  1.0000
  H   H1976     1.0  0.57368  0.71946  0.77938  1.0000
  C   C1238     1.0  0.56471  0.76155  0.89758  1.0000
  H   H1977     1.0  0.54360  0.74621  0.86898  1.0000
  S   S495      1.0  0.65218  0.67032  0.80711  1.0000
  H   H1978     1.0  0.32902  0.74471  0.75051  1.0000
  H   H1979     1.0  0.42857  0.70586  0.84181  1.0000
  H   H1980     1.0  0.54039  0.73249  0.90525  1.0000
  H   H1981     1.0  0.49308  0.69254  0.96272  1.0000
  H   H1982     1.0  0.39334  0.69412  0.87934  1.0000
  C   C1239     1.0  0.58492  0.71506  0.76899  1.0000
  H   H1983     1.0  0.60838  0.68284  0.78404  1.0000
  N   N121      1.0  0.33665  0.90437  0.94107  1.0000
  N   N122      1.0  0.42382  0.69454  0.86689  1.0000
  H   H1984     1.0  0.38076  0.80369  0.82325  1.0000
  H   H1985     1.0  0.40684  0.66945  0.87542  1.0000
  H   H1986     1.0  0.55223  0.71729  0.88993  1.0000
  H   H1987     1.0  0.47750  0.67935  0.95404  1.0000
  H   H1988     1.0  0.35121  0.80194  0.84416  1.0000
  S   S496      1.0  0.34210  0.74491  0.79016  1.0000
  C   C1240     1.0  0.35254  0.91443  0.94540  1.0000
  H   H1989     1.0  0.58204  0.70000  0.76663  1.0000
  H   H1990     1.0  0.57106  0.50436  0.94877  1.0000
  H   H1991     1.0  0.44291  0.66587  0.86348  1.0000
  C   C1241     1.0  0.54611  0.75674  0.87699  1.0000
  S   S497      1.0  0.35064  0.77905  0.74810  1.0000
  C   C1242     1.0  0.57422  0.89447  0.96655  1.0000
  C   C1243     1.0  0.62057  0.70814  0.75813  1.0000
  H   H1992     1.0  0.63671  0.70694  0.76022  1.0000
  H   H1993     1.0  0.61872  0.69291  0.75538  1.0000
  C   C1244     1.0  0.37043  0.81387  0.81537  1.0000
  N   N123      1.0  0.60611  0.71396  0.77217  1.0000
  H   H1994     1.0  0.56652  0.72052  0.90505  1.0000
  N   N124      1.0  0.56176  0.74694  0.88727  1.0000
  H   H1995     1.0  0.43298  0.56163  0.95897  1.0000
  H   H1996     1.0  0.56546  0.88858  0.95926  1.0000
  C   C1245     1.0  0.42004  0.55393  0.96424  1.0000
  H   H1997     1.0  0.33806  0.92108  0.91740  1.0000
  H   H1998     1.0  0.46610  0.70135  0.96351  1.0000
  S   S498      1.0  0.64492  0.97837  0.94965  1.0000
  H   H1999     1.0  0.32399  0.69086  0.74778  1.0000
  H   H2000     1.0  0.65269  0.62507  0.80586  1.0000
  H   H2001     1.0  0.33382  0.80371  0.83007  1.0000
  Fe  Fe252     1.0  0.49234  0.87063  0.96766  1.0000
  C   C1246     1.0  0.34074  0.83990  0.81375  1.0000
  H   H2002     1.0  0.34963  0.84985  0.80448  1.0000
  C   C1247     1.0  0.58719  0.90896  0.95952  1.0000
  C   C1248     1.0  0.33856  0.88287  0.94889  1.0000
  H   H2003     1.0  0.35380  0.87424  0.94504  1.0000
  S   S499      1.0  0.61430  0.93544  0.95920  1.0000
  H   H2004     1.0  0.36417  0.80367  0.80900  1.0000
  H   H2005     1.0  0.35101  0.84901  0.84041  1.0000
  H   H2006     1.0  0.53865  0.48915  0.95257  1.0000
  C   C1249     1.0  0.59886  0.91666  0.96874  1.0000
  H   H2007     1.0  0.44213  0.93440  0.95209  1.0000
  C   C1250     1.0  0.44478  0.90383  0.96507  1.0000
  H   H2008     1.0  0.32547  0.94788  0.89234  1.0000
  H   H2009     1.0  0.40496  0.94257  0.96049  1.0000
  S   S500      1.0  0.65454  0.66040  0.76480  1.0000
  Fe  Fe253     1.0  0.48742  0.60309  0.96998  1.0000
  H   H2010     1.0  0.54878  0.93992  0.95882  1.0000
  H   H2011     1.0  0.32852  0.85009  0.82032  1.0000
  H   H2012     1.0  0.65326  0.61720  0.77864  1.0000
  H   H2013     1.0  0.41819  0.49733  0.94785  1.0000
  H   H2014     1.0  0.56350  0.51219  0.96812  1.0000
  H   H2015     1.0  0.57422  0.96154  0.96038  1.0000
  H   H2016     1.0  0.32423  0.72517  0.76692  1.0000
  H   H2017     1.0  0.32958  0.82187  0.84393  1.0000
  H   H2018     1.0  0.54128  0.97789  0.95092  1.0000
  H   H2019     1.0  0.58172  0.55604  0.96905  1.0000
  C   C1251     1.0  0.53463  0.97912  0.96355  1.0000
  C   C1252     1.0  0.65668  0.58524  0.80205  1.0000
  Fe  Fe254     1.0  0.78404  0.45931  0.09300  1.0000
  H   H2020     1.0  0.98440  0.21931  0.13946  1.0000
  S   S501      1.0  0.80248  0.42828  0.09985  1.0000
  H   H2021     1.0  0.67612  0.13832  0.21877  1.0000
  Fe  Fe255     1.0  0.80500  0.29650  0.16648  1.0000
  S   S502      1.0  0.81780  0.31774  0.14553  1.0000
  S   S503      1.0  0.80319  0.30592  0.19089  1.0000
  Fe  Fe256     1.0  0.79173  0.27028  0.14547  1.0000
  S   S504      1.0  0.80343  0.28944  0.12293  1.0000
  S   S505      1.0  0.77862  0.24193  0.14340  1.0000
  Fe  Fe257     1.0  0.83097  0.28898  0.13482  1.0000
  S   S506      1.0  0.86153  0.28779  0.11887  1.0000
  Fe  Fe258     1.0  0.78946  0.31656  0.13531  1.0000
  S   S507      1.0  0.76904  0.34338  0.12343  1.0000
  S   S508      1.0  0.82050  0.26772  0.15665  1.0000
  S   S509      1.0  0.77548  0.29733  0.15702  1.0000
  Fe  Fe259     1.0  0.72699  0.00403  0.07448  1.0000
  H   H2022     1.0  0.75231  0.45875  0.16134  1.0000
  Fe  Fe260     1.0  0.71629  0.03233  0.10044  1.0000
  S   S510      1.0  0.73814  0.01284  0.11611  1.0000
  S   S511      1.0  0.69233  0.05826  0.10853  1.0000
  Fe  Fe261     1.0  0.75988  0.01062  0.09312  1.0000
  S   S512      1.0  0.79461  0.00848  0.09092  1.0000
  C   C1253     1.0  0.85707  0.31066  0.17801  1.0000
  S   S513      1.0  0.73891  0.03236  0.07797  1.0000
  S   S514      1.0  0.70271  0.00575  0.09571  1.0000
  Fe  Fe262     1.0  0.92789  0.06877  0.02164  1.0000
  S   S515      1.0  0.91294  0.04122  0.03284  1.0000
  S   S516      1.0  0.94329  0.07152  0.99592  1.0000
  Fe  Fe263     1.0  0.92243  0.08708  0.05303  1.0000
  S   S517      1.0  0.90741  0.06033  0.06643  1.0000
  S   S518      1.0  0.92349  0.11102  0.06921  1.0000
  Fe  Fe264     1.0  0.93176  0.04029  0.05247  1.0000
  Fe  Fe265     1.0  0.88979  0.06350  0.04587  1.0000
  S   S519      1.0  0.85493  0.06690  0.04842  1.0000
  S   S520      1.0  0.94818  0.06654  0.04066  1.0000
  S   S521      1.0  0.90340  0.09143  0.03304  1.0000
  Fe  Fe266     1.0  0.96950  0.22647  0.10608  1.0000
  S   S522      1.0  0.96544  0.23730  0.08054  1.0000
  S   S523      1.0  0.94468  0.22821  0.12744  1.0000
  H   H2023     1.0  0.67117  0.26383  0.19282  1.0000
  H   H2024     1.0  0.77084  0.44118  0.17167  1.0000
  Fe  Fe267     1.0  0.68254  0.16667  0.13175  1.0000
  S   S524      1.0  0.67332  0.19680  0.11698  1.0000
  S   S525      1.0  0.70843  0.14466  0.12073  1.0000
  Fe  Fe268     1.0  0.67368  0.21091  0.13886  1.0000
  S   S526      1.0  0.68489  0.24083  0.13991  1.0000
  S   S527      1.0  0.68560  0.18125  0.15290  1.0000
  H   H2025     1.0  0.86410  0.06787  0.08238  1.0000
  H   H2026     1.0  0.74758  0.45471  0.13441  1.0000
  S   S528      1.0  0.67732  0.44958  0.02301  1.0000
  C   C1254     1.0  0.77990  0.00862  0.04971  1.0000
  C   C1255     1.0  0.67246  0.17725  0.19829  1.0000
  H   H2027     1.0  0.73260  0.32329  0.12077  1.0000
  H   H2028     1.0  0.68060  0.17734  0.18637  1.0000
  H   H2029     1.0  0.89643  0.31623  0.17377  1.0000
  C   C1256     1.0  0.93819  0.13159  0.06599  1.0000
  C   C1257     1.0  0.94534  0.14074  0.05069  1.0000
  C   C1258     1.0  0.95540  0.15810  0.04870  1.0000
  H   H2030     1.0  0.68465  0.21885  0.19134  1.0000
  C   C1259     1.0  0.95220  0.15686  0.07726  1.0000
  C   C1260     1.0  0.94165  0.13983  0.07924  1.0000
  H   H2031     1.0  0.94272  0.13473  0.04036  1.0000
  C   C1261     1.0  0.78109  0.41528  0.14974  1.0000
  H   H2032     1.0  0.93629  0.13286  0.09114  1.0000
  C   C1262     1.0  0.69817  0.08113  0.11317  1.0000
  C   C1263     1.0  0.68327  0.09304  0.12263  1.0000
  C   C1264     1.0  0.68655  0.11225  0.12546  1.0000
  C   C1265     1.0  0.70464  0.11982  0.11864  1.0000
  C   C1266     1.0  0.71975  0.10772  0.10946  1.0000
  C   C1267     1.0  0.71657  0.08838  0.10678  1.0000
  H   H2033     1.0  0.67635  0.21771  0.17267  1.0000
  H   H2034     1.0  0.67507  0.12120  0.13287  1.0000
  H   H2035     1.0  0.73383  0.11346  0.10422  1.0000
  H   H2036     1.0  0.72811  0.07931  0.09945  1.0000
  C   C1268     1.0  0.81102  0.02512  0.07913  1.0000
  C   C1269     1.0  0.80356  0.04319  0.06984  1.0000
  C   C1270     1.0  0.81724  0.05566  0.06040  1.0000
  C   C1271     1.0  0.83849  0.05026  0.06016  1.0000
  C   C1272     1.0  0.84595  0.03225  0.06952  1.0000
  C   C1273     1.0  0.83227  0.01975  0.07891  1.0000
  H   H2037     1.0  0.78725  0.04761  0.06998  1.0000
  H   H2038     1.0  0.81130  0.06963  0.05328  1.0000
  H   H2039     1.0  0.86225  0.02794  0.06951  1.0000
  H   H2040     1.0  0.83820  0.00583  0.08610  1.0000
  H   H2041     1.0  0.97981  0.46073  0.01291  1.0000
  C   C1274     1.0  0.70780  0.99187  0.02431  1.0000
  H   H2042     1.0  0.90033  0.07601  0.99181  1.0000
  C   C1275     1.0  0.88409  0.27041  0.12140  1.0000
  C   C1276     1.0  0.90131  0.27234  0.10984  1.0000
  C   C1277     1.0  0.91986  0.25937  0.11154  1.0000
  C   C1278     1.0  0.92140  0.24443  0.12490  1.0000
  C   C1279     1.0  0.90414  0.24238  0.13646  1.0000
  C   C1280     1.0  0.88547  0.25525  0.13467  1.0000
  H   H2043     1.0  0.90038  0.28413  0.09960  1.0000
  H   H2044     1.0  0.93309  0.26129  0.10267  1.0000
  H   H2045     1.0  0.90520  0.23073  0.14678  1.0000
  H   H2046     1.0  0.87220  0.25348  0.14353  1.0000
  C   C1281     1.0  0.75234  0.24156  0.14341  1.0000
  C   C1282     1.0  0.74616  0.22412  0.13964  1.0000
  C   C1283     1.0  0.72549  0.22357  0.13880  1.0000
  C   C1284     1.0  0.71084  0.24058  0.14160  1.0000
  C   C1285     1.0  0.71693  0.25793  0.14564  1.0000
  C   C1286     1.0  0.73760  0.25836  0.14668  1.0000
  H   H2047     1.0  0.75745  0.21100  0.13720  1.0000
  H   H2048     1.0  0.72098  0.21011  0.13571  1.0000
  H   H2049     1.0  0.70563  0.27105  0.14799  1.0000
  H   H2050     1.0  0.74218  0.27168  0.14993  1.0000
  H   H2051     1.0  0.72626  0.29817  0.12859  1.0000
  C   C1287     1.0  0.69074  0.46323  0.03310  1.0000
  C   C1288     1.0  0.70425  0.45209  0.04349  1.0000
  C   C1289     1.0  0.71573  0.46214  0.05138  1.0000
  H   H2052     1.0  0.70586  0.43555  0.04546  1.0000
  H   H2053     1.0  0.72598  0.45334  0.05934  1.0000
  C   C1290     1.0  0.79276  0.40483  0.10588  1.0000
  C   C1291     1.0  0.77236  0.40310  0.10547  1.0000
  C   C1292     1.0  0.76523  0.38419  0.11090  1.0000
  C   C1293     1.0  0.77840  0.36694  0.11680  1.0000
  C   C1294     1.0  0.79876  0.36872  0.11721  1.0000
  C   C1295     1.0  0.80590  0.38756  0.11173  1.0000
  H   H2054     1.0  0.76215  0.41625  0.10082  1.0000
  H   H2055     1.0  0.74947  0.38292  0.11046  1.0000
  H   H2056     1.0  0.80910  0.35553  0.12155  1.0000
  H   H2057     1.0  0.82172  0.38875  0.11201  1.0000
  H   H2058     1.0  0.76951  0.01554  0.04073  1.0000
  H   H2059     1.0  0.77892  0.46665  0.13868  1.0000
  C   C1296     1.0  0.76007  0.44255  0.16284  1.0000
  H   H2060     1.0  0.82896  0.26599  0.19449  1.0000
  C   C1297     1.0  0.78624  0.45041  0.14088  1.0000
  H   H2061     1.0  0.66998  0.12719  0.07473  1.0000
  H   H2062     1.0  0.96109  0.01310  0.03135  1.0000
  H   H2063     1.0  0.90713  0.29049  0.17058  1.0000
  S   S529      1.0  0.66704  0.99315  0.97613  1.0000
  C   C1298     1.0  0.90959  0.07073  0.98130  1.0000
  H   H2064     1.0  0.83795  0.07876  0.08196  1.0000
  H   H2065     1.0  0.67134  0.11579  0.09495  1.0000
  H   H2066     1.0  0.78952  0.41068  0.13828  1.0000
  N   N125      1.0  0.91123  0.21253  0.08481  1.0000
  C   C1299     1.0  0.90794  0.19699  0.07545  1.0000
  C   C1300     1.0  0.89241  0.21831  0.09571  1.0000
  C   C1301     1.0  0.91667  0.23085  0.07381  1.0000
  C   C1302     1.0  0.92805  0.20399  0.09426  1.0000
  H   H2067     1.0  0.90470  0.18256  0.08326  1.0000
  H   H2068     1.0  0.92173  0.19291  0.06676  1.0000
  H   H2069     1.0  0.89498  0.20264  0.06850  1.0000
  H   H2070     1.0  0.88787  0.20485  0.10418  1.0000
  H   H2071     1.0  0.89455  0.22996  0.10298  1.0000
  H   H2072     1.0  0.87939  0.22503  0.08902  1.0000
  H   H2073     1.0  0.91927  0.24294  0.08045  1.0000
  H   H2074     1.0  0.90439  0.23767  0.06642  1.0000
  H   H2075     1.0  0.93094  0.22701  0.06549  1.0000
  H   H2076     1.0  0.93094  0.21525  0.10149  1.0000
  H   H2077     1.0  0.94253  0.19969  0.08641  1.0000
  H   H2078     1.0  0.92464  0.19002  0.10261  1.0000
  N   N126      1.0  0.74448  0.30030  0.10546  1.0000
  C   C1303     1.0  0.72635  0.30370  0.09709  1.0000
  C   C1304     1.0  0.75993  0.31263  0.09628  1.0000
  C   C1305     1.0  0.75316  0.27833  0.10703  1.0000
  H   H2079     1.0  0.73035  0.29910  0.08494  1.0000
  H   H2080     1.0  0.71940  0.32012  0.09575  1.0000
  H   H2081     1.0  0.71437  0.29461  0.10373  1.0000
  H   H2082     1.0  0.77378  0.31050  0.10229  1.0000
  H   H2083     1.0  0.75399  0.32933  0.09511  1.0000
  H   H2084     1.0  0.76487  0.30846  0.08407  1.0000
  H   H2085     1.0  0.74160  0.26851  0.11325  1.0000
  H   H2086     1.0  0.76623  0.27494  0.11405  1.0000
  H   H2087     1.0  0.75879  0.27323  0.09518  1.0000
  N   N127      1.0  0.85737  0.09978  0.08525  1.0000
  C   C1306     1.0  0.86236  0.10664  0.06799  1.0000
  C   C1307     1.0  0.84007  0.11405  0.09202  1.0000
  C   C1308     1.0  0.87539  0.09947  0.09325  1.0000
  C   C1309     1.0  0.85163  0.07899  0.08772  1.0000
  H   H2088     1.0  0.86700  0.12216  0.06560  1.0000
  H   H2089     1.0  0.84922  0.10688  0.06148  1.0000
  H   H2090     1.0  0.87527  0.09613  0.06253  1.0000
  H   H2091     1.0  0.83580  0.10927  0.10503  1.0000
  H   H2092     1.0  0.84387  0.12989  0.09038  1.0000
  H   H2093     1.0  0.82627  0.11465  0.08617  1.0000
  H   H2094     1.0  0.87221  0.09456  0.10632  1.0000
  H   H2095     1.0  0.88048  0.11480  0.09128  1.0000
  H   H2096     1.0  0.88869  0.08874  0.08849  1.0000
  H   H2097     1.0  0.84808  0.07308  0.10060  1.0000
  C   C1310     1.0  0.68886  0.48462  0.03069  1.0000
  H   H2098     1.0  0.68882  0.23852  0.17481  1.0000
  S   S530      1.0  0.79297  0.48395  0.10434  1.0000
  C   C1311     1.0  0.73842  0.30659  0.12149  1.0000
  H   H2099     1.0  0.75163  0.30367  0.12832  1.0000
  C   C1312     1.0  0.81593  0.29194  0.20654  1.0000
  C   C1313     1.0  0.74790  0.45186  0.98360  1.0000
  S   S531      1.0  0.78517  0.47802  0.06845  1.0000
  S   S532      1.0  0.94807  0.01136  0.06545  1.0000
  H   H2100     1.0  0.98538  0.47327  0.99281  1.0000
  N   N128      1.0  0.77084  0.43673  0.14744  1.0000
  H   H2101     1.0  0.69709  0.45011  0.98709  1.0000
  S   S533      1.0  0.66402  0.48374  0.98217  1.0000
  C   C1314     1.0  0.82776  0.27280  0.20526  1.0000
  H   H2102     1.0  0.79481  0.44629  0.12931  1.0000
  H   H2103     1.0  0.76369  0.43511  0.12428  1.0000
  C   C1315     1.0  0.93086  0.06670  0.98059  1.0000
  S   S534      1.0  0.75020  0.46796  0.09977  1.0000
  S   S535      1.0  0.97013  0.18931  0.05858  1.0000
  N   N129      1.0  0.87475  0.29776  0.17019  1.0000
  H   H2104     1.0  0.85476  0.30610  0.19119  1.0000
  H   H2105     1.0  0.86293  0.30276  0.14782  1.0000
  H   H2106     1.0  0.88991  0.29469  0.14635  1.0000
  H   H2107     1.0  0.66907  0.08741  0.12770  1.0000
  C   C1316     1.0  0.71355  0.44399  0.98698  1.0000
  H   H2108     1.0  0.74818  0.43267  0.16804  1.0000
  H   H2109     1.0  0.71998  0.99858  0.01646  1.0000
  C   C1317     1.0  0.71380  0.48354  0.04901  1.0000
  C   C1318     1.0  0.68195  0.18190  0.21039  1.0000
  H   H2110     1.0  0.98733  0.99064  0.01572  1.0000
  H   H2111     1.0  0.69731  0.18569  0.20764  1.0000
  H   H2112     1.0  0.72248  0.46605  0.00793  1.0000
  C   C1319     1.0  0.70675  0.99100  0.04093  1.0000
  H   H2113     1.0  0.87938  0.32049  0.14953  1.0000
  H   H2114     1.0  0.66050  0.26365  0.16624  1.0000
  C   C1320     1.0  0.89351  0.30004  0.17626  1.0000
  C   C1321     1.0  0.95890  0.16632  0.06193  1.0000
  H   H2115     1.0  0.66627  0.24344  0.20876  1.0000
  H   H2116     1.0  0.98579  0.19378  0.15009  1.0000
  C   C1322     1.0  0.75594  0.43880  0.13616  1.0000
  N   N130      1.0  0.72618  0.46069  0.98353  1.0000
  H   H2117     1.0  0.71755  0.43345  0.97780  1.0000
  C   C1323     1.0  0.96699  0.99601  0.05408  1.0000
  H   H2118     1.0  0.96045  0.16526  0.03678  1.0000
  C   C1324     1.0  0.98505  0.98737  0.02861  1.0000
  H   H2119     1.0  0.69545  0.11789  0.21309  1.0000
  C   C1325     1.0  0.66447  0.15637  0.09398  1.0000
  H   H2120     1.0  0.79236  0.41306  0.15827  1.0000
  C   C1326     1.0  0.83791  0.26238  0.21805  1.0000
  C   C1327     1.0  0.87147  0.27609  0.17376  1.0000
  H   H2121     1.0  0.79763  0.44954  0.14913  1.0000
  S   S536      1.0  0.72575  0.00081  0.04849  1.0000
  N   N131      1.0  0.79126  0.98860  0.04615  1.0000
  C   C1328     1.0  0.87689  0.30422  0.15274  1.0000
  H   H2122     1.0  0.95497  0.16272  0.08759  1.0000
  H   H2123     1.0  0.85893  0.32714  0.17563  1.0000
  H   H2124     1.0  0.84269  0.30935  0.17362  1.0000
  H   H2125     1.0  0.77029  0.00698  0.06151  1.0000
  H   H2126     1.0  0.86973  0.27070  0.18684  1.0000
  H   H2127     1.0  0.71511  0.43487  0.99893  1.0000
  H   H2128     1.0  0.98429  0.46459  0.06500  1.0000
  H   H2129     1.0  0.74439  0.42827  0.14039  1.0000
  H   H2130     1.0  0.89234  0.29529  0.18941  1.0000
  H   H2131     1.0  0.85740  0.27387  0.16936  1.0000
  H   H2132     1.0  0.79039  0.01967  0.05012  1.0000
  C   C1329     1.0  0.66065  0.12411  0.08659  1.0000
  H   H2133     1.0  0.70342  0.48068  0.99662  1.0000
  H   H2134     1.0  0.88446  0.26590  0.16797  1.0000
  H   H2135     1.0  0.66951  0.11334  0.21956  1.0000
  C   C1330     1.0  0.66025  0.25292  0.19810  1.0000
  C   C1331     1.0  0.67774  0.22823  0.18110  1.0000
  H   H2136     1.0  0.76991  0.40442  0.15431  1.0000
  H   H2137     1.0  0.75052  0.44282  0.99540  1.0000
  C   C1332     1.0  0.97020  0.00014  0.03743  1.0000
  H   H2138     1.0  0.79637  0.99879  0.02096  1.0000
  H   H2139     1.0  0.81418  0.98956  0.06079  1.0000
  H   H2140     1.0  0.75786  0.46406  0.98113  1.0000
  S   S537      1.0  0.98413  0.19492  0.10137  1.0000
  C   C1333     1.0  0.71996  0.47437  0.99590  1.0000
  Fe  Fe269     1.0  0.98191  0.20627  0.07562  1.0000
  H   H2141     1.0  0.67470  0.15992  0.08264  1.0000
  H   H2142     1.0  0.67433  0.14887  0.10315  1.0000
  H   H2143     1.0  0.75308  0.44146  0.97439  1.0000
  Fe  Fe270     1.0  0.65710  0.45979  0.00310  1.0000
  H   H2144     1.0  0.81634  0.00178  0.03167  1.0000
  H   H2145     1.0  0.84701  0.24753  0.21707  1.0000
  S   S538      1.0  0.65746  0.43511  0.98798  1.0000
  C   C1334     1.0  0.80507  0.99160  0.03095  1.0000
  H   H2146     1.0  0.79738  0.47997  0.21844  1.0000
  N   N132      1.0  0.65772  0.23995  0.18638  1.0000
  H   H2147     1.0  0.65763  0.03416  0.00917  1.0000
  C   C1335     1.0  0.73982  0.11863  0.30231  1.0000
  S   S539      1.0  0.96542  0.25673  0.38436  1.0000
  C   C1336     1.0  0.94614  0.10140  0.44881  1.0000
  H   H2148     1.0  0.72069  0.37272  0.35716  1.0000
  Fe  Fe271     1.0  0.96984  0.25035  0.35891  1.0000
  S   S540      1.0  0.95041  0.26536  0.33932  1.0000
  Fe  Fe272     1.0  0.82684  0.29980  0.29475  1.0000
  S   S541      1.0  0.81787  0.27745  0.31618  1.0000
  S   S542      1.0  0.82800  0.33305  0.29629  1.0000
  Fe  Fe273     1.0  0.83814  0.26672  0.27288  1.0000
  S   S543      1.0  0.83072  0.24171  0.29296  1.0000
  S   S544      1.0  0.84844  0.25733  0.24822  1.0000
  Fe  Fe274     1.0  0.80269  0.26377  0.29967  1.0000
  S   S545      1.0  0.76956  0.25819  0.30409  1.0000
  Fe  Fe275     1.0  0.84685  0.25752  0.30754  1.0000
  S   S546      1.0  0.86741  0.24080  0.32584  1.0000
  S   S547      1.0  0.80933  0.28809  0.27887  1.0000
  S   S548      1.0  0.85662  0.28056  0.28685  1.0000
  C   C1337     1.0  0.69731  0.48241  0.39212  1.0000
  S   S549      1.0  0.86144  0.47773  0.44710  1.0000
  Fe  Fe276     1.0  0.71989  0.44758  0.35507  1.0000
  S   S550      1.0  0.73800  0.42059  0.36772  1.0000
  S   S551      1.0  0.68536  0.45475  0.36149  1.0000
  Fe  Fe277     1.0  0.75816  0.46120  0.33414  1.0000
  S   S552      1.0  0.77907  0.43463  0.34583  1.0000
  Fe  Fe278     1.0  0.75521  0.41575  0.34361  1.0000
  S   S553      1.0  0.75691  0.38295  0.33913  1.0000
  Fe  Fe279     1.0  0.76013  0.44194  0.36899  1.0000
  H   H2149     1.0  0.92301  0.39907  0.41667  1.0000
  S   S554      1.0  0.73547  0.44170  0.33059  1.0000
  S   S555      1.0  0.74086  0.46955  0.35756  1.0000
  H   H2150     1.0  0.69903  0.37692  0.31943  1.0000
  S   S556      1.0  0.68511  0.03079  0.34287  1.0000
  Fe  Fe280     1.0  0.70516  0.17345  0.29363  1.0000
  S   S557      1.0  0.70747  0.15659  0.27284  1.0000
  S   S558      1.0  0.73662  0.17573  0.29937  1.0000
  Fe  Fe281     1.0  0.68627  0.13661  0.28814  1.0000
  H   H2151     1.0  0.95751  0.11146  0.44951  1.0000
  Fe  Fe282     1.0  0.67957  0.17752  0.26624  1.0000
  H   H2152     1.0  0.87233  0.28036  0.34572  1.0000
  S   S559      1.0  0.68549  0.15204  0.30950  1.0000
  S   S560      1.0  0.67856  0.19626  0.28603  1.0000
  H   H2153     1.0  0.85909  0.32030  0.35969  1.0000
  S   S561      1.0  0.82833  0.01547  0.45071  1.0000
  C   C1338     1.0  0.66941  0.43642  0.37104  1.0000
  S   S562      1.0  0.69726  0.10316  0.28563  1.0000
  H   H2154     1.0  0.71764  0.40364  0.33658  1.0000
  S   S563      1.0  0.88950  0.02193  0.45015  1.0000
  C   C1339     1.0  0.68900  0.05074  0.32690  1.0000
  C   C1340     1.0  0.70214  0.04732  0.31287  1.0000
  C   C1341     1.0  0.70443  0.06352  0.30028  1.0000
  C   C1342     1.0  0.69377  0.08326  0.30168  1.0000
  C   C1343     1.0  0.68076  0.08673  0.31575  1.0000
  C   C1344     1.0  0.67837  0.07050  0.32830  1.0000
  H   H2155     1.0  0.71039  0.03216  0.31168  1.0000
  H   H2156     1.0  0.94755  0.37016  0.45913  1.0000
  H   H2157     1.0  0.74100  0.10506  0.29607  1.0000
  C   C1345     1.0  0.74572  0.99737  0.46457  1.0000
  N   N133      1.0  0.98445  0.22008  0.31395  1.0000
  N   N134      1.0  0.69558  0.38295  0.34367  1.0000
  C   C1346     1.0  0.85622  0.28795  0.34574  1.0000
  H   H2158     1.0  0.69300  0.41550  0.38187  1.0000
  C   C1347     1.0  0.98903  0.17413  0.41561  1.0000
  C   C1348     1.0  0.70084  0.40387  0.33887  1.0000
  C   C1349     1.0  0.78530  0.47382  0.39551  1.0000
  C   C1350     1.0  0.78242  0.45395  0.40261  1.0000
  H   H2159     1.0  0.94857  0.35819  0.42584  1.0000
  C   C1351     1.0  0.96871  0.15538  0.44402  1.0000
  C   C1352     1.0  0.80069  0.47873  0.41843  1.0000
  H   H2160     1.0  0.72413  0.08709  0.32113  1.0000
  C   C1353     1.0  0.76081  0.23507  0.30271  1.0000
  C   C1354     1.0  0.74006  0.23551  0.30154  1.0000
  C   C1355     1.0  0.73247  0.21756  0.30023  1.0000
  C   C1356     1.0  0.74554  0.19890  0.30035  1.0000
  C   C1357     1.0  0.76630  0.19846  0.30148  1.0000
  C   C1358     1.0  0.77395  0.21647  0.30255  1.0000
  H   H2161     1.0  0.72976  0.24982  0.30171  1.0000
  H   H2162     1.0  0.71645  0.21809  0.29945  1.0000
  H   H2163     1.0  0.77652  0.18408  0.30163  1.0000
  H   H2164     1.0  0.78992  0.21589  0.30354  1.0000
  C   C1359     1.0  0.83606  0.27093  0.23221  1.0000
  H   H2165     1.0  0.70846  0.46463  0.42964  1.0000
  C   C1360     1.0  0.82419  0.29003  0.23345  1.0000
  H   H2166     1.0  0.77059  0.01433  0.43919  1.0000
  H   H2167     1.0  0.82290  0.29690  0.24419  1.0000
  C   C1361     1.0  0.80788  0.34704  0.30780  1.0000
  C   C1362     1.0  0.79109  0.33803  0.31589  1.0000
  C   C1363     1.0  0.77564  0.34928  0.32545  1.0000
  C   C1364     1.0  0.77683  0.36960  0.32699  1.0000
  C   C1365     1.0  0.79363  0.37864  0.31892  1.0000
  C   C1366     1.0  0.80913  0.36735  0.30936  1.0000
  H   H2168     1.0  0.78999  0.32239  0.31478  1.0000
  H   H2169     1.0  0.76270  0.34218  0.33167  1.0000
  H   H2170     1.0  0.79468  0.39428  0.32003  1.0000
  H   H2171     1.0  0.82212  0.37439  0.30315  1.0000
  H   H2172     1.0  0.86341  0.32663  0.31523  1.0000
  C   C1367     1.0  0.92746  0.25808  0.33574  1.0000
  C   C1368     1.0  0.91829  0.26826  0.32240  1.0000
  C   C1369     1.0  0.90014  0.26292  0.31904  1.0000
  C   C1370     1.0  0.89084  0.24740  0.32906  1.0000
  C   C1371     1.0  0.90010  0.23712  0.34232  1.0000
  C   C1372     1.0  0.91831  0.24240  0.34565  1.0000
  H   H2173     1.0  0.92531  0.28033  0.31460  1.0000
  H   H2174     1.0  0.89334  0.27077  0.30868  1.0000
  H   H2175     1.0  0.89304  0.22510  0.35015  1.0000
  H   H2176     1.0  0.92514  0.23443  0.35597  1.0000
  H   H2177     1.0  0.80821  0.23081  0.25779  1.0000
  H   H2178     1.0  0.94822  0.39701  0.45262  1.0000
  H   H2179     1.0  0.79200  0.26623  0.23291  1.0000
  H   H2180     1.0  0.78661  0.43124  0.42323  1.0000
  H   H2181     1.0  0.69748  0.38284  0.36845  1.0000
  H   H2182     1.0  0.70011  0.35788  0.36259  1.0000
  C   C1373     1.0  0.96948  0.18300  0.42160  1.0000
  H   H2183     1.0  0.95321  0.09114  0.43981  1.0000
  C   C1374     1.0  0.83351  0.31918  0.33892  1.0000
  H   H2184     1.0  0.68174  0.08510  0.24024  1.0000
  H   H2185     1.0  0.88238  0.31375  0.34673  1.0000
  H   H2186     1.0  0.85734  0.30178  0.31471  1.0000
  H   H2187     1.0  0.96015  0.22195  0.33359  1.0000
  S   S564      1.0  0.68323  0.19063  0.24006  1.0000
  H   H2188     1.0  0.79617  0.23940  0.23155  1.0000
  C   C1375     1.0  0.78881  0.44656  0.41760  1.0000
  H   H2189     1.0  0.75446  0.23136  0.25136  1.0000
  H   H2190     1.0  0.88126  0.30417  0.32050  1.0000
  H   H2191     1.0  0.86557  0.33703  0.34155  1.0000
  H   H2192     1.0  0.92131  0.36180  0.42649  1.0000
  C   C1376     1.0  0.67312  0.38394  0.34622  1.0000
  H   H2193     1.0  0.66586  0.39365  0.35558  1.0000
  Fe  Fe283     1.0  0.65878  0.17351  0.30030  1.0000
  H   H2194     1.0  0.90268  0.13531  0.45468  1.0000
  C   C1377     1.0  0.78445  0.47542  0.22750  1.0000
  C   C1378     1.0  0.70378  0.37368  0.35863  1.0000
  H   H2195     1.0  0.98807  0.19574  0.29972  1.0000
  H   H2196     1.0  0.72528  0.12855  0.29996  1.0000
  S   S565      1.0  0.81569  0.00249  0.41123  1.0000
  S   S566      1.0  0.76986  0.43817  0.39381  1.0000
  H   H2197     1.0  0.72414  0.14161  0.32547  1.0000
  H   H2198     1.0  0.73941  0.47259  0.41120  1.0000
  H   H2199     1.0  0.72436  0.44817  0.38984  1.0000
  H   H2200     1.0  0.91012  0.37656  0.45909  1.0000
  H   H2201     1.0  0.66852  0.36848  0.35012  1.0000
  N   N135      1.0  0.85512  0.30959  0.33828  1.0000
  C   C1379     1.0  0.94874  0.38204  0.44840  1.0000
  H   H2202     1.0  0.77318  0.10747  0.31705  1.0000
  H   H2203     1.0  0.96085  0.14831  0.45497  1.0000
  Fe  Fe284     1.0  0.70281  0.99857  0.34340  1.0000
  C   C1380     1.0  0.79803  0.45879  0.42543  1.0000
  H   H2204     1.0  0.93293  0.34993  0.44389  1.0000
  H   H2205     1.0  0.78458  0.00214  0.45517  1.0000
  H   H2206     1.0  0.84862  0.27896  0.33923  1.0000
  C   C1381     1.0  0.70166  0.12839  0.24072  1.0000
  C   C1382     1.0  0.67158  0.18208  0.22593  1.0000
  H   H2207     1.0  0.67241  0.10185  0.31693  1.0000
  H   H2208     1.0  0.75950  0.26236  0.27221  1.0000
  C   C1383     1.0  0.77640  0.99921  0.44569  1.0000
  C   C1384     1.0  0.77458  0.99230  0.38406  1.0000
  Fe  Fe285     1.0  0.97511  0.22271  0.39038  1.0000
  Fe  Fe286     1.0  0.86166  0.00508  0.45322  1.0000
  H   H2209     1.0  0.80283  0.45287  0.43696  1.0000
  H   H2210     1.0  0.89957  0.38789  0.44117  1.0000
  H   H2211     1.0  0.74524  0.47912  0.24079  1.0000
  H   H2212     1.0  0.76363  0.22550  0.27029  1.0000
  H   H2213     1.0  0.82496  0.31144  0.33218  1.0000
  H   H2214     1.0  0.71454  0.06072  0.28943  1.0000
  H   H2215     1.0  0.66817  0.07326  0.33912  1.0000
  N   N136      1.0  0.93244  0.38257  0.43857  1.0000
  C   C1385     1.0  0.98561  0.29588  0.41077  1.0000
  H   H2216     1.0  0.91630  0.13633  0.42577  1.0000
  H   H2217     1.0  0.73833  0.47947  0.39034  1.0000
  H   H2218     1.0  0.95016  0.39473  0.41701  1.0000
  H   H2219     1.0  0.79307  0.24086  0.27484  1.0000
  H   H2220     1.0  0.89780  0.10806  0.43955  1.0000
  H   H2221     1.0  0.74198  0.99976  0.43343  1.0000
  H   H2222     1.0  0.94382  0.09163  0.46058  1.0000
  N   N137      1.0  0.71030  0.47141  0.40414  1.0000
  C   C1386     1.0  0.93059  0.12674  0.42922  1.0000
  C   C1387     1.0  0.78811  0.00133  0.39083  1.0000
  C   C1388     1.0  0.76844  0.22919  0.25723  1.0000
  C   C1389     1.0  0.75990  0.09936  0.32220  1.0000
  S   S567      1.0  0.97728  0.21627  0.36522  1.0000
  H   H2223     1.0  0.77214  0.27932  0.25692  1.0000
  C   C1390     1.0  0.69328  0.09446  0.24185  1.0000
  C   C1391     1.0  0.73860  0.13114  0.32734  1.0000
  H   H2224     1.0  0.93727  0.11751  0.41945  1.0000
  H   H2225     1.0  0.67002  0.39024  0.39483  1.0000
  H   H2226     1.0  0.75129  0.14014  0.32229  1.0000
  H   H2227     1.0  0.97570  0.28797  0.40599  1.0000
  C   C1392     1.0  0.89862  0.03609  0.46261  1.0000
  H   H2228     1.0  0.69635  0.14520  0.23874  1.0000
  H   H2229     1.0  0.79040  0.01699  0.38643  1.0000
  H   H2230     1.0  0.96410  0.37823  0.44152  1.0000
  C   C1393     1.0  0.72925  0.48061  0.40232  1.0000
  C   C1394     1.0  0.97300  0.23523  0.30282  1.0000
  N   N138      1.0  0.92667  0.11349  0.44465  1.0000
  C   C1395     1.0  0.76464  0.26529  0.25914  1.0000
  C   C1396     1.0  0.86476  0.31058  0.32147  1.0000
  H   H2231     1.0  0.73300  0.98857  0.46985  1.0000
  H   H2232     1.0  0.70106  0.35440  0.33414  1.0000
  H   H2233     1.0  0.93422  0.41369  0.42787  1.0000
  C   C1397     1.0  0.66395  0.40414  0.38770  1.0000
  H   H2234     1.0  0.78047  0.47974  0.38399  1.0000
  S   S568      1.0  0.95718  0.20567  0.41157  1.0000
  H   H2235     1.0  0.77147  0.25426  0.22950  1.0000
  H   H2236     1.0  0.97797  0.19867  0.33508  1.0000
  C   C1398     1.0  0.95934  0.17358  0.43582  1.0000
  C   C1399     1.0  0.72320  0.10125  0.32661  1.0000
  C   C1400     1.0  0.71560  0.44966  0.40182  1.0000
  H   H2237     1.0  0.76660  0.00099  0.37456  1.0000
  H   H2238     1.0  0.66963  0.11792  0.26207  1.0000
  C   C1401     1.0  0.70467  0.37032  0.33096  1.0000
  C   C1402     1.0  0.79426  0.48615  0.40344  1.0000
  C   C1403     1.0  0.93377  0.36228  0.43346  1.0000
  H   H2239     1.0  0.77871  0.21552  0.25329  1.0000
  H   H2240     1.0  0.72547  0.44081  0.41062  1.0000
  H   H2241     1.0  0.90822  0.09007  0.45505  1.0000
  H   H2242     1.0  0.75074  0.26874  0.25309  1.0000
  H   H2243     1.0  0.68305  0.47560  0.39296  1.0000
  H   H2244     1.0  0.76083  0.09450  0.33515  1.0000
  H   H2245     1.0  0.70761  0.08994  0.23389  1.0000
  C   C1404     1.0  0.67704  0.41840  0.38032  1.0000
  N   N139      1.0  0.74038  0.11260  0.31962  1.0000
  H   H2246     1.0  0.83213  0.33557  0.33346  1.0000
  H   H2247     1.0  0.69464  0.41149  0.32777  1.0000
  C   C1405     1.0  0.78483  0.25203  0.23611  1.0000
  C   C1406     1.0  0.86602  0.32068  0.34697  1.0000
  H   H2248     1.0  0.73886  0.12726  0.34042  1.0000
  H   H2249     1.0  0.76170  0.08522  0.31653  1.0000
  H   H2250     1.0  0.91063  0.40322  0.45175  1.0000
  H   H2251     1.0  0.84870  0.28651  0.35834  1.0000
  H   H2252     1.0  0.94155  0.13733  0.42970  1.0000
  H   H2253     1.0  0.92872  0.03398  0.44899  1.0000
  H   H2254     1.0  0.70175  0.44220  0.40276  1.0000
  H   H2255     1.0  0.69475  0.41378  0.34827  1.0000
  C   C1407     1.0  0.93504  0.39823  0.42438  1.0000
  H   H2256     1.0  0.80521  0.25757  0.25905  1.0000
  C   C1408     1.0  0.98823  0.14646  0.43800  1.0000
  C   C1409     1.0  0.92688  0.05151  0.46832  1.0000
  H   H2257     1.0  0.75237  0.12753  0.29665  1.0000
  H   H2258     1.0  0.96309  0.24739  0.30916  1.0000
  H   H2259     1.0  0.72297  0.09657  0.33969  1.0000
  C   C1410     1.0  0.91234  0.09949  0.44337  1.0000
  H   H2260     1.0  0.82555  0.31851  0.35138  1.0000
  S   S569      1.0  0.97893  0.33447  0.44379  1.0000
  H   H2261     1.0  0.70564  0.12448  0.25306  1.0000
  C   C1411     1.0  0.68157  0.12170  0.22174  1.0000
  H   H2262     1.0  0.78793  0.99116  0.43715  1.0000
  C   C1412     1.0  0.97752  0.30813  0.42282  1.0000
  H   H2263     1.0  0.70824  0.11073  0.32470  1.0000
  N   N140      1.0  0.68587  0.11661  0.23841  1.0000
  H   H2264     1.0  0.94421  0.18045  0.44048  1.0000
  H   H2265     1.0  0.72166  0.36930  0.32886  1.0000
  C   C1413     1.0  0.91760  0.12628  0.45725  1.0000
  C   C1414     1.0  0.79708  0.24399  0.26166  1.0000
  S   S570      1.0  0.77318  0.48456  0.31541  1.0000
  N   N141      1.0  0.77874  0.24761  0.25353  1.0000
  Fe  Fe287     1.0  0.83126  0.99225  0.43383  1.0000
  C   C1415     1.0  0.91900  0.03994  0.45904  1.0000
  C   C1416     1.0  0.91230  0.38777  0.44805  1.0000
  H   H2266     1.0  0.91902  0.08873  0.43464  1.0000
  H   H2267     1.0  0.73902  0.01297  0.45949  1.0000
  H   H2268     1.0  0.76091  0.47606  0.25648  1.0000
  C   C1417     1.0  0.79878  0.99027  0.40315  1.0000
  H   H2269     1.0  0.96138  0.30951  0.42727  1.0000
  H   H2270     1.0  0.68471  0.46599  0.42208  1.0000
  C   C1418     1.0  0.69906  0.47285  0.42032  1.0000
  H   H2271     1.0  0.71596  0.12527  0.23235  1.0000
  H   H2272     1.0  0.69658  0.09014  0.25440  1.0000
  H   H2273     1.0  0.98834  0.24297  0.32758  1.0000
  H   H2274     1.0  0.98348  0.24297  0.29319  1.0000
  H   H2275     1.0  0.95942  0.20277  0.32149  1.0000
  C   C1419     1.0  0.96988  0.21041  0.32657  1.0000
  H   H2276     1.0  0.79098  0.46380  0.23691  1.0000
  H   H2277     1.0  0.77483  0.46789  0.22151  1.0000
  H   H2278     1.0  0.66072  0.00946  0.37292  1.0000
  H   H2279     1.0  0.92780  0.13726  0.45842  1.0000
  Fe  Fe288     1.0  0.82191  0.98929  0.47018  1.0000
  H   H2280     1.0  0.94256  0.05430  0.46541  1.0000
  H   H2281     1.0  0.91485  0.11668  0.46912  1.0000
  H   H2282     1.0  0.66123  0.13858  0.24737  1.0000
  H   H2283     1.0  0.70528  0.48162  0.37976  1.0000
  S   S571      1.0  0.65813  0.15626  0.27989  1.0000
  C   C1420     1.0  0.66698  0.12189  0.24938  1.0000
  H   H2284     1.0  0.92648  0.99003  0.45249  1.0000
  H   H2285     1.0  0.80517  0.31535  0.22168  1.0000
  H   H2286     1.0  0.96285  0.22795  0.29713  1.0000
  H   H2287     1.0  0.66643  0.39067  0.33513  1.0000
  C   C1421     1.0  0.81423  0.30050  0.22065  1.0000
  N   N142      1.0  0.75987  0.98692  0.45233  1.0000
  Fe  Fe289     1.0  0.71146  0.47602  0.61197  1.0000
  H   H2288     1.0  0.71493  0.12177  0.65457  1.0000
  S   S572      1.0  0.94702  0.19493  0.62756  1.0000
  H   H2289     1.0  0.95304  0.16960  0.57889  1.0000
  C   C1422     1.0  0.79654  0.14255  0.70869  1.0000
  C   C1423     1.0  0.67569  0.17666  0.70611  1.0000
  S   S573      1.0  0.96758  0.08352  0.51420  1.0000
  C   C1424     1.0  0.97558  0.13277  0.58465  1.0000
  S   S574      1.0  0.95669  0.11974  0.48526  1.0000
  H   H2290     1.0  0.93494  0.14848  0.61135  1.0000
  S   S575      1.0  0.96453  0.14250  0.52161  1.0000
  Fe  Fe290     1.0  0.95372  0.08625  0.49154  1.0000
  S   S576      1.0  0.92242  0.07679  0.49185  1.0000
  C   C1425     1.0  0.67465  0.44033  0.63689  1.0000
  C   C1426     1.0  0.90813  0.43864  0.47782  1.0000
  C   C1427     1.0  0.83093  0.44606  0.51557  1.0000
  H   H2291     1.0  0.84482  0.11976  0.71352  1.0000
  S   S577      1.0  0.84282  0.24078  0.70821  1.0000
  H   H2292     1.0  0.83036  0.47121  0.53683  1.0000
  Fe  Fe291     1.0  0.87705  0.23399  0.70290  1.0000
  S   S578      1.0  0.89301  0.24703  0.67897  1.0000
  C   C1428     1.0  0.68578  0.44306  0.55833  1.0000
  H   H2293     1.0  0.73470  0.44526  0.70540  1.0000
  H   H2294     1.0  0.73686  0.31851  0.70529  1.0000
  H   H2295     1.0  0.67430  0.44487  0.56911  1.0000
  H   H2296     1.0  0.76279  0.31561  0.70891  1.0000
  H   H2297     1.0  0.75605  0.09254  0.62873  1.0000
  H   H2298     1.0  0.73427  0.07937  0.67068  1.0000
  H   H2299     1.0  0.66370  0.44776  0.62852  1.0000
  C   C1429     1.0  0.75043  0.08394  0.64040  1.0000
  Fe  Fe292     1.0  0.76166  0.06223  0.68956  1.0000
  S   S579      1.0  0.73146  0.06939  0.70495  1.0000
  S   S580      1.0  0.76940  0.04366  0.66846  1.0000
  Fe  Fe293     1.0  0.78182  0.09150  0.70480  1.0000
  H   H2300     1.0  0.67167  0.32385  0.70605  1.0000
  C   C1430     1.0  0.81332  0.12707  0.70955  1.0000
  H   H2301     1.0  0.67988  0.41982  0.61192  1.0000
  Fe  Fe294     1.0  0.73697  0.10228  0.69939  1.0000
  S   S581      1.0  0.71520  0.12933  0.68912  1.0000
  C   C1431     1.0  0.79840  0.16260  0.71062  1.0000
  S   S582      1.0  0.76632  0.09533  0.68304  1.0000
  S   S583      1.0  0.69682  0.42586  0.70213  1.0000
  H   H2302     1.0  0.86727  0.42189  0.51486  1.0000
  H   H2303     1.0  0.74082  0.11478  0.65814  1.0000
  S   S584      1.0  0.79220  0.99350  0.48731  1.0000
  H   H2304     1.0  0.93503  0.38309  0.48912  1.0000
  H   H2305     1.0  0.93760  0.44759  0.47760  1.0000
  H   H2306     1.0  0.84784  0.15509  0.71743  1.0000
  H   H2307     1.0  0.95262  0.17729  0.59806  1.0000
  S   S585      1.0  0.73085  0.45741  0.63030  1.0000
  Fe  Fe295     1.0  0.67344  0.47527  0.59654  1.0000
  H   H2308     1.0  0.71579  0.46573  0.69883  1.0000
  S   S586      1.0  0.70544  0.45865  0.59345  1.0000
  S   S587      1.0  0.81193  0.10191  0.70639  1.0000
  H   H2309     1.0  0.85179  0.42843  0.54965  1.0000
  C   C1432     1.0  0.89688  0.42236  0.48040  1.0000
  C   C1433     1.0  0.75181  0.48359  0.53969  1.0000
  H   H2310     1.0  0.94535  0.12271  0.60795  1.0000
  C   C1434     1.0  0.70702  0.43495  0.68243  1.0000
  C   C1435     1.0  0.72627  0.42665  0.67540  1.0000
  C   C1436     1.0  0.73364  0.43414  0.65956  1.0000
  C   C1437     1.0  0.72182  0.44990  0.65062  1.0000
  C   C1438     1.0  0.70287  0.45865  0.65787  1.0000
  C   C1439     1.0  0.69545  0.45109  0.67366  1.0000
  H   H2311     1.0  0.73540  0.41432  0.68209  1.0000
  H   H2312     1.0  0.74841  0.42741  0.65409  1.0000
  H   H2313     1.0  0.69385  0.47114  0.65125  1.0000
  H   H2314     1.0  0.68064  0.45777  0.67910  1.0000
  C   C1440     1.0  0.75617  0.02876  0.65927  1.0000
  C   C1441     1.0  0.73661  0.02422  0.66560  1.0000
  C   C1442     1.0  0.72653  0.01301  0.65752  1.0000
  C   C1443     1.0  0.73584  0.00606  0.64306  1.0000
  C   C1444     1.0  0.75550  0.01038  0.63681  1.0000
  C   C1445     1.0  0.76555  0.02165  0.64487  1.0000
  H   H2315     1.0  0.72925  0.02931  0.67675  1.0000
  H   H2316     1.0  0.73537  0.12406  0.63820  1.0000
  H   H2317     1.0  0.78071  0.02498  0.63985  1.0000
  H   H2318     1.0  0.76292  0.00516  0.62573  1.0000
  C   C1446     1.0  0.69138  0.40860  0.64982  1.0000
  H   H2319     1.0  0.83944  0.21532  0.68534  1.0000
  H   H2320     1.0  0.69827  0.43512  0.52833  1.0000
  N   N143      1.0  0.67846  0.41787  0.63732  1.0000
  S   S588      1.0  0.82209  0.46679  0.47368  1.0000
  C   C1447     1.0  0.80622  0.31726  0.71373  1.0000
  H   H2321     1.0  0.71487  0.07743  0.63329  1.0000
  C   C1448     1.0  0.93886  0.41486  0.48331  1.0000
  C   C1449     1.0  0.69769  0.14427  0.70200  1.0000
  H   H2322     1.0  0.70652  0.41405  0.64722  1.0000
  N   N144      1.0  0.67774  0.45410  0.54373  1.0000
  H   H2323     1.0  0.96886  0.21947  0.64564  1.0000
  S   S589      1.0  0.78005  0.05768  0.71010  1.0000
  C   C1450     1.0  0.97215  0.16862  0.54074  1.0000
  C   C1451     1.0  0.71539  0.09327  0.63554  1.0000
  C   C1452     1.0  0.65945  0.44572  0.54168  1.0000
  H   H2324     1.0  0.97678  0.18378  0.50493  1.0000
  H   H2325     1.0  0.75070  0.06777  0.63861  1.0000
  C   C1453     1.0  0.91426  0.05987  0.48103  1.0000
  H   H2326     1.0  0.87848  0.43576  0.52662  1.0000
  Fe  Fe296     1.0  0.98609  0.38189  0.48038  1.0000
  C   C1454     1.0  0.97991  0.21252  0.65402  1.0000
  H   H2327     1.0  0.96884  0.30973  0.55276  1.0000
  H   H2328     1.0  0.95252  0.24243  0.66580  1.0000
  H   H2329     1.0  0.97725  0.11619  0.58948  1.0000
  H   H2330     1.0  0.75406  0.29549  0.70157  1.0000
  H   H2331     1.0  0.78225  0.13918  0.70620  1.0000
  Fe  Fe297     1.0  0.97203  0.20932  0.61051  1.0000
  C   C1455     1.0  0.96136  0.16719  0.58941  1.0000
  H   H2332     1.0  0.97318  0.20316  0.48807  1.0000
  C   C1456     1.0  0.69056  0.16480  0.69646  1.0000
  C   C1457     1.0  0.92761  0.39854  0.48585  1.0000
  H   H2333     1.0  0.71139  0.00965  0.66255  1.0000
  C   C1458     1.0  0.98378  0.30286  0.54770  1.0000
  H   H2334     1.0  0.95839  0.22230  0.68163  1.0000
  H   H2335     1.0  0.91713  0.99954  0.47964  1.0000
  S   S590      1.0  0.72229  0.99178  0.63360  1.0000
  C   C1459     1.0  0.92899  0.43490  0.47946  1.0000
  C   C1460     1.0  0.96460  0.23510  0.67330  1.0000
  H   H2336     1.0  0.82764  0.28925  0.71317  1.0000
  S   S591      1.0  0.77846  0.35231  0.71401  1.0000
  H   H2337     1.0  0.96791  0.13502  0.57377  1.0000
  S   S592      1.0  0.96499  0.41103  0.48541  1.0000
  H   H2338     1.0  0.83110  0.43116  0.51134  1.0000
  C   C1461     1.0  0.93216  0.20946  0.64188  1.0000
  C   C1462     1.0  0.92890  0.23085  0.63895  1.0000
  C   C1463     1.0  0.91685  0.24212  0.65045  1.0000
  C   C1464     1.0  0.90826  0.23215  0.66507  1.0000
  C   C1465     1.0  0.91192  0.21076  0.66817  1.0000
  C   C1466     1.0  0.92362  0.19944  0.65652  1.0000
  H   H2339     1.0  0.93538  0.23873  0.62769  1.0000
  H   H2340     1.0  0.91411  0.25867  0.64798  1.0000
  H   H2341     1.0  0.90583  0.20302  0.67957  1.0000
  H   H2342     1.0  0.92634  0.18290  0.65894  1.0000
  H   H2343     1.0  0.75378  0.99915  0.47455  1.0000
  H   H2344     1.0  0.68897  0.44707  0.63282  1.0000
  C   C1467     1.0  0.72933  0.46195  0.70533  1.0000
  Fe  Fe298     1.0  0.85645  0.45931  0.47131  1.0000
  H   H2345     1.0  0.95754  0.17724  0.53832  1.0000
  H   H2346     1.0  0.72128  0.06527  0.66066  1.0000
  H   H2347     1.0  0.69959  0.09988  0.64019  1.0000
  H   H2348     1.0  0.76171  0.08364  0.64868  1.0000
  H   H2349     1.0  0.82522  0.43521  0.54732  1.0000
  H   H2350     1.0  0.80790  0.32112  0.70087  1.0000
  C   C1468     1.0  0.83357  0.15173  0.71491  1.0000
  H   H2351     1.0  0.68421  0.41264  0.66177  1.0000
  C   C1469     1.0  0.90659  0.40234  0.48463  1.0000
  H   H2352     1.0  0.75644  0.99286  0.51073  1.0000
  H   H2353     1.0  0.89379  0.98995  0.47995  1.0000
  H   H2354     1.0  0.86411  0.21974  0.67486  1.0000
  H   H2355     1.0  0.84055  0.41450  0.53798  1.0000
  H   H2356     1.0  0.96959  0.17661  0.47153  1.0000
  H   H2357     1.0  0.66080  0.47860  0.55591  1.0000
  H   H2358     1.0  0.69669  0.17160  0.68471  1.0000
  S   S593      1.0  0.98005  0.34923  0.48441  1.0000
  H   H2359     1.0  0.68806  0.45978  0.51856  1.0000
  C   C1470     1.0  0.69358  0.45154  0.52977  1.0000
  H   H2360     1.0  0.97968  0.25314  0.64462  1.0000
  C   C1471     1.0  0.81692  0.16733  0.71363  1.0000
  C   C1472     1.0  0.75856  0.47677  0.52478  1.0000
  H   H2361     1.0  0.71995  0.10240  0.62382  1.0000
  C   C1473     1.0  0.98485  0.19181  0.49388  1.0000
  C   C1474     1.0  0.68989  0.13573  0.71730  1.0000
  H   H2362     1.0  0.85683  0.46444  0.53969  1.0000
  H   H2363     1.0  0.83420  0.45740  0.50486  1.0000
  H   H2364     1.0  0.97634  0.17262  0.58531  1.0000
  H   H2365     1.0  0.93482  0.14063  0.59230  1.0000
  C   C1475     1.0  0.97573  0.14318  0.61027  1.0000
  C   C1476     1.0  0.97957  0.15059  0.53393  1.0000
  C   C1477     1.0  0.98071  0.16607  0.47850  1.0000
  H   H2366     1.0  0.97763  0.18962  0.55570  1.0000
  H   H2367     1.0  0.66812  0.44477  0.64882  1.0000
  H   H2368     1.0  0.87115  0.44771  0.50769  1.0000
  S   S594      1.0  0.72130  0.36785  0.71864  1.0000
  H   H2369     1.0  0.96788  0.15317  0.61931  1.0000
  H   H2370     1.0  0.70757  0.45776  0.53103  1.0000
  H   H2371     1.0  0.97180  0.15832  0.48916  1.0000
  C   C1478     1.0  0.86663  0.43715  0.51867  1.0000
  Fe  Fe299     1.0  0.98730  0.10913  0.47219  1.0000
  H   H2372     1.0  0.89788  0.38971  0.48685  1.0000
  C   C1479     1.0  0.73024  0.11439  0.64949  1.0000
  H   H2373     1.0  0.69960  0.44897  0.56024  1.0000
  H   H2374     1.0  0.78542  0.17457  0.70962  1.0000
  Fe  Fe300     1.0  0.97315  0.11617  0.50671  1.0000
  N   N145      1.0  0.84604  0.44454  0.52662  1.0000
  H   H2375     1.0  0.69005  0.42639  0.55772  1.0000
  C   C1480     1.0  0.84067  0.43001  0.54104  1.0000
  H   H2376     1.0  0.70810  0.08825  0.66818  1.0000
  C   C1481     1.0  0.89398  0.05581  0.48469  1.0000
  H   H2377     1.0  0.84995  0.47627  0.52057  1.0000
  H   H2378     1.0  0.74159  0.47026  0.69823  1.0000
  S   S595      1.0  0.65721  0.28522  0.71331  1.0000
  H   H2379     1.0  0.82303  0.18764  0.68040  1.0000
  S   S596      1.0  0.98340  0.07581  0.47681  1.0000
  H   H2380     1.0  0.82385  0.19884  0.65986  1.0000
  H   H2381     1.0  0.78167  0.47680  0.50395  1.0000
  H   H2382     1.0  0.81514  0.45127  0.52123  1.0000
  S   S597      1.0  0.98113  0.27393  0.57438  1.0000
  H   H2383     1.0  0.70405  0.41870  0.61866  1.0000
  H   H2384     1.0  0.84195  0.22660  0.66482  1.0000
  H   H2385     1.0  0.69423  0.39161  0.65077  1.0000
  S   S598      1.0  0.97436  0.21676  0.58379  1.0000
  H   H2386     1.0  0.88406  0.06219  0.49449  1.0000
  C   C1482     1.0  0.67218  0.47611  0.54519  1.0000
  C   C1483     1.0  0.98349  0.17565  0.55064  1.0000
  C   C1484     1.0  0.68910  0.41282  0.62165  1.0000
  N   N146      1.0  0.96413  0.14550  0.59667  1.0000
  N   N147      1.0  0.72976  0.09317  0.64691  1.0000
  H   H2387     1.0  0.67064  0.19255  0.70192  1.0000
  N   N148      1.0  0.85263  0.19421  0.66889  1.0000
  C   C1485     1.0  0.86495  0.19450  0.65293  1.0000
  C   C1486     1.0  0.86352  0.17947  0.68060  1.0000
  C   C1487     1.0  0.83261  0.18800  0.66847  1.0000
  C   C1488     1.0  0.84942  0.21487  0.67366  1.0000
  H   H2388     1.0  0.87996  0.19958  0.65284  1.0000
  H   H2389     1.0  0.85704  0.20528  0.64376  1.0000
  H   H2390     1.0  0.86805  0.17905  0.64909  1.0000
  H   H2391     1.0  0.85514  0.17978  0.69288  1.0000
  H   H2392     1.0  0.86522  0.16350  0.67796  1.0000
  H   H2393     1.0  0.87904  0.18311  0.68079  1.0000
  H   H2394     1.0  0.83437  0.17239  0.66504  1.0000
  H   H2395     1.0  0.98584  0.32629  0.52708  1.0000
  H   H2396     1.0  0.68577  0.48302  0.54633  1.0000
  C   C1489     1.0  0.72298  0.08101  0.66226  1.0000
  C   C1490     1.0  0.84584  0.46495  0.53118  1.0000
  H   H2397     1.0  0.96690  0.24664  0.68057  1.0000
  H   H2398     1.0  0.97350  0.19945  0.66181  1.0000
  S   S599      1.0  0.72861  0.47674  0.55083  1.0000
  H   H2399     1.0  0.69213  0.39599  0.62147  1.0000
  H   H2400     1.0  0.98850  0.15406  0.47111  1.0000
  H   H2401     1.0  0.66550  0.48490  0.53462  1.0000
  C   C1491     1.0  0.83180  0.13171  0.71275  1.0000
  C   C1492     1.0  0.94390  0.13901  0.60233  1.0000
  Fe  Fe301     1.0  0.71341  0.48523  0.57523  1.0000
  C   C1493     1.0  0.77677  0.48200  0.51544  1.0000
  S   S600      1.0  0.87078  0.42656  0.47812  1.0000
  C   C1494     1.0  0.88625  0.04380  0.47567  1.0000
  H   H2402     1.0  0.97776  0.12710  0.61632  1.0000
  H   H2403     1.0  0.74959  0.46749  0.52038  1.0000
  S   S601      1.0  0.87881  0.20063  0.71289  1.0000
  S   S602      1.0  0.86111  0.48441  0.48408  1.0000
  C   C1495     1.0  0.67265  0.31850  0.71856  1.0000
  H   H2404     1.0  0.66097  0.39292  0.64133  1.0000
  N   N149      1.0  0.98379  0.22778  0.66337  1.0000
  H   H2405     1.0  0.66310  0.42920  0.54029  1.0000
  H   H2406     1.0  0.87056  0.04099  0.47857  1.0000
  S   S603      1.0  0.98624  0.23615  0.61351  1.0000
  S   S604      1.0  0.81858  0.19316  0.71480  1.0000
  C   C1496     1.0  0.65875  0.40986  0.64087  1.0000
  C   C1497     1.0  0.74957  0.30721  0.70979  1.0000
  Fe  Fe302     1.0  0.71418  0.40178  0.71893  1.0000
  H   H2407     1.0  0.90081  0.45412  0.47456  1.0000
  H   H2408     1.0  0.73019  0.27400  0.71965  1.0000
  Fe  Fe303     1.0  0.84474  0.20785  0.71973  1.0000
  C   C1498     1.0  0.76947  0.98648  0.51682  1.0000
  S   S605      1.0  0.90218  0.19493  0.75391  1.0000
  H   H2409     1.0  0.74181  0.47575  0.79833  1.0000
  C   C1499     1.0  0.87043  0.26070  0.76840  1.0000
  C   C1500     1.0  0.67463  0.14742  0.72676  1.0000
  S   S606      1.0  0.95303  0.23867  0.83711  1.0000
  H   H2410     1.0  0.97284  0.22222  0.87634  1.0000
  Fe  Fe304     1.0  0.96353  0.23483  0.81146  1.0000
  S   S607      1.0  0.94337  0.24680  0.79211  1.0000
  C   C1501     1.0  0.69104  0.44919  0.87998  1.0000
  H   H2411     1.0  0.70394  0.45887  0.74317  1.0000
  S   S608      1.0  0.75660  0.45073  0.82700  1.0000
  H   H2412     1.0  0.84826  0.00312  0.79129  1.0000
  H   H2413     1.0  0.71156  0.41511  0.86845  1.0000
  Fe  Fe305     1.0  0.95038  0.06653  0.88581  1.0000
  S   S609      1.0  0.91631  0.07310  0.89161  1.0000
  S   S610      1.0  0.97182  0.08992  0.87518  1.0000
  Fe  Fe306     1.0  0.95158  0.02090  0.89909  1.0000
  S   S611      1.0  0.91744  0.02431  0.90567  1.0000
  H   H2414     1.0  0.87748  0.05744  0.91263  1.0000
  Fe  Fe307     1.0  0.91586  0.04385  0.88193  1.0000
  S   S612      1.0  0.89107  0.04505  0.86632  1.0000
  Fe  Fe308     1.0  0.92046  0.05293  0.91487  1.0000
  S   S613      1.0  0.90049  0.06112  0.93756  1.0000
  S   S614      1.0  0.94999  0.03843  0.87438  1.0000
  S   S615      1.0  0.95462  0.04841  0.90993  1.0000
  H   H2415     1.0  0.66582  0.06488  0.92817  1.0000
  C   C1502     1.0  0.78710  0.08423  0.74832  1.0000
  Fe  Fe309     1.0  0.84765  0.24795  0.73173  1.0000
  N   N150      1.0  0.95528  0.24715  0.88777  1.0000
  H   H2416     1.0  0.83322  0.24124  0.79550  1.0000
  C   C1503     1.0  0.77364  0.08205  0.77628  1.0000
  H   H2417     1.0  0.85484  0.27861  0.79429  1.0000
  C   C1504     1.0  0.79285  0.33032  0.72330  1.0000
  S   S616      1.0  0.80116  0.00703  0.80003  1.0000
  N   N151      1.0  0.90561  0.47601  0.87945  1.0000
  H   H2418     1.0  0.76541  0.12182  0.74669  1.0000
  S   S617      1.0  0.78763  0.00272  0.84721  1.0000
  H   H2419     1.0  0.71295  0.29713  0.72235  1.0000
  S   S618      1.0  0.69927  0.39845  0.74449  1.0000
  H   H2420     1.0  0.97743  0.12850  0.91873  1.0000
  S   S619      1.0  0.73896  0.36544  0.75336  1.0000
  H   H2421     1.0  0.83309  0.06310  0.92695  1.0000
  Fe  Fe310     1.0  0.70906  0.36454  0.74467  1.0000
  S   S620      1.0  0.69044  0.33885  0.75570  1.0000
  Fe  Fe311     1.0  0.73028  0.40006  0.75080  1.0000
  S   S621      1.0  0.73168  0.42751  0.76360  1.0000
  S   S622      1.0  0.73141  0.98909  0.86893  1.0000
  S   S623      1.0  0.88180  0.24439  0.72549  1.0000
  C   C1505     1.0  0.74985  0.44468  0.80915  1.0000
  C   C1506     1.0  0.74295  0.45976  0.79707  1.0000
  C   C1507     1.0  0.73748  0.45415  0.78332  1.0000
  C   C1508     1.0  0.73889  0.43342  0.78134  1.0000
  C   C1509     1.0  0.74579  0.41834  0.79342  1.0000
  C   C1510     1.0  0.75115  0.42396  0.80722  1.0000
  H   H2422     1.0  0.87840  0.02603  0.81480  1.0000
  H   H2423     1.0  0.73213  0.46600  0.77414  1.0000
  H   H2424     1.0  0.74699  0.40235  0.79215  1.0000
  H   H2425     1.0  0.75649  0.41211  0.81643  1.0000
  H   H2426     1.0  0.80050  0.07251  0.75081  1.0000
  H   H2427     1.0  0.76075  0.07428  0.77483  1.0000
  Fe  Fe312     1.0  0.75900  0.48109  0.83546  1.0000
  H   H2428     1.0  0.87051  0.99802  0.83599  1.0000
  H   H2429     1.0  0.79076  0.11634  0.77415  1.0000
  H   H2430     1.0  0.69189  0.04532  0.91007  1.0000
  H   H2431     1.0  0.75654  0.01678  0.80296  1.0000
  C   C1511     1.0  0.94038  0.25150  0.87627  1.0000
  N   N152      1.0  0.77956  0.09611  0.76169  1.0000
  C   C1512     1.0  0.79590  0.10701  0.76424  1.0000
  C   C1513     1.0  0.75784  0.03835  0.76375  1.0000
  C   C1514     1.0  0.77895  0.03440  0.75906  1.0000
  C   C1515     1.0  0.79197  0.02463  0.77027  1.0000
  C   C1516     1.0  0.78402  0.01818  0.78617  1.0000
  C   C1517     1.0  0.76288  0.02163  0.79076  1.0000
  C   C1518     1.0  0.74990  0.03176  0.77962  1.0000
  H   H2432     1.0  0.78528  0.03893  0.74682  1.0000
  H   H2433     1.0  0.80828  0.02187  0.76655  1.0000
  H   H2434     1.0  0.73359  0.03467  0.78337  1.0000
  H   H2435     1.0  0.87344  0.48485  0.87840  1.0000
  H   H2436     1.0  0.80076  0.11756  0.75330  1.0000
  H   H2437     1.0  0.78076  0.33535  0.74739  1.0000
  H   H2438     1.0  0.96732  0.07506  0.93356  1.0000
  C   C1519     1.0  0.86336  0.26286  0.79657  1.0000
  H   H2439     1.0  0.97000  0.26396  0.90079  1.0000
  H   H2440     1.0  0.72068  0.28014  0.73942  1.0000
  C   C1520     1.0  0.76158  0.11114  0.75780  1.0000
  C   C1521     1.0  0.91229  0.06222  0.95433  1.0000
  C   C1522     1.0  0.93346  0.05740  0.95391  1.0000
  H   H2441     1.0  0.72778  0.46259  0.95807  1.0000
  H   H2442     1.0  0.66833  0.14051  0.73843  1.0000
  H   H2443     1.0  0.94270  0.05176  0.94360  1.0000
  H   H2444     1.0  0.93039  0.15813  0.87833  1.0000
  C   C1523     1.0  0.72613  0.28674  0.72698  1.0000
  C   C1524     1.0  0.87540  0.02578  0.86811  1.0000
  C   C1525     1.0  0.88051  0.00622  0.87636  1.0000
  Fe  Fe313     1.0  0.97240  0.20813  0.84282  1.0000
  H   H2445     1.0  0.68460  0.34518  0.72215  1.0000
  C   C1526     1.0  0.84509  0.01494  0.86148  1.0000
  C   C1527     1.0  0.85755  0.03012  0.86079  1.0000
  H   H2446     1.0  0.89423  0.00266  0.88201  1.0000
  H   H2447     1.0  0.77507  0.07611  0.74583  1.0000
  H   H2448     1.0  0.83128  0.01844  0.85597  1.0000
  H   H2449     1.0  0.85337  0.04531  0.85456  1.0000
  C   C1528     1.0  0.85422  0.99268  0.80156  1.0000
  H   H2450     1.0  0.80967  0.09607  0.76721  1.0000
  H   H2451     1.0  0.79184  0.09433  0.73717  1.0000
  H   H2452     1.0  0.92363  0.18315  0.78128  1.0000
  N   N153      1.0  0.70686  0.44801  0.86584  1.0000
  H   H2453     1.0  0.93998  0.20299  0.79649  1.0000
  C   C1529     1.0  0.96901  0.45815  0.90752  1.0000
  H   H2454     1.0  0.76856  0.09032  0.78679  1.0000
  C   C1530     1.0  0.84025  0.24885  0.78389  1.0000
  H   H2455     1.0  0.66237  0.02325  0.94749  1.0000
  C   C1531     1.0  0.68125  0.32400  0.74384  1.0000
  H   H2456     1.0  0.73936  0.44724  0.86022  1.0000
  C   C1532     1.0  0.97874  0.14941  0.85905  1.0000
  S   S624      1.0  0.69105  0.45066  0.94919  1.0000
  H   H2457     1.0  0.75719  0.27615  0.74455  1.0000
  H   H2458     1.0  0.83872  0.23980  0.77445  1.0000
  C   C1533     1.0  0.96032  0.16049  0.86512  1.0000
  S   S625      1.0  0.98656  0.41833  0.90588  1.0000
  C   C1534     1.0  0.73765  0.31401  0.73673  1.0000
  C   C1535     1.0  0.96624  0.11700  0.87047  1.0000
  C   C1536     1.0  0.94751  0.12808  0.87605  1.0000
  C   C1537     1.0  0.94473  0.14970  0.87365  1.0000
  H   H2459     1.0  0.96440  0.27709  0.88170  1.0000
  H   H2460     1.0  0.68704  0.46523  0.84945  1.0000
  H   H2461     1.0  0.93529  0.12004  0.88243  1.0000
  C   C1538     1.0  0.86825  0.99096  0.87680  1.0000
  H   H2462     1.0  0.86153  0.27605  0.76515  1.0000
  Fe  Fe314     1.0  0.98132  0.25280  0.83663  1.0000
  C   C1539     1.0  0.66789  0.29283  0.74165  1.0000
  H   H2463     1.0  0.72446  0.32504  0.73286  1.0000
  S   S626      1.0  0.84732  0.21557  0.74376  1.0000
  C   C1540     1.0  0.91565  0.20882  0.76352  1.0000
  C   C1541     1.0  0.91691  0.22953  0.75826  1.0000
  C   C1542     1.0  0.92614  0.24071  0.76688  1.0000
  C   C1543     1.0  0.93431  0.23132  0.78079  1.0000
  C   C1544     1.0  0.93374  0.21040  0.78578  1.0000
  C   C1545     1.0  0.92444  0.19921  0.77715  1.0000
  H   H2464     1.0  0.91064  0.23704  0.74764  1.0000
  H   H2465     1.0  0.92674  0.25682  0.76284  1.0000
  H   H2466     1.0  0.90069  0.47895  0.90446  1.0000
  H   H2467     1.0  0.73084  0.43645  0.88029  1.0000
  H   H2468     1.0  0.86017  0.01037  0.93678  1.0000
  C   C1546     1.0  0.67510  0.30507  0.75080  1.0000
  C   C1547     1.0  0.84356  0.04985  0.93214  1.0000
  H   H2469     1.0  0.70101  0.48036  0.85795  1.0000
  C   C1548     1.0  0.98375  0.45060  0.88114  1.0000
  H   H2470     1.0  0.97407  0.32290  0.85615  1.0000
  C   C1549     1.0  0.71581  0.46189  0.92144  1.0000
  H   H2471     1.0  0.93679  0.12573  0.93949  1.0000
  N   N154      1.0  0.72416  0.46724  0.72171  1.0000
  H   H2472     1.0  0.72666  0.44898  0.92555  1.0000
  C   C1550     1.0  0.72080  0.47398  0.90669  1.0000
  H   H2473     1.0  0.82917  0.04176  0.90661  1.0000
  C   C1551     1.0  0.68006  0.33061  0.72765  1.0000
  H   H2474     1.0  0.83103  0.26418  0.78122  1.0000
  H   H2475     1.0  0.92749  0.11394  0.91577  1.0000
  H   H2476     1.0  0.74868  0.44561  0.73067  1.0000
  N   N155      1.0  0.95676  0.10619  0.92419  1.0000
  H   H2477     1.0  0.98148  0.24663  0.86972  1.0000
  H   H2478     1.0  0.71384  0.46528  0.84271  1.0000
  C   C1552     1.0  0.83999  0.01752  0.81933  1.0000
  H   H2479     1.0  0.73305  0.30766  0.74939  1.0000
  H   H2480     1.0  0.88455  0.46223  0.86967  1.0000
  H   H2481     1.0  0.91632  0.44730  0.89308  1.0000
  C   C1553     1.0  0.87462  0.01709  0.80608  1.0000
  H   H2482     1.0  0.72712  0.46369  0.87458  1.0000
  H   H2483     1.0  0.94487  0.21889  0.89890  1.0000
  H   H2484     1.0  0.96125  0.11587  0.94593  1.0000
  C   C1554     1.0  0.94734  0.23371  0.90207  1.0000
  H   H2485     1.0  0.70704  0.47919  0.96716  1.0000
  H   H2486     1.0  0.82796  0.00828  0.82557  1.0000
  C   C1555     1.0  0.86618  0.98981  0.82706  1.0000
  C   C1556     1.0  0.96522  0.12344  0.91362  1.0000
  H   H2487     1.0  0.94206  0.09955  0.94831  1.0000
  C   C1557     1.0  0.94890  0.11214  0.94016  1.0000
  H   H2488     1.0  0.80072  0.30363  0.75971  1.0000
  Fe  Fe315     1.0  0.79193  0.98891  0.82437  1.0000
  C   C1558     1.0  0.97980  0.44411  0.89755  1.0000
  C   C1559     1.0  0.80223  0.30736  0.74685  1.0000
  H   H2489     1.0  0.97906  0.08331  0.91371  1.0000
  H   H2490     1.0  0.91243  0.48014  0.85384  1.0000
  H   H2491     1.0  0.87560  0.04151  0.89825  1.0000
  H   H2492     1.0  0.71948  0.42753  0.84871  1.0000
  H   H2493     1.0  0.94541  0.09585  0.90539  1.0000
  H   H2494     1.0  0.68761  0.02126  0.90579  1.0000
  C   C1560     1.0  0.83995  0.02925  0.91233  1.0000
  H   H2495     1.0  0.69013  0.46377  0.88494  1.0000
  S   S627      1.0  0.74100  0.05275  0.75062  1.0000
  N   N156      1.0  0.85463  0.03749  0.91979  1.0000
  H   H2496     1.0  0.85658  0.06326  0.90115  1.0000
  Fe  Fe316     1.0  0.75076  0.36993  0.72713  1.0000
  H   H2497     1.0  0.93298  0.08797  0.92505  1.0000
  N   N157      1.0  0.86188  0.25057  0.78410  1.0000
  H   H2498     1.0  0.75551  0.12051  0.76757  1.0000
  C   C1561     1.0  0.87352  0.22988  0.78749  1.0000
  H   H2499     1.0  0.87348  0.22044  0.77793  1.0000
  H   H2500     1.0  0.86709  0.22147  0.79898  1.0000
  H   H2501     1.0  0.66378  0.27805  0.74704  1.0000
  H   H2502     1.0  0.85704  0.25570  0.80860  1.0000
  H   H2503     1.0  0.87958  0.26435  0.79699  1.0000
  C   C1562     1.0  0.70195  0.46549  0.85343  1.0000
  H   H2504     1.0  0.88974  0.23065  0.78832  1.0000
  H   H2505     1.0  0.71342  0.43873  0.73148  1.0000
  C   C1563     1.0  0.96271  0.47862  0.90126  1.0000
  H   H2506     1.0  0.88653  0.26288  0.76821  1.0000
  H   H2507     1.0  0.83432  0.04057  0.94167  1.0000
  C   C1564     1.0  0.86655  0.05053  0.90744  1.0000
  H   H2508     1.0  0.85443  0.05611  0.93797  1.0000
  C   C1565     1.0  0.97304  0.08834  0.92558  1.0000
  H   H2509     1.0  0.73249  0.48531  0.96469  1.0000
  C   C1566     1.0  0.70765  0.42864  0.85946  1.0000
  C   C1567     1.0  0.74259  0.46223  0.72982  1.0000
  H   H2510     1.0  0.69440  0.43644  0.88973  1.0000
  C   C1568     1.0  0.79087  0.32531  0.73991  1.0000
  H   H2511     1.0  0.98612  0.09193  0.93056  1.0000
  H   H2512     1.0  0.93777  0.23715  0.87239  1.0000
  H   H2513     1.0  0.94415  0.27489  0.89804  1.0000
  S   S628      1.0  0.82904  0.27163  0.74645  1.0000
  H   H2514     1.0  0.78649  0.06976  0.77914  1.0000
  H   H2515     1.0  0.76598  0.27080  0.72449  1.0000
  C   C1569     1.0  0.81547  0.29422  0.73726  1.0000
  H   H2516     1.0  0.68608  0.03210  0.93886  1.0000
  C   C1570     1.0  0.94273  0.05994  0.96688  1.0000
  S   S629      1.0  0.97820  0.28299  0.84680  1.0000
  H   H2517     1.0  0.98639  0.23279  0.88873  1.0000
  C   C1571     1.0  0.88500  0.47083  0.87963  1.0000
  H   H2518     1.0  0.92110  0.44764  0.87179  1.0000
  C   C1572     1.0  0.97751  0.47110  0.87486  1.0000
  H   H2519     1.0  0.84795  0.02003  0.90283  1.0000
  Fe  Fe317     1.0  0.75030  0.06721  0.72502  1.0000
  C   C1573     1.0  0.67375  0.02424  0.93652  1.0000
  H   H2520     1.0  0.68074  0.00831  0.93476  1.0000
  Fe  Fe318     1.0  0.88126  0.21153  0.73604  1.0000
  C   C1574     1.0  0.85068  0.99514  0.86916  1.0000
  H   H2521     1.0  0.74892  0.10333  0.75586  1.0000
  H   H2522     1.0  0.69276  0.42743  0.85583  1.0000
  C   C1575     1.0  0.67982  0.03666  0.90836  1.0000
  H   H2523     1.0  0.87011  0.25153  0.75877  1.0000
  H   H2524     1.0  0.93609  0.46040  0.88142  1.0000
  H   H2525     1.0  0.83076  0.01915  0.92124  1.0000
  C   C1576     1.0  0.76104  0.28331  0.73199  1.0000
  C   C1577     1.0  0.96690  0.48518  0.88489  1.0000
  H   H2526     1.0  0.73919  0.46583  0.74229  1.0000
  S   S630      1.0  0.76634  0.47840  0.86069  1.0000
  C   C1578     1.0  0.72693  0.44885  0.87046  1.0000
  H   H2527     1.0  0.96559  0.45317  0.92020  1.0000
  H   H2528     1.0  0.87700  0.01050  0.91823  1.0000
  H   H2529     1.0  0.88019  0.02604  0.93262  1.0000
  N   N158      1.0  0.66410  0.03511  0.92258  1.0000
  C   C1579     1.0  0.69690  0.46644  0.93091  1.0000
  C   C1580     1.0  0.97485  0.23670  0.88033  1.0000
  H   H2530     1.0  0.88396  0.07233  0.96862  1.0000
  S   S631      1.0  0.95692  0.18765  0.86363  1.0000
  H   H2531     1.0  0.92535  0.25925  0.88147  1.0000
  C   C1581     1.0  0.86859  0.02034  0.92719  1.0000
  C   C1582     1.0  0.98175  0.12782  0.86190  1.0000
  H   H2532     1.0  0.67308  0.04450  0.89753  1.0000
  N   N159      1.0  0.85876  0.00426  0.81351  1.0000
  C   C1583     1.0  0.70815  0.45546  0.73068  1.0000
  H   H2533     1.0  0.94583  0.26174  0.86536  1.0000
  H   H2534     1.0  0.73549  0.47050  0.89960  1.0000
  H   H2535     1.0  0.67566  0.44855  0.87701  1.0000
  H   H2536     1.0  0.83335  0.02791  0.80933  1.0000
  C   C1584     1.0  0.95857  0.26659  0.89233  1.0000
  C   C1585     1.0  0.72332  0.47248  0.96769  1.0000
  H   H2537     1.0  0.87988  0.46131  0.89102  1.0000
  H   H2538     1.0  0.95819  0.23013  0.91102  1.0000
  H   H2539     1.0  0.88901  0.00758  0.80154  1.0000
  H   H2540     1.0  0.98055  0.47598  0.86215  1.0000
  H   H2541     1.0  0.95320  0.13688  0.91151  1.0000
  H   H2542     1.0  0.84299  0.02718  0.82782  1.0000
  S   S632      1.0  0.98120  0.20341  0.81699  1.0000
  C   C1586     1.0  0.93992  0.10077  0.91731  1.0000
  N   N160      1.0  0.74361  0.29779  0.72637  1.0000
  C   C1587     1.0  0.92039  0.45699  0.88151  1.0000
  S   S633      1.0  0.74478  0.40430  0.72500  1.0000
  H   H2543     1.0  0.67616  0.29974  0.76329  1.0000
  H   H2544     1.0  0.75030  0.32294  0.73638  1.0000
  H   H2545     1.0  0.97210  0.11903  0.90173  1.0000
  H   H2546     1.0  0.86946  0.02822  0.79585  1.0000
  H   H2547     1.0  0.93248  0.24102  0.90794  1.0000
  S   S634      1.0  0.96786  0.98990  0.90892  1.0000
  C   C1588     1.0  0.90036  0.06867  0.96814  1.0000
  C   C1589     1.0  0.98872  0.31478  0.85895  1.0000
  H   H2548     1.0  0.75504  0.47078  0.72342  1.0000
  C   C1590     1.0  0.68300  0.48318  0.92556  1.0000
  C   C1591     1.0  0.66732  0.16786  0.72117  1.0000
  H   H2549     1.0  0.77449  0.29117  0.73154  1.0000
  C   C1592     1.0  0.66637  0.29965  0.72550  1.0000
  H   H2550     1.0  0.69409  0.45857  0.72481  1.0000
  H   H2551     1.0  0.69518  0.11993  0.72170  1.0000
  H   H2552     1.0  0.95916  0.05657  0.96635  1.0000
  S   S635      1.0  0.75289  0.10090  0.72067  1.0000
  Fe  Fe319     1.0  0.66330  0.45955  0.96708  1.0000
  C   C1593     1.0  0.81740  0.29920  0.72066  1.0000
  H   H2553     1.0  0.69255  0.98665  0.88837  1.0000
  S   S636      1.0  0.90886  0.69103  0.19305  1.0000
  S   S637      1.0  0.65868  0.96521  0.02007  1.0000
  S   S638      1.0  0.94684  0.74328  0.13022  1.0000
  C   C1594     1.0  0.91287  0.70755  0.11307  1.0000
  C   C1595     1.0  0.81370  0.80549  0.21629  1.0000
  S   S639      1.0  0.74119  0.56713  0.21207  1.0000
  H   H2554     1.0  0.69863  0.51122  0.03669  1.0000
  S   S640      1.0  0.78735  0.53891  0.18228  1.0000
  H   H2555     1.0  0.74767  0.67053  0.19730  1.0000
  H   H2556     1.0  0.80921  0.65526  0.20720  1.0000
  H   H2557     1.0  0.78898  0.65786  0.17782  1.0000
  S   S641      1.0  0.75767  0.51490  0.08678  1.0000
  S   S642      1.0  0.81011  0.52884  0.07034  1.0000
  H   H2558     1.0  0.87634  0.51492  0.04184  1.0000
  S   S643      1.0  0.74458  0.50260  0.13405  1.0000
  H   H2559     1.0  0.78785  0.82971  0.21630  1.0000
  C   C1596     1.0  0.67057  0.63878  0.21602  1.0000
  H   H2560     1.0  0.82250  0.81318  0.20605  1.0000
  C   C1597     1.0  0.91628  0.58159  0.97748  1.0000
  S   S644      1.0  0.71277  0.96150  0.12919  1.0000
  H   H2561     1.0  0.72336  0.77349  0.21449  1.0000
  S   S645      1.0  0.73091  0.62981  0.19786  1.0000
  Fe  Fe320     1.0  0.73715  0.88350  0.20612  1.0000
  C   C1598     1.0  0.76146  0.67641  0.19943  1.0000
  S   S646      1.0  0.75391  0.90201  0.18492  1.0000
  H   H2562     1.0  0.98617  0.74485  0.16684  1.0000
  H   H2563     1.0  0.84088  0.49509  0.08094  1.0000
  H   H2564     1.0  0.70489  0.85596  0.18280  1.0000
  Fe  Fe321     1.0  0.74672  0.59983  0.20996  1.0000
  S   S647      1.0  0.73363  0.85040  0.20688  1.0000
  Fe  Fe322     1.0  0.94557  0.58484  0.06115  1.0000
  S   S648      1.0  0.95279  0.55107  0.06981  1.0000
  S   S649      1.0  0.94738  0.60597  0.07937  1.0000
  Fe  Fe323     1.0  0.93643  0.57594  0.02912  1.0000
  S   S650      1.0  0.94381  0.54188  0.03542  1.0000
  S   S651      1.0  0.92437  0.59005  0.00590  1.0000
  Fe  Fe324     1.0  0.92547  0.54702  0.05918  1.0000
  S   S652      1.0  0.90555  0.52295  0.07106  1.0000
  Fe  Fe325     1.0  0.97031  0.54876  0.04550  1.0000
  C   C1599     1.0  0.98661  0.64868  0.06702  1.0000
  S   S653      1.0  0.91650  0.58083  0.05247  1.0000
  S   S654      1.0  0.96460  0.58274  0.03716  1.0000
  C   C1600     1.0  0.92779  0.57522  0.99019  1.0000
  C   C1601     1.0  0.94184  0.55725  0.99013  1.0000
  H   H2565     1.0  0.95096  0.55234  0.99973  1.0000
  C   C1602     1.0  0.88030  0.54177  0.00445  1.0000
  C   C1603     1.0  0.97489  0.63336  0.06610  1.0000
  S   S655      1.0  0.66950  0.76224  0.19514  1.0000
  H   H2566     1.0  0.81238  0.96434  0.05688  1.0000
  H   H2567     1.0  0.97657  0.97608  0.07475  1.0000
  C   C1604     1.0  0.74215  0.91927  0.16991  1.0000
  C   C1605     1.0  0.72094  0.92293  0.17025  1.0000
  C   C1606     1.0  0.71222  0.93636  0.15788  1.0000
  C   C1607     1.0  0.72453  0.94637  0.14514  1.0000
  C   C1608     1.0  0.74569  0.94319  0.14506  1.0000
  C   C1609     1.0  0.75444  0.92964  0.15738  1.0000
  H   H2568     1.0  0.71127  0.91541  0.17998  1.0000
  H   H2569     1.0  0.69582  0.93903  0.15812  1.0000
  H   H2570     1.0  0.78749  0.50233  0.13713  1.0000
  H   H2571     1.0  0.77087  0.92698  0.15705  1.0000
  C   C1610     1.0  0.83641  0.52712  0.07151  1.0000
  C   C1611     1.0  0.84804  0.50873  0.07704  1.0000
  C   C1612     1.0  0.86913  0.50785  0.07721  1.0000
  C   C1613     1.0  0.87873  0.52534  0.07192  1.0000
  C   C1614     1.0  0.86695  0.54389  0.06684  1.0000
  C   C1615     1.0  0.84591  0.54472  0.06652  1.0000
  H   H2572     1.0  0.77044  0.64131  0.18663  1.0000
  Fe  Fe326     1.0  0.88849  0.70658  0.21261  1.0000
  H   H2573     1.0  0.87408  0.55755  0.06306  1.0000
  H   H2574     1.0  0.83697  0.55905  0.06233  1.0000
  H   H2575     1.0  0.89827  0.71269  0.10805  1.0000
  H   H2576     1.0  0.91084  0.69384  0.12216  1.0000
  Fe  Fe327     1.0  0.75937  0.49368  0.10979  1.0000
  S   S656      1.0  0.74909  0.98219  0.08862  1.0000
  H   H2577     1.0  0.84964  0.62545  0.21613  1.0000
  H   H2578     1.0  0.66154  0.87694  0.18033  1.0000
  H   H2579     1.0  0.76221  0.91797  0.21219  1.0000
  H   H2580     1.0  0.67851  0.49346  0.02281  1.0000
  C   C1616     1.0  0.92647  0.68659  0.09220  1.0000
  C   C1617     1.0  0.77500  0.52932  0.16888  1.0000
  C   C1618     1.0  0.78704  0.51859  0.15701  1.0000
  C   C1619     1.0  0.77799  0.51045  0.14620  1.0000
  C   C1620     1.0  0.75671  0.51277  0.14726  1.0000
  C   C1621     1.0  0.74465  0.52331  0.15922  1.0000
  C   C1622     1.0  0.75372  0.53170  0.16990  1.0000
  H   H2581     1.0  0.80352  0.51659  0.15618  1.0000
  C   C1623     1.0  0.66992  0.78700  0.19967  1.0000
  H   H2582     1.0  0.72817  0.52517  0.16015  1.0000
  H   H2583     1.0  0.74425  0.53988  0.17898  1.0000
  C   C1624     1.0  0.67651  0.97419  0.04437  1.0000
  Fe  Fe328     1.0  0.77380  0.56017  0.20091  1.0000
  S   S657      1.0  0.70455  0.89312  0.21590  1.0000
  C   C1625     1.0  0.67239  0.82563  0.20792  1.0000
  H   H2584     1.0  0.67483  0.68702  0.19717  1.0000
  C   C1626     1.0  0.80337  0.97936  0.05917  1.0000
  H   H2585     1.0  0.98636  0.58953  0.06329  1.0000
  H   H2586     1.0  0.73061  0.97782  0.21821  1.0000
  H   H2587     1.0  0.80152  0.67874  0.19492  1.0000
  C   C1627     1.0  0.68858  0.79478  0.19680  1.0000
  C   C1628     1.0  0.68991  0.81387  0.20110  1.0000
  H   H2588     1.0  0.98879  0.68044  0.18210  1.0000
  H   H2589     1.0  0.91854  0.72728  0.08299  1.0000
  Fe  Fe329     1.0  0.79105  0.50340  0.08060  1.0000
  H   H2590     1.0  0.70212  0.78585  0.19134  1.0000
  H   H2591     1.0  0.70439  0.81958  0.19892  1.0000
  C   C1629     1.0  0.90653  0.51930  0.01767  1.0000
  C   C1630     1.0  0.77115  0.64557  0.21705  1.0000
  C   C1631     1.0  0.69949  0.66167  0.19785  1.0000
  H   H2592     1.0  0.94430  0.92703  0.07755  1.0000
  C   C1632     1.0  0.96213  0.62574  0.07956  1.0000
  C   C1633     1.0  0.96129  0.63371  0.09390  1.0000
  H   H2593     1.0  0.65898  0.86873  0.16189  1.0000
  H   H2594     1.0  0.72662  0.92805  0.20612  1.0000
  H   H2595     1.0  0.95168  0.62776  0.10445  1.0000
  H   H2596     1.0  0.97711  0.90843  0.04198  1.0000
  H   H2597     1.0  0.97561  0.62761  0.05492  1.0000
  H   H2598     1.0  0.77500  0.93629  0.21816  1.0000
  H   H2599     1.0  0.65738  0.65240  0.17819  1.0000
  H   H2600     1.0  0.94555  0.92543  0.05669  1.0000
  C   C1634     1.0  0.93588  0.72867  0.14750  1.0000
  C   C1635     1.0  0.92112  0.73839  0.15847  1.0000
  C   C1636     1.0  0.91253  0.72703  0.17250  1.0000
  C   C1637     1.0  0.91842  0.70583  0.17542  1.0000
  C   C1638     1.0  0.93284  0.69609  0.16429  1.0000
  C   C1639     1.0  0.94167  0.70748  0.15045  1.0000
  H   H2601     1.0  0.91647  0.75478  0.15623  1.0000
  H   H2602     1.0  0.90135  0.73465  0.18103  1.0000
  H   H2603     1.0  0.93737  0.67968  0.16651  1.0000
  H   H2604     1.0  0.95284  0.69974  0.14210  1.0000
  H   H2605     1.0  0.85666  0.53217  0.03272  1.0000
  H   H2606     1.0  0.91230  0.69102  0.08649  1.0000
  N   N161      1.0  0.88707  0.53330  0.02007  1.0000
  H   H2607     1.0  0.97266  0.65442  0.10607  1.0000
  C   C1640     1.0  0.89016  0.55023  0.02808  1.0000
  H   H2608     1.0  0.75641  0.64068  0.21618  1.0000
  C   C1641     1.0  0.66934  0.86736  0.17102  1.0000
  H   H2609     1.0  0.79336  0.97680  0.07081  1.0000
  H   H2610     1.0  0.76571  0.97272  0.05597  1.0000
  C   C1642     1.0  0.70226  0.87194  0.17657  1.0000
  H   H2611     1.0  0.87812  0.49346  0.08124  1.0000
  H   H2612     1.0  0.71056  0.67057  0.19063  1.0000
  H   H2613     1.0  0.67103  0.85118  0.17698  1.0000
  Fe  Fe330     1.0  0.97818  0.73101  0.11860  1.0000
  H   H2614     1.0  0.79299  0.67571  0.21606  1.0000
  H   H2615     1.0  0.91870  0.52744  0.01019  1.0000
  C   C1643     1.0  0.97304  0.64900  0.09483  1.0000
  C   C1644     1.0  0.98542  0.90989  0.05185  1.0000
  C   C1645     1.0  0.68643  0.89488  0.15581  1.0000
  H   H2616     1.0  0.97672  0.69230  0.16505  1.0000
  C   C1646     1.0  0.79620  0.66771  0.20531  1.0000
  H   H2617     1.0  0.86824  0.50936  0.02432  1.0000
  N   N162      1.0  0.93016  0.70307  0.10045  1.0000
  H   H2618     1.0  0.95343  0.88896  0.08278  1.0000
  H   H2619     1.0  0.97634  0.87664  0.07224  1.0000
  H   H2620     1.0  0.65739  0.67945  0.17440  1.0000
  H   H2621     1.0  0.97679  0.50234  0.05783  1.0000
  H   H2622     1.0  0.96583  0.73195  0.19233  1.0000
  H   H2623     1.0  0.94563  0.71898  0.07931  1.0000
  H   H2624     1.0  0.98169  0.56409  0.08716  1.0000
  H   H2625     1.0  0.69546  0.61354  0.21707  1.0000
  H   H2626     1.0  0.86572  0.55253  0.00585  1.0000
  H   H2627     1.0  0.96622  0.70481  0.19816  1.0000
  H   H2628     1.0  0.92488  0.67218  0.10060  1.0000
  C   C1647     1.0  0.87139  0.52195  0.03014  1.0000
  H   H2629     1.0  0.76723  0.98144  0.03509  1.0000
  N   N163      1.0  0.78576  0.55904  0.10902  1.0000
  C   C1648     1.0  0.78201  0.56551  0.09230  1.0000
  C   C1649     1.0  0.79437  0.57516  0.11451  1.0000
  C   C1650     1.0  0.80042  0.53986  0.11006  1.0000
  C   C1651     1.0  0.76630  0.55561  0.11922  1.0000
  H   H2630     1.0  0.79645  0.56780  0.08418  1.0000
  H   H2631     1.0  0.77120  0.58005  0.09096  1.0000
  H   H2632     1.0  0.77541  0.55370  0.08784  1.0000
  H   H2633     1.0  0.80907  0.57809  0.10704  1.0000
  H   H2634     1.0  0.78370  0.58985  0.11396  1.0000
  H   H2635     1.0  0.79744  0.57066  0.12710  1.0000
  H   H2636     1.0  0.79438  0.52737  0.10604  1.0000
  H   H2637     1.0  0.80378  0.53458  0.12247  1.0000
  H   H2638     1.0  0.81519  0.54180  0.10229  1.0000
  H   H2639     1.0  0.75988  0.54280  0.11593  1.0000
  H   H2640     1.0  0.75455  0.56947  0.11818  1.0000
  H   H2641     1.0  0.76838  0.55167  0.13203  1.0000
  H   H2642     1.0  0.70127  0.89992  0.15015  1.0000
  C   C1652     1.0  0.94456  0.54588  0.97737  1.0000
  C   C1653     1.0  0.70547  0.64093  0.20347  1.0000
  H   H2643     1.0  0.75533  0.95077  0.13531  1.0000
  C   C1654     1.0  0.69955  0.85981  0.15216  1.0000
  C   C1655     1.0  0.77665  0.97492  0.04480  1.0000
  H   H2644     1.0  0.67906  0.90566  0.16437  1.0000
  S   S658      1.0  0.77854  0.59307  0.19707  1.0000
  C   C1656     1.0  0.72842  0.94436  0.20553  1.0000
  C   C1657     1.0  0.95477  0.92666  0.06607  1.0000
  H   H2645     1.0  0.89619  0.54435  0.03955  1.0000
  H   H2646     1.0  0.70197  0.84354  0.15789  1.0000
  H   H2647     1.0  0.76892  0.93936  0.19809  1.0000
  H   H2648     1.0  0.96042  0.94174  0.06295  1.0000
  H   H2649     1.0  0.96245  0.69284  0.09862  1.0000
  C   C1658     1.0  0.66460  0.65951  0.21036  1.0000
  H   H2650     1.0  0.67661  0.89675  0.14623  1.0000
  H   H2651     1.0  0.69481  0.88174  0.18580  1.0000
  H   H2652     1.0  0.78457  0.95954  0.04234  1.0000
  N   N164      1.0  0.77812  0.65943  0.20267  1.0000
  H   H2653     1.0  0.76612  0.68725  0.18869  1.0000
  H   H2654     1.0  0.94789  0.68250  0.11678  1.0000
  C   C1659     1.0  0.69101  0.62954  0.21274  1.0000
  N   N165      1.0  0.97185  0.90955  0.06727  1.0000
  C   C1660     1.0  0.67761  0.97499  0.02776  1.0000
  C   C1661     1.0  0.94906  0.69640  0.10776  1.0000
  Fe  Fe331     1.0  0.75160  0.48832  0.07597  1.0000
  H   H2655     1.0  0.91537  0.71990  0.11953  1.0000
  H   H2656     1.0  0.89186  0.55040  0.99659  1.0000
  C   C1662     1.0  0.67921  0.67101  0.20147  1.0000
  C   C1663     1.0  0.98569  0.65674  0.08134  1.0000
  H   H2657     1.0  0.87570  0.56077  0.03068  1.0000
  H   H2658     1.0  0.95238  0.70861  0.11384  1.0000
  C   C1664     1.0  0.69093  0.98220  0.05093  1.0000
  C   C1665     1.0  0.74547  0.96838  0.21456  1.0000
  H   H2659     1.0  0.91208  0.51275  0.02928  1.0000
  H   H2660     1.0  0.71745  0.87675  0.17176  1.0000
  H   H2661     1.0  0.93938  0.68283  0.08267  1.0000
  H   H2662     1.0  0.93531  0.73447  0.09478  1.0000
  H   H2663     1.0  0.73351  0.95002  0.19278  1.0000
  H   H2664     1.0  0.87782  0.52945  0.99801  1.0000
  N   N166      1.0  0.68938  0.87351  0.16388  1.0000
  H   H2665     1.0  0.90482  0.50632  0.01163  1.0000
  C   C1666     1.0  0.93247  0.72177  0.08885  1.0000
  H   H2666     1.0  0.71479  0.86396  0.14664  1.0000
  H   H2667     1.0  0.90137  0.55950  0.02060  1.0000
  H   H2668     1.0  0.69028  0.86064  0.14236  1.0000
  H   H2669     1.0  0.97381  0.91127  0.09179  1.0000
  S   S659      1.0  0.85460  0.71657  0.21396  1.0000
  C   C1667     1.0  0.78367  0.64792  0.18890  1.0000
  H   H2670     1.0  0.90523  0.59540  0.97755  1.0000
  S   S660      1.0  0.72775  0.49725  0.05863  1.0000
  C   C1668     1.0  0.97894  0.97920  0.06186  1.0000
  C   C1669     1.0  0.98352  0.91174  0.07995  1.0000
  C   C1670     1.0  0.96767  0.71706  0.18772  1.0000
  H   H2671     1.0  0.75110  0.97461  0.20206  1.0000
  H   H2672     1.0  0.79617  0.63490  0.19105  1.0000
  N   N167      1.0  0.74324  0.94656  0.21592  1.0000
  S   S661      1.0  0.84697  0.77528  0.21626  1.0000
  C   C1671     1.0  0.76324  0.93460  0.21089  1.0000
  H   H2673     1.0  0.75677  0.68519  0.20970  1.0000
  H   H2674     1.0  0.95449  0.71762  0.18122  1.0000
  H   H2675     1.0  0.66792  0.66416  0.15887  1.0000
  C   C1672     1.0  0.70031  0.49466  0.03859  1.0000
  C   C1673     1.0  0.96374  0.88983  0.07121  1.0000
  H   H2676     1.0  0.71305  0.95292  0.20906  1.0000
  H   H2677     1.0  0.66448  0.96723  0.05225  1.0000
  S   S662      1.0  0.66575  0.94393  0.97681  1.0000
  C   C1674     1.0  0.69330  0.98399  0.01775  1.0000
  H   H2678     1.0  0.75434  0.50200  0.21509  1.0000
  H   H2679     1.0  0.81380  0.97678  0.02782  1.0000
  H   H2680     1.0  0.78230  0.63137  0.21875  1.0000
  H   H2681     1.0  0.95500  0.88750  0.06185  1.0000
  S   S663      1.0  0.98548  0.73169  0.09199  1.0000
  H   H2682     1.0  0.77680  0.51413  0.21251  1.0000
  H   H2683     1.0  0.68995  0.98135  0.06374  1.0000
  S   S664      1.0  0.67314  0.85020  0.21265  1.0000
  H   H2684     1.0  0.95572  0.53215  0.97729  1.0000
  H   H2685     1.0  0.97560  0.72940  0.15603  1.0000
  H   H2686     1.0  0.72867  0.48754  0.99351  1.0000
  Fe  Fe332     1.0  0.70168  0.85970  0.21848  1.0000
  N   N168      1.0  0.98732  0.71320  0.17724  1.0000
  C   C1675     1.0  0.98800  0.72935  0.16323  1.0000
  Fe  Fe333     1.0  0.72577  0.98614  0.11037  1.0000
  C   C1676     1.0  0.98929  0.69300  0.17184  1.0000
  H   H2687     1.0  0.98978  0.92646  0.07747  1.0000
  H   H2688     1.0  0.69445  0.98463  0.00496  1.0000
  C   C1677     1.0  0.82059  0.62206  0.23054  1.0000
  S   S665      1.0  0.96232  0.74034  0.35728  1.0000
  H   H2689     1.0  0.98546  0.54938  0.45922  1.0000
  Fe  Fe334     1.0  0.96047  0.74875  0.33092  1.0000
  S   S666      1.0  0.93172  0.75289  0.31892  1.0000
  H   H2690     1.0  0.70991  0.75197  0.25706  1.0000
  Fe  Fe335     1.0  0.89033  0.71585  0.24616  1.0000
  H   H2691     1.0  0.92987  0.96362  0.44960  1.0000
  S   S667      1.0  0.91537  0.70936  0.26235  1.0000
  Fe  Fe336     1.0  0.85273  0.69961  0.23888  1.0000
  H   H2692     1.0  0.95722  0.85225  0.41727  1.0000
  S   S668      1.0  0.82756  0.68045  0.24977  1.0000
  H   H2693     1.0  0.70924  0.77565  0.26460  1.0000
  H   H2694     1.0  0.85460  0.49023  0.41198  1.0000
  S   S669      1.0  0.97335  0.77789  0.32996  1.0000
  S   S670      1.0  0.88613  0.68755  0.23675  1.0000
  S   S671      1.0  0.85635  0.72660  0.25042  1.0000
  H   H2695     1.0  0.95370  0.71717  0.30448  1.0000
  S   S672      1.0  0.96804  0.91346  0.42913  1.0000
  H   H2696     1.0  0.70477  0.92874  0.32660  1.0000
  H   H2697     1.0  0.67817  0.87449  0.34453  1.0000
  S   S673      1.0  0.96039  0.64825  0.42493  1.0000
  C   C1678     1.0  0.85490  0.50243  0.40144  1.0000
  H   H2698     1.0  0.80395  0.96116  0.41795  1.0000
  S   S674      1.0  0.97577  0.59062  0.44272  1.0000
  H   H2699     1.0  0.69291  0.49888  0.39347  1.0000
  Fe  Fe337     1.0  0.85722  0.96032  0.45517  1.0000
  H   H2700     1.0  0.79617  0.50158  0.39793  1.0000
  H   H2701     1.0  0.95263  0.90765  0.40137  1.0000
  Fe  Fe338     1.0  0.75420  0.56266  0.23542  1.0000
  S   S675      1.0  0.73795  0.54226  0.25591  1.0000
  C   C1679     1.0  0.76274  0.50093  0.29928  1.0000
  N   N169      1.0  0.96074  0.87621  0.39741  1.0000
  C   C1680     1.0  0.70639  0.76893  0.25426  1.0000
  S   S676      1.0  0.70942  0.85364  0.24340  1.0000
  S   S677      1.0  0.70086  0.90865  0.25755  1.0000
  H   H2702     1.0  0.94702  0.70105  0.28213  1.0000
  Fe  Fe339     1.0  0.72442  0.96039  0.32951  1.0000
  H   H2703     1.0  0.66351  0.89636  0.33438  1.0000
  S   S678      1.0  0.74011  0.94382  0.30849  1.0000
  Fe  Fe340     1.0  0.73353  0.96823  0.36213  1.0000
  C   C1681     1.0  0.98525  0.79757  0.38548  1.0000
  S   S679      1.0  0.75490  0.95950  0.38140  1.0000
  Fe  Fe341     1.0  0.69153  0.95678  0.35843  1.0000
  S   S680      1.0  0.88657  0.52462  0.44763  1.0000
  S   S681      1.0  0.72392  0.94149  0.35378  1.0000
  C   C1682     1.0  0.96907  0.78899  0.28828  1.0000
  C   C1683     1.0  0.92166  0.61644  0.44131  1.0000
  H   H2704     1.0  0.89398  0.50876  0.39899  1.0000
  C   C1684     1.0  0.90116  0.53748  0.45724  1.0000
  S   S682      1.0  0.82361  0.96663  0.45316  1.0000
  S   S683      1.0  0.96862  0.78700  0.37606  1.0000
  H   H2705     1.0  0.74552  0.75438  0.24305  1.0000
  H   H2706     1.0  0.69129  0.89671  0.31080  1.0000
  H   H2707     1.0  0.98496  0.88582  0.40660  1.0000
  C   C1685     1.0  0.74316  0.50037  0.29588  1.0000
  H   H2708     1.0  0.77747  0.96766  0.46941  1.0000
  C   C1686     1.0  0.77162  0.97196  0.38947  1.0000
  C   C1687     1.0  0.78226  0.96093  0.40182  1.0000
  C   C1688     1.0  0.79571  0.96999  0.40864  1.0000
  C   C1689     1.0  0.84859  0.52888  0.41844  1.0000
  Fe  Fe342     1.0  0.97714  0.62409  0.44193  1.0000
  C   C1690     1.0  0.95718  0.77271  0.26917  1.0000
  H   H2709     1.0  0.78023  0.94516  0.40604  1.0000
  C   C1691     1.0  0.76876  0.96647  0.45968  1.0000
  C   C1692     1.0  0.91341  0.90624  0.45635  1.0000
  C   C1693     1.0  0.70244  0.89170  0.31949  1.0000
  H   H2710     1.0  0.83900  0.50617  0.39846  1.0000
  H   H2711     1.0  0.85378  0.54245  0.42160  1.0000
  C   C1694     1.0  0.71215  0.91806  0.27169  1.0000
  C   C1695     1.0  0.73278  0.91237  0.27347  1.0000
  C   C1696     1.0  0.74110  0.92054  0.28469  1.0000
  C   C1697     1.0  0.72891  0.93435  0.29432  1.0000
  C   C1698     1.0  0.70827  0.94007  0.29250  1.0000
  C   C1699     1.0  0.69997  0.93194  0.28126  1.0000
  H   H2712     1.0  0.74234  0.90167  0.26623  1.0000
  H   H2713     1.0  0.75709  0.91604  0.28600  1.0000
  H   H2714     1.0  0.69879  0.95098  0.29958  1.0000
  H   H2715     1.0  0.68402  0.93656  0.27987  1.0000
  C   C1700     1.0  0.74766  0.52720  0.27291  1.0000
  C   C1701     1.0  0.73568  0.51346  0.28278  1.0000
  H   H2716     1.0  0.95153  0.78770  0.26241  1.0000
  C   C1702     1.0  0.83799  0.63171  0.22505  1.0000
  C   C1703     1.0  0.77466  0.51477  0.28947  1.0000
  C   C1704     1.0  0.76717  0.52789  0.27641  1.0000
  H   H2717     1.0  0.72053  0.51285  0.28025  1.0000
  Fe  Fe343     1.0  0.97821  0.76790  0.35553  1.0000
  H   H2718     1.0  0.77651  0.53851  0.26904  1.0000
  S   S684      1.0  0.89478  0.73406  0.22171  1.0000
  C   C1705     1.0  0.79407  0.81488  0.22208  1.0000
  H   H2719     1.0  0.88908  0.52833  0.41183  1.0000
  C   C1706     1.0  0.95846  0.86325  0.38561  1.0000
  C   C1707     1.0  0.91672  0.54770  0.44799  1.0000
  H   H2720     1.0  0.94032  0.56615  0.44777  1.0000
  H   H2721     1.0  0.91983  0.54721  0.43527  1.0000
  C   C1708     1.0  0.94206  0.91671  0.43736  1.0000
  C   C1709     1.0  0.92900  0.93367  0.43103  1.0000
  C   C1710     1.0  0.90833  0.93720  0.43757  1.0000
  C   C1711     1.0  0.90048  0.92361  0.45035  1.0000
  C   C1712     1.0  0.74078  0.77125  0.24113  1.0000
  C   C1713     1.0  0.93422  0.90287  0.44997  1.0000
  H   H2722     1.0  0.93495  0.94433  0.42117  1.0000
  H   H2723     1.0  0.89849  0.95044  0.43270  1.0000
  H   H2724     1.0  0.71652  0.80665  0.24616  1.0000
  H   H2725     1.0  0.71398  0.87624  0.34824  1.0000
  N   N170      1.0  0.86220  0.52070  0.40486  1.0000
  H   H2726     1.0  0.71879  0.75054  0.22781  1.0000
  H   H2727     1.0  0.77752  0.51689  0.24679  1.0000
  S   S685      1.0  0.82942  0.51470  0.46237  1.0000
  C   C1714     1.0  0.82206  0.78626  0.22369  1.0000
  H   H2728     1.0  0.98704  0.79579  0.25784  1.0000
  C   C1715     1.0  0.82531  0.65793  0.24225  1.0000
  H   H2729     1.0  0.79936  0.50717  0.23383  1.0000
  C   C1716     1.0  0.98206  0.75371  0.28547  1.0000
  H   H2730     1.0  0.74654  0.94026  0.24092  1.0000
  C   C1717     1.0  0.80575  0.63020  0.24220  1.0000
  C   C1718     1.0  0.80812  0.64804  0.24802  1.0000
  H   H2731     1.0  0.73379  0.48987  0.30335  1.0000
  H   H2732     1.0  0.98400  0.82136  0.41817  1.0000
  H   H2733     1.0  0.79251  0.62267  0.24679  1.0000
  H   H2734     1.0  0.79659  0.65420  0.25704  1.0000
  H   H2735     1.0  0.96178  0.80531  0.40478  1.0000
  C   C1719     1.0  0.92836  0.55850  0.45505  1.0000
  H   H2736     1.0  0.75497  0.52214  0.22635  1.0000
  H   H2737     1.0  0.90741  0.89561  0.46621  1.0000
  C   C1720     1.0  0.97390  0.66083  0.40774  1.0000
  C   C1721     1.0  0.96321  0.67666  0.39806  1.0000
  H   H2738     1.0  0.73403  0.92241  0.23409  1.0000
  Fe  Fe344     1.0  0.71532  0.88624  0.24003  1.0000
  H   H2739     1.0  0.87391  0.63980  0.45339  1.0000
  H   H2740     1.0  0.94693  0.68090  0.40120  1.0000
  H   H2741     1.0  0.96496  0.69890  0.37675  1.0000
  C   C1722     1.0  0.92722  0.74030  0.30344  1.0000
  C   C1723     1.0  0.90996  0.74785  0.29568  1.0000
  C   C1724     1.0  0.90613  0.73874  0.28297  1.0000
  C   C1725     1.0  0.91950  0.72185  0.27799  1.0000
  C   C1726     1.0  0.93666  0.71420  0.28583  1.0000
  C   C1727     1.0  0.94052  0.72335  0.29849  1.0000
  H   H2742     1.0  0.89957  0.76096  0.29943  1.0000
  H   H2743     1.0  0.89288  0.74481  0.27704  1.0000
  N   N171      1.0  0.90610  0.62880  0.45148  1.0000
  H   H2744     1.0  0.79141  0.49223  0.25262  1.0000
  H   H2745     1.0  0.70514  0.89910  0.35736  1.0000
  H   H2746     1.0  0.96357  0.80450  0.28226  1.0000
  Fe  Fe345     1.0  0.86324  0.50387  0.46011  1.0000
  C   C1728     1.0  0.71462  0.76749  0.22599  1.0000
  H   H2747     1.0  0.84825  0.51726  0.42927  1.0000
  S   S686      1.0  0.75697  0.59617  0.23416  1.0000
  H   H2748     1.0  0.72313  0.80576  0.22523  1.0000
  C   C1729     1.0  0.73582  0.93885  0.23266  1.0000
  S   S687      1.0  0.74842  0.87857  0.23011  1.0000
  H   H2749     1.0  0.97019  0.74886  0.29533  1.0000
  H   H2750     1.0  0.70552  0.87468  0.32114  1.0000
  N   N172      1.0  0.87141  0.67726  0.29038  1.0000
  C   C1730     1.0  0.86669  0.66673  0.30679  1.0000
  C   C1731     1.0  0.85551  0.67544  0.28083  1.0000
  C   C1732     1.0  0.89149  0.66772  0.28298  1.0000
  C   C1733     1.0  0.87195  0.69913  0.29087  1.0000
  H   H2751     1.0  0.87849  0.66781  0.31425  1.0000
  H   H2752     1.0  0.86607  0.65021  0.30684  1.0000
  H   H2753     1.0  0.85165  0.67361  0.31269  1.0000
  H   H2754     1.0  0.85870  0.68319  0.26839  1.0000
  H   H2755     1.0  0.85462  0.65919  0.28004  1.0000
  H   H2756     1.0  0.84009  0.68262  0.28583  1.0000
  H   H2757     1.0  0.89193  0.65104  0.28296  1.0000
  H   H2758     1.0  0.90410  0.66985  0.28926  1.0000
  H   H2759     1.0  0.89506  0.67468  0.27034  1.0000
  H   H2760     1.0  0.88407  0.70117  0.29770  1.0000
  H   H2761     1.0  0.85709  0.70686  0.29639  1.0000
  H   H2762     1.0  0.87534  0.70755  0.27868  1.0000
  N   N173      1.0  0.69479  0.89959  0.33482  1.0000
  S   S688      1.0  0.69124  0.97403  0.33368  1.0000
  H   H2763     1.0  0.69809  0.77081  0.22464  1.0000
  N   N174      1.0  0.77247  0.49335  0.23436  1.0000
  H   H2764     1.0  0.90044  0.65931  0.45778  1.0000
  C   C1734     1.0  0.79109  0.78592  0.24285  1.0000
  H   H2765     1.0  0.78255  0.77839  0.25331  1.0000
  H   H2766     1.0  0.75907  0.97686  0.42993  1.0000
  H   H2767     1.0  0.72060  0.94725  0.23688  1.0000
  H   H2768     1.0  0.93687  0.61477  0.44525  1.0000
  S   S689      1.0  0.81144  0.49517  0.42802  1.0000
  H   H2769     1.0  0.83253  0.53324  0.41592  1.0000
  H   H2770     1.0  0.66967  0.89723  0.35380  1.0000
  H   H2771     1.0  0.72493  0.89924  0.34053  1.0000
  H   H2772     1.0  0.74437  0.77747  0.25145  1.0000
  H   H2773     1.0  0.91320  0.65731  0.43778  1.0000
  Fe  Fe346     1.0  0.78855  0.58780  0.22127  1.0000
  C   C1735     1.0  0.98886  0.73691  0.39131  1.0000
  H   H2774     1.0  0.95868  0.90407  0.38079  1.0000
  H   H2775     1.0  0.94425  0.76809  0.27820  1.0000
  H   H2776     1.0  0.73616  0.97535  0.44388  1.0000
  Fe  Fe347     1.0  0.86045  0.74277  0.22518  1.0000
  C   C1736     1.0  0.88603  0.63053  0.44600  1.0000
  C   C1737     1.0  0.84026  0.64967  0.23074  1.0000
  S   S690      1.0  0.87495  0.92839  0.45951  1.0000
  C   C1738     1.0  0.81060  0.77642  0.23694  1.0000
  C   C1739     1.0  0.95126  0.89750  0.39264  1.0000
  H   H2777     1.0  0.81694  0.76167  0.24277  1.0000
  H   H2778     1.0  0.98695  0.72433  0.38495  1.0000
  S   S691      1.0  0.70094  0.98201  0.36850  1.0000
  C   C1740     1.0  0.97342  0.68693  0.38421  1.0000
  S   S692      1.0  0.98622  0.85390  0.44281  1.0000
  C   C1741     1.0  0.78583  0.50274  0.24224  1.0000
  H   H2779     1.0  0.69486  0.48907  0.42249  1.0000
  H   H2780     1.0  0.93468  0.89841  0.39202  1.0000
  N   N175      1.0  0.71887  0.77672  0.23938  1.0000
  C   C1742     1.0  0.76429  0.50852  0.22150  1.0000
  C   C1743     1.0  0.71039  0.89321  0.34572  1.0000
  H   H2781     1.0  0.95657  0.78438  0.29778  1.0000
  H   H2782     1.0  0.67912  0.92766  0.32359  1.0000
  C   C1744     1.0  0.92051  0.97524  0.45669  1.0000
  H   H2783     1.0  0.88379  0.50310  0.41966  1.0000
  H   H2784     1.0  0.68487  0.92856  0.34321  1.0000
  S   S693      1.0  0.75820  0.81648  0.24336  1.0000
  H   H2785     1.0  0.68977  0.77286  0.25331  1.0000
  C   C1745     1.0  0.71367  0.79925  0.23618  1.0000
  H   H2786     1.0  0.84638  0.54117  0.38734  1.0000
  H   H2787     1.0  0.86745  0.55053  0.39288  1.0000
  H   H2788     1.0  0.92336  0.62378  0.42862  1.0000
  H   H2789     1.0  0.75066  0.77770  0.23038  1.0000
  H   H2790     1.0  0.90467  0.97743  0.45366  1.0000
  H   H2791     1.0  0.71696  0.89740  0.31379  1.0000
  N   N176      1.0  0.97502  0.77401  0.27686  1.0000
  H   H2792     1.0  0.78979  0.51540  0.29204  1.0000
  H   H2793     1.0  0.74563  0.50011  0.25116  1.0000
  H   H2794     1.0  0.93391  0.86869  0.41333  1.0000
  C   C1746     1.0  0.78277  0.80518  0.23547  1.0000
  H   H2795     1.0  0.95223  0.87765  0.42251  1.0000
  S   S694      1.0  0.96338  0.62482  0.46761  1.0000
  H   H2796     1.0  0.87216  0.53089  0.38017  1.0000
  C   C1747     1.0  0.88320  0.51497  0.40893  1.0000
  H   H2797     1.0  0.77955  0.95817  0.45076  1.0000
  C   C1748     1.0  0.69065  0.92214  0.33190  1.0000
  S   S695      1.0  0.66683  0.94000  0.37385  1.0000
  C   C1749     1.0  0.67572  0.89152  0.34219  1.0000
  H   H2798     1.0  0.96580  0.84719  0.38869  1.0000
  C   C1750     1.0  0.97756  0.80587  0.39968  1.0000
  H   H2799     1.0  0.94416  0.88969  0.45490  1.0000
  H   H2800     1.0  0.75675  0.95678  0.46494  1.0000
  H   H2801     1.0  0.69733  0.80403  0.23454  1.0000
  H   H2802     1.0  0.88134  0.61516  0.44676  1.0000
  C   C1751     1.0  0.86206  0.53654  0.39066  1.0000
  Fe  Fe348     1.0  0.74187  0.84628  0.23169  1.0000
  H   H2803     1.0  0.91788  0.60079  0.44176  1.0000
  H   H2804     1.0  0.86477  0.49577  0.39129  1.0000
  H   H2805     1.0  0.88642  0.63797  0.43337  1.0000
  S   S696      1.0  0.78658  0.55405  0.22424  1.0000
  H   H2806     1.0  0.72597  0.49709  0.40384  1.0000
  C   C1752     1.0  0.95057  0.86832  0.41331  1.0000
  H   H2807     1.0  0.97358  0.74283  0.39744  1.0000
  C   C1753     1.0  0.74872  0.98463  0.43937  1.0000
  C   C1754     1.0  0.91181  0.64944  0.45032  1.0000
  H   H2808     1.0  0.85362  0.65706  0.22625  1.0000
  H   H2809     1.0  0.94209  0.86285  0.38497  1.0000
  S   S697      1.0  0.86518  0.98414  0.43453  1.0000
  H   H2810     1.0  0.96886  0.53185  0.45726  1.0000
  Fe  Fe349     1.0  0.96409  0.59084  0.46858  1.0000
  H   H2811     1.0  0.92695  0.64864  0.45432  1.0000
  S   S698      1.0  0.81787  0.60033  0.22211  1.0000
  H   H2812     1.0  0.96090  0.76116  0.26076  1.0000
  C   C1755     1.0  0.98465  0.53296  0.45912  1.0000
  H   H2813     1.0  0.65935  0.62980  0.22293  1.0000
  H   H2814     1.0  0.76893  0.65295  0.22803  1.0000
  H   H2815     1.0  0.96576  0.86891  0.37345  1.0000
  H   H2816     1.0  0.90107  0.60294  0.46949  1.0000
  C   C1756     1.0  0.98269  0.87580  0.39811  1.0000
  S   S699      1.0  0.73631  0.98641  0.33739  1.0000
  C   C1757     1.0  0.90498  0.61872  0.46822  1.0000
  H   H2817     1.0  0.98177  0.71875  0.42156  1.0000
  H   H2818     1.0  0.98220  0.79034  0.29431  1.0000
  H   H2819     1.0  0.75650  0.97061  0.22229  1.0000
  H   H2820     1.0  0.98578  0.74172  0.27745  1.0000
  Fe  Fe350     1.0  0.82745  0.48760  0.45035  1.0000
  C   C1758     1.0  0.75535  0.48679  0.24619  1.0000
  C   C1759     1.0  0.99007  0.81509  0.40724  1.0000
  N   N177      1.0  0.73548  0.70324  0.68193  1.0000
  H   H2821     1.0  0.70826  0.87307  0.61412  1.0000
  H   H2822     1.0  0.70278  0.85536  0.60237  1.0000
  S   S700      1.0  0.95390  0.75349  0.59503  1.0000
  C   C1760     1.0  0.97575  0.52776  0.48773  1.0000
  C   C1761     1.0  0.90968  0.98550  0.48281  1.0000
  H   H2823     1.0  0.72383  0.67581  0.68017  1.0000
  C   C1762     1.0  0.73001  0.68286  0.68893  1.0000
  H   H2824     1.0  0.89514  0.95273  0.47652  1.0000
  Fe  Fe351     1.0  0.83591  0.75615  0.62377  1.0000
  S   S701      1.0  0.84271  0.77924  0.63747  1.0000
  S   S702      1.0  0.86074  0.73913  0.60737  1.0000
  Fe  Fe352     1.0  0.79030  0.76156  0.63747  1.0000
  S   S703      1.0  0.79400  0.78543  0.65219  1.0000
  S   S704      1.0  0.75777  0.75458  0.64026  1.0000
  Fe  Fe353     1.0  0.81368  0.79810  0.63022  1.0000
  S   S705      1.0  0.81591  0.83093  0.61900  1.0000
  Fe  Fe354     1.0  0.82247  0.76445  0.65806  1.0000
  S   S706      1.0  0.83307  0.75283  0.68212  1.0000
  S   S707      1.0  0.80806  0.77582  0.61506  1.0000
  S   S708      1.0  0.81753  0.73975  0.64483  1.0000
  H   H2825     1.0  0.95113  0.95190  0.47076  1.0000
  S   S709      1.0  0.75717  0.95308  0.60529  1.0000
  Fe  Fe355     1.0  0.70568  0.95971  0.58777  1.0000
  S   S710      1.0  0.73268  0.93665  0.58031  1.0000
  Fe  Fe356     1.0  0.72894  0.97524  0.61138  1.0000
  Fe  Fe357     1.0  0.73660  0.92974  0.60623  1.0000
  S   S711      1.0  0.73723  0.89871  0.62153  1.0000
  Fe  Fe358     1.0  0.75118  0.96205  0.57968  1.0000
  H   H2826     1.0  0.75859  0.50093  0.55667  1.0000
  S   S712      1.0  0.70862  0.95113  0.61371  1.0000
  H   H2827     1.0  0.96933  0.72678  0.48591  1.0000
  Fe  Fe359     1.0  0.68905  0.51581  0.59690  1.0000
  C   C1763     1.0  0.69797  0.87103  0.60569  1.0000
  Fe  Fe360     1.0  0.69230  0.67474  0.63516  1.0000
  S   S713      1.0  0.69486  0.65158  0.65705  1.0000
  S   S714      1.0  0.72288  0.68074  0.62101  1.0000
  H   H2828     1.0  0.97290  0.49677  0.47224  1.0000
  Fe  Fe361     1.0  0.66935  0.63909  0.64958  1.0000
  H   H2829     1.0  0.78419  0.91576  0.64799  1.0000
  S   S715      1.0  0.66847  0.66065  0.62658  1.0000
  S   S716      1.0  0.72222  0.50154  0.59347  1.0000
  C   C1764     1.0  0.67743  0.56521  0.61161  1.0000
  H   H2830     1.0  0.75642  0.70284  0.69852  1.0000
  H   H2831     1.0  0.72502  0.95081  0.65745  1.0000
  C   C1765     1.0  0.67283  0.58992  0.63618  1.0000
  C   C1766     1.0  0.67743  0.56849  0.63944  1.0000
  C   C1767     1.0  0.67985  0.55619  0.62722  1.0000
  C   C1768     1.0  0.98135  0.72095  0.49374  1.0000
  H   H2832     1.0  0.70256  0.49361  0.71504  1.0000
  H   H2833     1.0  0.67917  0.56132  0.65150  1.0000
  H   H2834     1.0  0.68344  0.53971  0.62989  1.0000
  H   H2835     1.0  0.72102  0.73204  0.67077  1.0000
  H   H2836     1.0  0.67618  0.90930  0.60214  1.0000
  C   C1769     1.0  0.94231  0.96450  0.47719  1.0000
  S   S717      1.0  0.68085  0.50105  0.57731  1.0000
  H   H2837     1.0  0.97651  0.54406  0.48848  1.0000
  C   C1770     1.0  0.91116  0.95021  0.47919  1.0000
  N   N178      1.0  0.69900  0.88685  0.59147  1.0000
  H   H2838     1.0  0.73067  0.71434  0.70458  1.0000
  H   H2839     1.0  0.68982  0.86834  0.57639  1.0000
  C   C1771     1.0  0.74882  0.73474  0.63329  1.0000
  C   C1772     1.0  0.72775  0.73402  0.63605  1.0000
  C   C1773     1.0  0.71980  0.71762  0.63225  1.0000
  C   C1774     1.0  0.73279  0.70180  0.62540  1.0000
  C   C1775     1.0  0.75389  0.70271  0.62220  1.0000
  C   C1776     1.0  0.76193  0.71906  0.62625  1.0000
  H   H2840     1.0  0.71747  0.74619  0.64132  1.0000
  H   H2841     1.0  0.70353  0.71743  0.63442  1.0000
  H   H2842     1.0  0.76408  0.69062  0.61679  1.0000
  H   H2843     1.0  0.77822  0.71945  0.62407  1.0000
  C   C1777     1.0  0.82795  0.76877  0.69719  1.0000
  H   H2844     1.0  0.96200  0.73264  0.52158  1.0000
  C   C1778     1.0  0.81518  0.80156  0.70645  1.0000
  C   C1779     1.0  0.81866  0.78910  0.69430  1.0000
  S   S718      1.0  0.93804  0.57348  0.48084  1.0000
  Fe  Fe362     1.0  0.82690  0.49296  0.48543  1.0000
  H   H2845     1.0  0.81432  0.79530  0.68266  1.0000
  C   C1780     1.0  0.79380  0.84949  0.61950  1.0000
  C   C1781     1.0  0.79496  0.86925  0.61112  1.0000
  C   C1782     1.0  0.77765  0.88444  0.61144  1.0000
  C   C1783     1.0  0.75913  0.87997  0.62029  1.0000
  C   C1784     1.0  0.75796  0.86024  0.62866  1.0000
  C   C1785     1.0  0.77520  0.84500  0.62820  1.0000
  H   H2846     1.0  0.80930  0.87283  0.60436  1.0000
  H   H2847     1.0  0.77871  0.89961  0.60493  1.0000
  H   H2848     1.0  0.74368  0.85670  0.63557  1.0000
  H   H2849     1.0  0.77415  0.82983  0.63470  1.0000
  H   H2850     1.0  0.74665  0.69496  0.65857  1.0000
  S   S719      1.0  0.68003  0.55051  0.59579  1.0000
  H   H2851     1.0  0.84075  0.74520  0.71466  1.0000
  H   H2852     1.0  0.85724  0.73109  0.65790  1.0000
  C   C1786     1.0  0.66281  0.94650  0.57165  1.0000
  S   S720      1.0  0.97825  0.74043  0.55204  1.0000
  C   C1787     1.0  0.92809  0.74933  0.59813  1.0000
  C   C1788     1.0  0.91373  0.76092  0.60824  1.0000
  C   C1789     1.0  0.89310  0.75794  0.61112  1.0000
  C   C1790     1.0  0.88659  0.74337  0.60393  1.0000
  C   C1791     1.0  0.90091  0.73185  0.59377  1.0000
  C   C1792     1.0  0.92158  0.73480  0.59088  1.0000
  H   H2853     1.0  0.91867  0.77220  0.61387  1.0000
  H   H2854     1.0  0.88226  0.76688  0.61892  1.0000
  H   H2855     1.0  0.89604  0.72052  0.58814  1.0000
  H   H2856     1.0  0.93249  0.72576  0.58308  1.0000
  H   H2857     1.0  0.74672  0.93993  0.67901  1.0000
  H   H2858     1.0  0.71124  0.70995  0.66739  1.0000
  H   H2859     1.0  0.76840  0.92363  0.63245  1.0000
  S   S721      1.0  0.66962  0.60467  0.65204  1.0000
  H   H2860     1.0  0.90570  0.54972  0.49343  1.0000
  H   H2861     1.0  0.84658  0.79277  0.58002  1.0000
  H   H2862     1.0  0.96891  0.64664  0.50009  1.0000
  H   H2863     1.0  0.71796  0.68389  0.69947  1.0000
  C   C1793     1.0  0.72024  0.88555  0.58324  1.0000
  C   C1794     1.0  0.75187  0.70106  0.66829  1.0000
  H   H2864     1.0  0.95961  0.52691  0.48656  1.0000
  H   H2865     1.0  0.70469  0.71873  0.68639  1.0000
  H   H2866     1.0  0.68222  0.87173  0.61232  1.0000
  N   N179      1.0  0.75591  0.93506  0.65457  1.0000
  C   C1795     1.0  0.76809  0.91904  0.64553  1.0000
  C   C1796     1.0  0.73472  0.93878  0.65088  1.0000
  C   C1797     1.0  0.76489  0.95427  0.65006  1.0000
  C   C1798     1.0  0.75583  0.92819  0.67185  1.0000
  H   H2867     1.0  0.78100  0.95209  0.65240  1.0000
  H   H2868     1.0  0.75123  0.98165  0.54003  1.0000
  H   H2869     1.0  0.66674  0.61541  0.61787  1.0000
  C   C1799     1.0  0.89738  0.53816  0.47368  1.0000
  H   H2870     1.0  0.72748  0.92459  0.65378  1.0000
  C   C1800     1.0  0.96710  0.74502  0.51214  1.0000
  H   H2871     1.0  0.75612  0.96660  0.65678  1.0000
  H   H2872     1.0  0.91070  0.94514  0.49223  1.0000
  H   H2873     1.0  0.74340  0.67217  0.69290  1.0000
  H   H2874     1.0  0.77160  0.92529  0.67507  1.0000
  H   H2875     1.0  0.74911  0.91375  0.67565  1.0000
  C   C1801     1.0  0.66569  0.92989  0.54803  1.0000
  C   C1802     1.0  0.67093  0.67879  0.71090  1.0000
  H   H2876     1.0  0.82122  0.97529  0.50960  1.0000
  H   H2877     1.0  0.75690  0.71608  0.66312  1.0000
  H   H2878     1.0  0.72158  0.89717  0.57237  1.0000
  H   H2879     1.0  0.74691  0.72792  0.68914  1.0000
  C   C1803     1.0  0.68538  0.88363  0.58047  1.0000
  C   C1804     1.0  0.67049  0.59899  0.62056  1.0000
  S   S722      1.0  0.67252  0.96070  0.58373  1.0000
  C   C1805     1.0  0.83356  0.76093  0.71234  1.0000
  H   H2880     1.0  0.90038  0.72266  0.68131  1.0000
  S   S723      1.0  0.97072  0.69045  0.54030  1.0000
  H   H2881     1.0  0.81602  0.96444  0.53893  1.0000
  H   H2882     1.0  0.69386  0.91961  0.58616  1.0000
  H   H2883     1.0  0.91988  0.61716  0.47277  1.0000
  Fe  Fe363     1.0  0.67064  0.67329  0.66942  1.0000
  S   S724      1.0  0.67769  0.68653  0.69030  1.0000
  H   H2884     1.0  0.83730  0.80307  0.59828  1.0000
  H   H2885     1.0  0.66918  0.88472  0.58622  1.0000
  C   C1806     1.0  0.96994  0.66573  0.51794  1.0000
  C   C1807     1.0  0.69242  0.90731  0.59650  1.0000
  H   H2886     1.0  0.72818  0.49874  0.71431  1.0000
  H   H2887     1.0  0.85035  0.82831  0.56696  1.0000
  C   C1808     1.0  0.97861  0.65318  0.50617  1.0000
  C   C1809     1.0  0.67449  0.93974  0.55795  1.0000
  H   H2888     1.0  0.69010  0.94275  0.55469  1.0000
  H   H2889     1.0  0.95422  0.75115  0.50519  1.0000
  C   C1810     1.0  0.80296  0.97050  0.53277  1.0000
  C   C1811     1.0  0.74269  0.71248  0.69410  1.0000
  C   C1812     1.0  0.78324  0.97224  0.54151  1.0000
  H   H2890     1.0  0.68681  0.70099  0.71737  1.0000
  N   N180      1.0  0.86582  0.81199  0.58639  1.0000
  C   C1813     1.0  0.85563  0.83110  0.57795  1.0000
  C   C1814     1.0  0.87220  0.81645  0.60101  1.0000
  C   C1815     1.0  0.88395  0.80347  0.57594  1.0000
  C   C1816     1.0  0.85137  0.79694  0.59074  1.0000
  H   H2891     1.0  0.91952  0.93728  0.47298  1.0000
  H   H2892     1.0  0.86605  0.84286  0.57440  1.0000
  H   H2893     1.0  0.84194  0.83787  0.58567  1.0000
  H   H2894     1.0  0.88282  0.82805  0.59818  1.0000
  H   H2895     1.0  0.85883  0.82252  0.60931  1.0000
  H   H2896     1.0  0.88015  0.80247  0.60761  1.0000
  H   H2897     1.0  0.89534  0.81430  0.57255  1.0000
  H   H2898     1.0  0.87971  0.80005  0.56475  1.0000
  H   H2899     1.0  0.89178  0.78887  0.58195  1.0000
  H   H2900     1.0  0.85821  0.78254  0.59756  1.0000
  H   H2901     1.0  0.76157  0.90440  0.64853  1.0000
  H   H2902     1.0  0.67469  0.92530  0.53719  1.0000
  H   H2903     1.0  0.73088  0.88826  0.59113  1.0000
  C   C1817     1.0  0.92439  0.55941  0.47145  1.0000
  C   C1818     1.0  0.71735  0.71662  0.67639  1.0000
  H   H2904     1.0  0.73429  0.94427  0.63800  1.0000
  S   S725      1.0  0.66925  0.69711  0.64776  1.0000
  C   C1819     1.0  0.98238  0.67414  0.52607  1.0000
  H   H2905     1.0  0.80815  0.81734  0.70410  1.0000
  C   C1820     1.0  0.65910  0.66314  0.71670  1.0000
  H   H2906     1.0  0.87250  0.73398  0.63872  1.0000
  H   H2907     1.0  0.87325  0.70932  0.65062  1.0000
  Fe  Fe364     1.0  0.98798  0.70635  0.55419  1.0000
  S   S726      1.0  0.78051  0.96485  0.56248  1.0000
  C   C1821     1.0  0.67270  0.58667  0.60837  1.0000
  C   C1822     1.0  0.80596  0.97663  0.51614  1.0000
  H   H2908     1.0  0.95016  0.97823  0.47323  1.0000
  H   H2909     1.0  0.76559  0.69055  0.67187  1.0000
  N   N181      1.0  0.72763  0.62082  0.60905  1.0000
  C   C1823     1.0  0.71248  0.63498  0.60027  1.0000
  C   C1824     1.0  0.72147  0.62091  0.62638  1.0000
  C   C1825     1.0  0.74787  0.62766  0.60434  1.0000
  C   C1826     1.0  0.72869  0.59986  0.60526  1.0000
  H   H2910     1.0  0.71673  0.63549  0.58714  1.0000
  H   H2911     1.0  0.71120  0.65091  0.60301  1.0000
  H   H2912     1.0  0.69704  0.63027  0.60347  1.0000
  H   H2913     1.0  0.70599  0.61646  0.63033  1.0000
  H   H2914     1.0  0.73222  0.61002  0.63345  1.0000
  H   H2915     1.0  0.72112  0.63639  0.62965  1.0000
  H   H2916     1.0  0.75966  0.61752  0.61088  1.0000
  H   H2917     1.0  0.74744  0.64353  0.60698  1.0000
  H   H2918     1.0  0.75307  0.62775  0.59134  1.0000
  H   H2919     1.0  0.74017  0.58882  0.61152  1.0000
  H   H2920     1.0  0.73288  0.59925  0.59223  1.0000
  H   H2921     1.0  0.71375  0.59410  0.60898  1.0000
  Fe  Fe365     1.0  0.97850  0.73620  0.57853  1.0000
  H   H2922     1.0  0.95350  0.66884  0.52083  1.0000
  N   N182      1.0  0.88923  0.73023  0.65861  1.0000
  C   C1827     1.0  0.90898  0.72258  0.64953  1.0000
  C   C1828     1.0  0.88768  0.75256  0.65852  1.0000
  C   C1829     1.0  0.88784  0.71986  0.67527  1.0000
  C   C1830     1.0  0.87234  0.72596  0.65114  1.0000
  H   H2923     1.0  0.91074  0.70575  0.64947  1.0000
  H   H2924     1.0  0.92212  0.72581  0.65464  1.0000
  H   H2925     1.0  0.91032  0.72989  0.63683  1.0000
  H   H2926     1.0  0.87280  0.75888  0.66505  1.0000
  H   H2927     1.0  0.89999  0.75631  0.66433  1.0000
  H   H2928     1.0  0.88889  0.76090  0.64617  1.0000
  H   H2929     1.0  0.88867  0.70301  0.67585  1.0000
  H   H2930     1.0  0.87311  0.72550  0.68241  1.0000
  H   H2931     1.0  0.70183  0.91007  0.60525  1.0000
  H   H2932     1.0  0.76472  0.96022  0.63716  1.0000
  C   C1831     1.0  0.90890  0.54913  0.48072  1.0000
  H   H2933     1.0  0.68585  0.89540  0.56964  1.0000
  H   H2934     1.0  0.88544  0.53043  0.48096  1.0000
  S   S727      1.0  0.81152  0.50118  0.50973  1.0000
  H   H2935     1.0  0.94316  0.95975  0.49015  1.0000
  H   H2936     1.0  0.72585  0.87021  0.57949  1.0000
  H   H2937     1.0  0.67070  0.59374  0.59633  1.0000
  H   H2938     1.0  0.97920  0.51861  0.49928  1.0000
  C   C1832     1.0  0.76646  0.98014  0.53344  1.0000
  S   S728      1.0  0.85490  0.98068  0.47398  1.0000
  H   H2939     1.0  0.89334  0.62749  0.47629  1.0000
  H   H2940     1.0  0.96978  0.75759  0.51824  1.0000
  C   C1833     1.0  0.98809  0.80474  0.51217  1.0000
  H   H2941     1.0  0.90876  0.98094  0.49594  1.0000
  S   S729      1.0  0.72388  0.98595  0.58567  1.0000
  C   C1834     1.0  0.76358  0.49557  0.54523  1.0000
  H   H2942     1.0  0.79070  0.51019  0.54025  1.0000
  C   C1835     1.0  0.78843  0.49415  0.52093  1.0000
  C   C1836     1.0  0.78179  0.50079  0.53590  1.0000
  N   N183      1.0  0.92090  0.96887  0.47398  1.0000
  H   H2943     1.0  0.97583  0.70822  0.50259  1.0000
  N   N184      1.0  0.98572  0.73731  0.50179  1.0000
  S   S730      1.0  0.67887  0.49113  0.61648  1.0000
  C   C1837     1.0  0.78922  0.98480  0.50811  1.0000
  S   S731      1.0  0.98636  0.70188  0.58100  1.0000
  H   H2944     1.0  0.97197  0.81011  0.51511  1.0000
  H   H2945     1.0  0.98013  0.76130  0.48227  1.0000
  H   H2946     1.0  0.98899  0.78114  0.53260  1.0000
  S   S732      1.0  0.98660  0.83530  0.48682  1.0000
  C   C1838     1.0  0.98864  0.49877  0.47362  1.0000
  N   N185      1.0  0.99006  0.52045  0.47412  1.0000
  N   N186      1.0  0.67158  0.59958  0.79595  1.0000
  Fe  Fe366     1.0  0.67514  0.97039  0.95870  1.0000
  C   C1839     1.0  0.98945  0.97563  0.89915  1.0000
  N   N187      1.0  0.79713  0.57280  0.83863  1.0000
  Fe  Fe367     1.0  0.75333  0.52832  0.83194  1.0000
  S   S733      1.0  0.78027  0.50439  0.82635  1.0000
  S   S734      1.0  0.75045  0.55755  0.81440  1.0000
  Fe  Fe368     1.0  0.78525  0.50404  0.85180  1.0000
  H   H2947     1.0  0.67972  0.62002  0.77459  1.0000
  S   S735      1.0  0.75889  0.52880  0.85689  1.0000
  S   S736      1.0  0.73167  0.50525  0.83892  1.0000
  Fe  Fe369     1.0  0.93797  0.53271  0.89173  1.0000
  S   S737      1.0  0.91767  0.52143  0.91364  1.0000
  S   S738      1.0  0.95848  0.51054  0.87646  1.0000
  Fe  Fe370     1.0  0.92171  0.57780  0.89481  1.0000
  S   S739      1.0  0.89990  0.56913  0.91694  1.0000
  S   S740      1.0  0.91983  0.61240  0.88706  1.0000
  Fe  Fe371     1.0  0.92638  0.54641  0.92458  1.0000
  S   S741      1.0  0.93823  0.53791  0.94852  1.0000
  Fe  Fe372     1.0  0.89309  0.54500  0.90376  1.0000
  S   S742      1.0  0.86100  0.53678  0.90535  1.0000
  S   S743      1.0  0.94865  0.55619  0.90320  1.0000
  S   S744      1.0  0.91293  0.55523  0.88116  1.0000
  S   S745      1.0  0.81584  0.96265  0.83214  1.0000
  C   C1840     1.0  0.90528  0.48779  0.89262  1.0000
  S   S746      1.0  0.78604  0.95580  0.86593  1.0000
  H   H2948     1.0  0.76492  0.57130  0.84427  1.0000
  Fe  Fe373     1.0  0.78973  0.94516  0.84194  1.0000
  S   S747      1.0  0.78538  0.91192  0.84263  1.0000
  H   H2949     1.0  0.79407  0.77983  0.75165  1.0000
  Fe  Fe374     1.0  0.82286  0.79881  0.76179  1.0000
  S   S748      1.0  0.82590  0.76694  0.77538  1.0000
  S   S749      1.0  0.81600  0.80995  0.73647  1.0000
  Fe  Fe375     1.0  0.82629  0.81887  0.79100  1.0000
  S   S750      1.0  0.82925  0.78855  0.80706  1.0000
  S   S751      1.0  0.83269  0.84979  0.79536  1.0000
  Fe  Fe376     1.0  0.85054  0.77652  0.78649  1.0000
  S   S752      1.0  0.88198  0.75736  0.78740  1.0000
  Fe  Fe377     1.0  0.80434  0.78117  0.79483  1.0000
  S   S753      1.0  0.77562  0.76873  0.80797  1.0000
  S   S754      1.0  0.84916  0.80714  0.77110  1.0000
  S   S755      1.0  0.79978  0.81261  0.78058  1.0000
  S   S756      1.0  0.70673  0.96926  0.94410  1.0000
  H   H2950     1.0  0.94190  0.59678  0.91292  1.0000
  Fe  Fe378     1.0  0.76379  0.98175  0.85612  1.0000
  Fe  Fe379     1.0  0.96882  0.74144  0.84391  1.0000
  S   S757      1.0  0.93638  0.75731  0.84151  1.0000
  S   S758      1.0  0.97285  0.72743  0.86921  1.0000
  Fe  Fe380     1.0  0.69835  0.69936  0.79079  1.0000
  S   S759      1.0  0.69938  0.66591  0.78893  1.0000
  S   S760      1.0  0.72680  0.71327  0.77894  1.0000
  H   H2951     1.0  0.97309  0.61345  0.90741  1.0000
  Fe  Fe381     1.0  0.68370  0.66397  0.81414  1.0000
  S   S761      1.0  0.69026  0.63662  0.83299  1.0000
  S   S762      1.0  0.68422  0.69698  0.81659  1.0000
  H   H2952     1.0  0.72873  0.95344  0.85547  1.0000
  H   H2953     1.0  0.67852  0.69082  0.74652  1.0000
  C   C1841     1.0  0.89681  0.75627  0.80285  1.0000
  C   C1842     1.0  0.91803  0.75005  0.80005  1.0000
  C   C1843     1.0  0.93039  0.74980  0.81190  1.0000
  C   C1844     1.0  0.92152  0.75557  0.82671  1.0000
  C   C1845     1.0  0.90023  0.76108  0.82969  1.0000
  C   C1846     1.0  0.88792  0.76146  0.81781  1.0000
  H   H2954     1.0  0.92499  0.74593  0.78850  1.0000
  H   H2955     1.0  0.94679  0.74572  0.80942  1.0000
  H   H2956     1.0  0.89324  0.76538  0.84118  1.0000
  H   H2957     1.0  0.87153  0.76570  0.82021  1.0000
  C   C1847     1.0  0.76291  0.75136  0.80107  1.0000
  C   C1848     1.0  0.74232  0.75007  0.80715  1.0000
  C   C1849     1.0  0.73127  0.73768  0.80103  1.0000
  C   C1850     1.0  0.74071  0.72658  0.78868  1.0000
  C   C1851     1.0  0.76146  0.72739  0.78296  1.0000
  C   C1852     1.0  0.77260  0.73940  0.78932  1.0000
  H   H2958     1.0  0.73475  0.75902  0.81641  1.0000
  H   H2959     1.0  0.71530  0.73722  0.80555  1.0000
  H   H2960     1.0  0.76895  0.71868  0.77353  1.0000
  H   H2961     1.0  0.78864  0.73962  0.78497  1.0000
  C   C1853     1.0  0.79836  0.89506  0.82909  1.0000
  C   C1854     1.0  0.79246  0.87561  0.83022  1.0000
  C   C1855     1.0  0.80254  0.86164  0.81984  1.0000
  C   C1856     1.0  0.81876  0.86697  0.80830  1.0000
  C   C1857     1.0  0.82470  0.88638  0.80722  1.0000
  C   C1858     1.0  0.81450  0.90042  0.81749  1.0000
  H   H2962     1.0  0.78003  0.87130  0.83918  1.0000
  H   H2963     1.0  0.79786  0.84673  0.82083  1.0000
  H   H2964     1.0  0.83719  0.89066  0.79830  1.0000
  H   H2965     1.0  0.81917  0.91532  0.81649  1.0000
  H   H2966     1.0  0.82700  0.58141  0.83100  1.0000
  H   H2967     1.0  0.81688  0.54839  0.82783  1.0000
  H   H2968     1.0  0.83447  0.76723  0.73613  1.0000
  C   C1859     1.0  0.94035  0.62687  0.88211  1.0000
  C   C1860     1.0  0.96021  0.61807  0.87680  1.0000
  H   H2969     1.0  0.73130  0.89206  0.87964  1.0000
  C   C1861     1.0  0.97181  0.65162  0.87268  1.0000
  C   C1862     1.0  0.95211  0.66027  0.87857  1.0000
  C   C1863     1.0  0.93643  0.64799  0.88310  1.0000
  H   H2970     1.0  0.96345  0.60185  0.87594  1.0000
  C   C1864     1.0  0.97583  0.63040  0.87210  1.0000
  H   H2971     1.0  0.94900  0.67639  0.87973  1.0000
  H   H2972     1.0  0.92116  0.65488  0.88740  1.0000
  C   C1865     1.0  0.73439  0.57956  0.82020  1.0000
  C   C1866     1.0  0.73474  0.59820  0.80998  1.0000
  C   C1867     1.0  0.72157  0.61590  0.81392  1.0000
  C   C1868     1.0  0.70801  0.61509  0.82816  1.0000
  C   C1869     1.0  0.70805  0.59654  0.83857  1.0000
  C   C1870     1.0  0.72119  0.57880  0.83461  1.0000
  H   H2973     1.0  0.74509  0.59894  0.79889  1.0000
  H   H2974     1.0  0.72197  0.63016  0.80596  1.0000
  H   H2975     1.0  0.69768  0.59582  0.84966  1.0000
  H   H2976     1.0  0.72087  0.56452  0.84262  1.0000
  C   C1871     1.0  0.82959  0.51618  0.86784  1.0000
  C   C1872     1.0  0.81926  0.51844  0.88311  1.0000
  C   C1873     1.0  0.82906  0.52491  0.89437  1.0000
  C   C1874     1.0  0.84917  0.52946  0.89047  1.0000
  C   C1875     1.0  0.85931  0.52771  0.87505  1.0000
  C   C1876     1.0  0.84963  0.52094  0.86386  1.0000
  H   H2977     1.0  0.80385  0.51489  0.88636  1.0000
  H   H2978     1.0  0.82103  0.52629  0.90624  1.0000
  H   H2979     1.0  0.87461  0.53153  0.87179  1.0000
  S   S763      1.0  0.66809  0.70848  0.78144  1.0000
  H   H2980     1.0  0.65842  0.57805  0.81452  1.0000
  H   H2981     1.0  0.69650  0.92762  0.87379  1.0000
  H   H2982     1.0  0.74545  0.96942  0.92444  1.0000
  C   C1877     1.0  0.67304  0.68308  0.73829  1.0000
  H   H2983     1.0  0.77210  0.59500  0.84695  1.0000
  C   C1878     1.0  0.73386  0.97305  0.91658  1.0000
  H   H2984     1.0  0.97801  0.90266  0.85151  1.0000
  H   H2985     1.0  0.87983  0.97898  0.82306  1.0000
  H   H2986     1.0  0.77175  0.58936  0.82724  1.0000
  C   C1879     1.0  0.69832  0.97820  0.91282  1.0000
  H   H2987     1.0  0.70814  0.92065  0.89178  1.0000
  C   C1880     1.0  0.68785  0.49505  0.91071  1.0000
  H   H2988     1.0  0.95800  0.63572  0.91451  1.0000
  H   H2989     1.0  0.66966  0.60968  0.81879  1.0000
  Fe  Fe382     1.0  0.73957  0.50344  0.86368  1.0000
  S   S764      1.0  0.98608  0.71409  0.83290  1.0000
  H   H2990     1.0  0.90112  0.50302  0.86223  1.0000
  N   N188      1.0  0.95522  0.60755  0.93043  1.0000
  H   H2991     1.0  0.75906  0.80802  0.76989  1.0000
  H   H2992     1.0  0.98290  0.91432  0.87646  1.0000
  C   C1881     1.0  0.93722  0.60419  0.92388  1.0000
  C   C1882     1.0  0.66896  0.60875  0.77938  1.0000
  H   H2993     1.0  0.69528  0.58191  0.80871  1.0000
  H   H2994     1.0  0.67175  0.59693  0.77125  1.0000
  H   H2995     1.0  0.98479  0.87699  0.87522  1.0000
  C   C1883     1.0  0.66817  0.61598  0.80611  1.0000
  H   H2996     1.0  0.97307  0.57951  0.92393  1.0000
  H   H2997     1.0  0.95921  0.57724  0.94364  1.0000
  S   S765      1.0  0.81835  0.50754  0.85324  1.0000
  H   H2998     1.0  0.74262  0.77680  0.77514  1.0000
  H   H2999     1.0  0.90982  0.57497  0.95510  1.0000
  C   C1884     1.0  0.93329  0.55234  0.96455  1.0000
  C   C1885     1.0  0.96732  0.62080  0.91834  1.0000
  C   C1886     1.0  0.69253  0.58842  0.79630  1.0000
  N   N189      1.0  0.76140  0.78658  0.75333  1.0000
  C   C1887     1.0  0.74346  0.77739  0.76199  1.0000
  H   H3000     1.0  0.77345  0.81493  0.75078  1.0000
  C   C1888     1.0  0.76227  0.78686  0.73597  1.0000
  C   C1889     1.0  0.78017  0.77429  0.75860  1.0000
  H   H3001     1.0  0.70413  0.59872  0.79137  1.0000
  S   S766      1.0  0.83672  0.97499  0.86903  1.0000
  H   H3002     1.0  0.75567  0.97705  0.89519  1.0000
  H   H3003     1.0  0.74414  0.76135  0.75971  1.0000
  H   H3004     1.0  0.76392  0.77107  0.73292  1.0000
  H   H3005     1.0  0.98170  0.58948  0.93949  1.0000
  H   H3006     1.0  0.77561  0.79392  0.72920  1.0000
  Fe  Fe383     1.0  0.66799  0.67496  0.78194  1.0000
  C   C1890     1.0  0.75987  0.80773  0.75684  1.0000
  H   H3007     1.0  0.74606  0.81760  0.75282  1.0000
  Fe  Fe384     1.0  0.81019  0.97561  0.85531  1.0000
  H   H3008     1.0  0.74826  0.79581  0.73155  1.0000
  H   H3009     1.0  0.74489  0.94363  0.87987  1.0000
  H   H3010     1.0  0.87262  0.97568  0.88283  1.0000
  H   H3011     1.0  0.76115  0.92243  0.87187  1.0000
  C   C1891     1.0  0.66120  0.66748  0.74410  1.0000
  H   H3012     1.0  0.85426  0.98052  0.83347  1.0000
  H   H3013     1.0  0.67688  0.50785  0.90657  1.0000
  H   H3014     1.0  0.80825  0.60093  0.83914  1.0000
  H   H3015     1.0  0.74522  0.91825  0.89067  1.0000
  H   H3016     1.0  0.80760  0.59524  0.81949  1.0000
  H   H3017     1.0  0.79838  0.57587  0.86305  1.0000
  H   H3018     1.0  0.71961  0.89924  0.86167  1.0000
  C   C1892     1.0  0.77557  0.58257  0.83933  1.0000
  H   H3019     1.0  0.74675  0.89756  0.86073  1.0000
  H   H3020     1.0  0.93924  0.60791  0.95426  1.0000
  H   H3021     1.0  0.78127  0.75793  0.75711  1.0000
  H   H3022     1.0  0.79745  0.56228  0.81615  1.0000
  H   H3023     1.0  0.96157  0.62031  0.95021  1.0000
  N   N190      1.0  0.92998  0.68824  0.83667  1.0000
  C   C1893     1.0  0.94487  0.68997  0.82195  1.0000
  C   C1894     1.0  0.92924  0.66637  0.84288  1.0000
  C   C1895     1.0  0.90953  0.69839  0.83311  1.0000
  C   C1896     1.0  0.93637  0.69828  0.84875  1.0000
  H   H3024     1.0  0.94600  0.70629  0.81709  1.0000
  H   H3025     1.0  0.94045  0.68278  0.81246  1.0000
  H   H3026     1.0  0.96044  0.68236  0.82424  1.0000
  H   H3027     1.0  0.94443  0.65831  0.84578  1.0000
  H   H3028     1.0  0.91818  0.66447  0.85401  1.0000
  H   H3029     1.0  0.92455  0.65824  0.83406  1.0000
  H   H3030     1.0  0.90419  0.69127  0.82400  1.0000
  H   H3031     1.0  0.90960  0.71491  0.82837  1.0000
  H   H3032     1.0  0.89796  0.69752  0.84399  1.0000
  H   H3033     1.0  0.92565  0.69715  0.86011  1.0000
  H   H3034     1.0  0.93690  0.71482  0.84454  1.0000
  H   H3035     1.0  0.95191  0.69127  0.85151  1.0000
  H   H3036     1.0  0.92780  0.59407  0.93252  1.0000
  H   H3037     1.0  0.85769  0.51945  0.85202  1.0000
  H   H3038     1.0  0.79225  0.55171  0.86024  1.0000
  C   C1897     1.0  0.94838  0.61755  0.94491  1.0000
  C   C1898     1.0  0.71651  0.48937  0.72104  1.0000
  H   H3039     1.0  0.92721  0.61884  0.92054  1.0000
  C   C1899     1.0  0.91893  0.57013  0.96472  1.0000
  N   N191      1.0  0.88657  0.82485  0.81070  1.0000
  C   C1900     1.0  0.88560  0.81805  0.79533  1.0000
  C   C1901     1.0  0.90637  0.81587  0.81619  1.0000
  C   C1902     1.0  0.86968  0.81808  0.82268  1.0000
  C   C1903     1.0  0.88462  0.84744  0.80857  1.0000
  H   H3040     1.0  0.87122  0.82520  0.79055  1.0000
  H   H3041     1.0  0.88610  0.80114  0.79658  1.0000
  H   H3042     1.0  0.89847  0.82224  0.78611  1.0000
  H   H3043     1.0  0.90732  0.81981  0.82813  1.0000
  H   H3044     1.0  0.90875  0.79889  0.81719  1.0000
  H   H3045     1.0  0.91941  0.82125  0.80771  1.0000
  H   H3046     1.0  0.85453  0.82438  0.81878  1.0000
  H   H3047     1.0  0.86973  0.82316  0.83438  1.0000
  H   H3048     1.0  0.87070  0.80114  0.82469  1.0000
  H   H3049     1.0  0.86972  0.85470  0.80461  1.0000
  H   H3050     1.0  0.89685  0.85316  0.79938  1.0000
  H   H3051     1.0  0.88539  0.85309  0.81992  1.0000
  H   H3052     1.0  0.70720  0.94629  0.88139  1.0000
  C   C1904     1.0  0.81060  0.58830  0.83176  1.0000
  C   C1905     1.0  0.82999  0.77337  0.72453  1.0000
  H   H3053     1.0  0.74518  0.93294  0.84681  1.0000
  C   C1906     1.0  0.80157  0.56404  0.85490  1.0000
  H   H3054     1.0  0.72893  0.78627  0.75845  1.0000
  H   H3055     1.0  0.78078  0.77514  0.77135  1.0000
  H   H3056     1.0  0.79090  0.54439  0.83331  1.0000
  H   H3057     1.0  0.71806  0.93493  0.84768  1.0000
  C   C1907     1.0  0.80082  0.55632  0.82850  1.0000
  H   H3058     1.0  0.81787  0.55707  0.85482  1.0000
  S   S767      1.0  0.71128  0.50530  0.88225  1.0000
  H   H3059     1.0  0.98080  0.62414  0.92294  1.0000
  N   N192      1.0  0.72932  0.92404  0.87014  1.0000
  C   C1908     1.0  0.73033  0.93690  0.85435  1.0000
  C   C1909     1.0  0.74585  0.92722  0.87852  1.0000
  C   C1910     1.0  0.73179  0.90225  0.86798  1.0000
  C   C1911     1.0  0.70938  0.92986  0.87970  1.0000
  C   C1912     1.0  0.71317  0.97365  0.92310  1.0000
  H   H3060     1.0  0.93866  0.63258  0.94222  1.0000
  S   S768      1.0  0.76622  0.97037  0.83246  1.0000
  C   C1913     1.0  0.96790  0.58761  0.93455  1.0000
  C   C1914     1.0  0.82091  0.79377  0.72156  1.0000
  H   H3061     1.0  0.69556  0.57553  0.78914  1.0000
  C   C1915     1.0  0.73969  0.97735  0.90000  1.0000
  H   H3062     1.0  0.67947  0.62683  0.80212  1.0000
  C   C1916     1.0  0.91188  0.48851  0.86411  1.0000
  H   H3063     1.0  0.71250  0.49382  0.73324  1.0000
  H   H3064     1.0  0.65872  0.57270  0.79462  1.0000
  C   C1917     1.0  0.70671  0.49051  0.90120  1.0000
  H   H3065     1.0  0.68241  0.97820  0.91768  1.0000
  H   H3066     1.0  0.89434  0.50233  0.89151  1.0000
  C   C1918     1.0  0.72482  0.98256  0.88977  1.0000
  C   C1919     1.0  0.70413  0.98284  0.89624  1.0000
  H   H3067     1.0  0.92064  0.49189  0.89272  1.0000
  H   H3068     1.0  0.92734  0.49280  0.86370  1.0000
  C   C1920     1.0  0.67779  0.68877  0.72176  1.0000
  H   H3069     1.0  0.86797  0.98250  0.79683  1.0000
  H   H3070     1.0  0.66841  0.48686  0.93276  1.0000
  H   H3071     1.0  0.95461  0.48929  0.90913  1.0000
  H   H3072     1.0  0.84223  0.98292  0.80674  1.0000
