data_image0
_chemical_formula_structural       SFeSH2SH4SHSH2FeS2FeS2FeHFeS3FeS2FeS2FeSFeS3C2H4C6H4CH2CHCHC2H2C6H5FeHC6H3CHFeHSHCFeHCH2CHSC2NC4H12CHCHCHCH4C2HCH2NHC3HC2HS2HCHNH2NC2HCH2SH9NC2H4SC2HC3SHCH6NC4SH10CHCFeC2H7SCSNFeHC2H2SHCH5CH2CH4CHC2H3C2FeHC2H2SH2CHCHSHSCFe2S2FeS3FeS2FeS2FeSFeHS2H3C6H3C6H4SC2H3FeHCH5C6H12CNSCSH2C2H2SHFeCHCNCNHCHSH2CNC4H4SCH3SH5CH2C2H3CH3C2NH3CH7CFeHCSNH3FeC2HS2CH2SH5C2SCHSCH3CHCFeCH2NC2HCHCHC2NH2C2H3SHCH4SHCH5C4H3CH2C2NFeSH2C2SCH6C2HFeCSFeS2FeSFe2S2FeS2FeSFeHFeS3CHSHS2CH3SHFeCH5C6H4C6H5CH2SNC4SCHCHC2HCHCH2CH9C6H4SHCH2SHCH6C2H3CHSH4NSH4C2H2FeC5H3CHFeNCH6C3NC4H12NC4H4FeCH2CHSHCNH2C2N2CH7CSHCHCH2CH2FeH2S2H3SHCS2FeS2HSCFeHFeSHSCFeH3CHS2NSFeS2FeSHFeHFeS3CH2C2SHC3S3FeS2H2CH2C2H6CHSHNFeHFeSHCH3CHC6H6C2H5SH2FeCH3CHC4HSH7CH5CHFeCHC2HNH3C5H2C4FeH2CHC2H5NFeCSCSCSC2SH3C3FeH4C2H2NCH2NH2SHFeCHSCHCSH2NCHCH2CSC3H2SH2CHC2H2C3NCHCH3FeCHCSCH3FeH3CH7C2HC3HCFeSH3CH2NSHCH2FeC2FeNH2CHSFeS2FeS2H2FeS3C3NHCSH3SCFeC3HC2HC2HCHC2FeHSH4SCFeH3FeHC8H3C4H2CH3SCNSH4NH2NCH2SH6FeSCHCH4CH2CH5C3H2SC3H7FeSHCHSC2SHNH2C2HC2HCSH2CH5C2FeCH2FeHS2CHCHSH2C3S2H3SCH5CH4SNH3CHC2HFeSCHSFeHFeSHSHFeS2CSFeSFeHSCSNCSHCHCFeS2FeS2FeCFeS3HCH2CH3C2H4C6H5C3SH5C6H4C2H2C2H4FeCHC7H4CHC4HFeH2CHC2HNSH3CH2FeS2CHNH2SFeSH3NC4H5FeH7CHC2HCH5FeNCH2CSH2FeCHNH2C3SH4CSFeHCH3CSCH2CN2HCHNH3CHSHSH2CH2SFeH4C3H6S2CFeH3S2HCH3CH4CHCHCFeS2FeS2HFeCSCFeS2FeS2FeSFeHS3HC2FeSFeSFeS2FeSFeS2CH4SCH3C6H4C5H2C6H4C6H8SHSCH2FeCHNHCH2SHC6H4C6H3NHNH5CH2FeHSCSCH3CNHCHC2H5CH3C2HFeCH2SCHCFeH3NC2H7CHCH2CH3FeHCSC4NHCHNC4H16SHNC4HFeHSH2SH2CHCH3CH2NCH2CSH6C2NH3CH2CHCHCSH4C2FeCH2C2H5CHFeSHFeS2FeH2CS2H2CFeS2FeS2FeS2FeSFeS3CFeHC2H2SHCH3CHCHSH3CHCH8NCHCH2CNCHCH4C5H5C2HSHCH4CH2C6H4FeHC2NCHSH3C3H4C3H5CSHCH2CHSNSCH2NH3CH3CH2CSCHCH2CFeC4HSCH2CH2CH4CHCH4C3NCSH3CSH4SHCSNFeHFeSHSFeS2FeS2FeSFeS3H5CH2C6H2CHFeHCHSC6H4C2HSC2SH2C2H3C2SH5C8H4SH3SHFeCHCH3CNCNCHC2H2SCH2CSHCH6C2H7FeCH3FeH4C3H2CH3SH2CH2NC4H12C3H2CNHSHCHFeCHC2H2S2CHFeC2H5SH3NH2CHFeNCNC2HCH2C2H5C3H4C2HCFeSFeSHC3HSH3SC2HCH4SFeS2FeS2FeHSC2H2FeHSFeS2FeS2FeSFeS3H3S2H3SC2HNHSHCSH3C3H2CHFeH3SCH2C3HFeH2C6H5CH3C6H4C6H4SHCHCH2CFeNH2C2H3CHN2HCHC2HSFeHC4H4NC4H12CHCHNCH2CH2NHSC2H3C2SCS2H2CFeH4CH4CHNH4NH2CH2SHSCHC2SFeHCH2SFeH2CHCFeH4SH2CH2C3HCFeCH6CH2CH3CH4C2H2C2H2CHC3HCHFeS2HCS2CHSHCHC2H2SCSHSHC2HNHFeS2FeSHFeSFeS3C4H2CFeCH2CH6SNHSH2CSHC6H4FeCH2CHSHCNC2H3C3H5C4H4C2SFeCH2CH2C2H4C2HNC4H16CHCH4SH2CNHCH3NH2SHFeHNC2H2C3H3SC2H2C2HCHCH2C3HCH2CSH2SHCH2CNHFeCH2SFeC2HCHFeCHSCHC2H5CSHSCHCH7CH2CHCH3CHCHCH2CHSH2CH3CFeH2SCFeS2FeS2FeSFeS3H3FeS2CFeS3CHFeHSH2NSHSH2S2FeSFeSHFeHFeS3C2HCHSNCSCH2FeSHSCHCHCFeH2C2H2CH2CHC2H2CH2C2H4CH2NHCFeHC3SH4C6H6CHFeH3C6H4C6H4C6H5C3H3CFeH3FeCNHSH2CH2CHCHCH5C3HCNHCH2CHCHNC3H11SCHCHFeHSCSCH2CSC2H7CFeH2C2NHC2HCHNCH5CNH2CHCHFeHCSH2SH2CH2C2HCH2NH2SH2FeH5CH5NCH6CHFeSFeSFeC2H3C2H2FeH3S2H2CHSCHCHNCH2FeS2FeSFeS3FeSCFeS2FeSFeS3CHCHCHSH3C6H5CSFeC6H10CSH3SH8C5H5CHC2H2CHC5SH4C4H3SHC3SHC2HCH4CH4CNC4H6CHCH3NH2CNH2C2H2CNC4H8CHS2C2HSNSH2C3HCH3SH4C2H2FeCHFeH3CFeH4CH2NHCH2CH2CH2CH3SHNSFeSFeS2FeS2CFeHSC2HCHS2C2H2FeSFeS3HFeS2H3FeSHCSH3CHCNH3FeCHCH2CNC8H2C6H4C7H4C6H5FeH2SHCHSH2NSHCH2CH2FeH3SHC2HCH4SHCFeH2CHCSHCHCHSHFeHCHCH4CSH2SCHCH5CHSFeH6NCHCH2NH3CH2FeH3NCH2C2HCFeNH3SCFeCHCHC3HCH2SCH3CH18C2H3CHSHNS2H3CH3C2H2FeS2FeS2FeSFeS4HFeH2CH3CHCHCH2C2NC2HFeSFeS3FeSFeCFeS2H2CHSH3CNCH2SCH2C2SNSHSH2C2HNHCH3FeHCHCSH2FeHC7H4C2H3CHCS2C6H4CSC4H2CSH3CH2SH2CH2C2NHCHSFeH2NHCHFeCH2CH2C3H2CH4CNCH2C2SCHCH2SC3H7CHNC2H8CH3CFeSCH7C2H3CHCH2C8H2CHSHC2H2CH8SH2SHCHCHFeH2FeS2FeS2FeSFeS3CHSCSFeS2FeS2FeSFeS3HCH3C2NCH2SC2FeHSHCHC2HS3H3CH3CSHCH2SCHFeC2NHCH3NCSHC3H4C4HCHSH3C5H4FeCH2C6H4C2HSH5FeC7H6CH3C7H4FeHNH2CHCH2NC3H4C2NH2CFeHSH4CH3CH2NC4H13C4HCH7FeHCH3CH4C2H7CHCH4NCHC2HCH2S2H3SHSHC2HS2HFeC2HC2HSH6C2H3FeH2C2H4CHCHSHCH2NSFe2SHFe3HSC2HFeSCSFeSCS2H2FeHSHCNSH2CHCSNHNH3SH3C3HC2FeC2HCHSCHCHFeHCH3SH6CHC6H4CHSH2CHC2H2CHCH2CHCHCSH2C2HCH2CH3CH5SH2FeCSHCH3FeCFeH2SH2SHCSHSH2C4NC4H2SHCFeHCFeSCH2CH2C2HCSCFeHCNCHCH3CHSHCSHCHNSH3SC3SFeS2FeSHFeHFeSCS3FeS2FeS2FeSFeS3FeS2FeSHFe2S3HSCHC5H3NHC6H5FeHC6H4CNHSC6H4C2H3C3H2CH2C4H5CH3NH4SH6CH3S2CH3FeH3SCHSH2NH2SNSCHS2FeHC2HCH3CH2SHCHC3HCHCNH2CHCNHCH3SHCHCH2CHFeC3HFeH5C2H2C3H7CSH8CH3CHCHCHCHFeH4CH3CNC4HCHNH7S2H3C2H6C2HFeH2NC2SC3H2C3HSH3CFeS2FeS2FeSFeS5FeSFe3S2HSHC3FeC2NSH3SH3CHC6H4C6H2NHC6H6C4HCH3CHSC3H5FeH2NH2C2SHCNH2SH4CSH2SHFeH2CSC2SC2SC2H2C3HSCFeCH2FeHSHC2SCHSCH2S2FeNHCH2S2CHFeHCNC4H12NC3HCH6CHCHCFeHCH2FeH3SCH2FeH3CHFeSH7CSHCH12CHCHFeSFeSHFeS2FeSFeS3NCH4FeS2FeSHFeSFeS2H2C2H3CSH4CSHC2NH9NH2CNSHFeH2NHFeCH5CSC6H4C6HCHCHCH2C3H2CHC2HCNH5CHC2H3CS3NH4SCH2SHCH3CH6SHC2HC2H2CHC3HS2HFeCHSH2CHC3FeCHCHC2HSCHSHFeSH2SCH2Fe2H2FeS2FeSHNSHFeSHFeS2FeHFeS7HC5H2CHC6H4FeSCHCH2CH3CHCNH2SH3NSH2C2NH3FeCFeSNFeC2HSHC6H4C2NHC2H6FeH2CSC2HSHCH4C2HC3HSNC4H14CH2CHC2H2CH3CH2CNCHC3H5CS2H2SHCSCSCHCH2CH2CFeHCSC3SFe2C2H3CH2FeHSH4CH6CH2CH7SH7CHSCHC2SCHNCHCNHCHCHCFeS2FeSCFeSFeHSHCHCHC2H3FeCH3SFeS2FeS2Fe2S3C3HCH2FeS2FeS2FeSFeS3FeH3CH2CH2C6H5C2NCH4C4H4CHCH2C2HCHC3H6C6H8NHNH9C4H3CH3NHC4HCH3SNCHCH2SCSCHCH3CHCHCFeHCHCH2SH6CHCHSH2C3HC2H4C3SCH5CSCH2CH2CH3C2HCSCHSH2CH5CH3CSHCH2S2HSC2H2FeS2FeSHFeSFeHS2CHSHC3HCSH2CSHCHC2H2CH2CHCS2C3H2C6H4C3FeHC2HC2H2FeHCSFeCHCFeHSHCHSC8H2NCH7CHFeH2NH2CHCS2H8SCH2C2HCNC4H12NC4H12S2CHFeHCFeHC2HSCH2CSH3CH2NCHCHFeS2FeS2FeSFeS3HFeS2FeSCFe2HS2C2FeHCFeS2HCFeHS2H3CH2NCFeHCHCHCFeHSH2SC3H3C2H3CHCHSCHC2HNHC3H7C2HC7H4C6H4C3HFeCHSH5NHSHC2H3CHCHNCFeCH3SHNH2C2HCN2H3C2H3NC4H12FeHS2CHCSFeC2S2HCH2C2H4CHC2H2SH9SCHCSHCHC4H3CSC2H7CH2CHCH3CH3SHCH4CH
_chemical_formula_sum              "S768 Fe384 H3072 C1920 N192"
_cell_length_a       56.4691
_cell_length_b       56.8036
_cell_length_c       96.657
_cell_angle_alpha    76.3311
_cell_angle_beta     76.3541
_cell_angle_gamma    76.0796

_space_group_name_H-M_alt    "P 1"
_space_group_IT_number       1

loop_
  _space_group_symop_operation_xyz
  'x, y, z'

loop_
  _atom_site_type_symbol
  _atom_site_label
  _atom_site_symmetry_multiplicity
  _atom_site_fract_x
  _atom_site_fract_y
  _atom_site_fract_z
  _atom_site_occupancy
  S   S1        1.0  0.16283  0.06706  0.99706  1.0000
  Fe  Fe1       1.0  0.17639  0.09057  0.00828  1.0000
  S   S2        1.0  0.15148  0.10365  0.02825  1.0000
  H   H1        1.0  0.28004  0.23579  0.98043  1.0000
  H   H2        1.0  0.45013  0.20532  0.15642  1.0000
  S   S3        1.0  0.21452  0.06687  0.00739  1.0000
  H   H3        1.0  0.30175  0.19495  0.01316  1.0000
  H   H4        1.0  0.07379  0.15050  0.14695  1.0000
  H   H5        1.0  0.29102  0.13035  0.20674  1.0000
  H   H6        1.0  0.04832  0.16556  0.15887  1.0000
  S   S4        1.0  0.45870  0.26304  0.11116  1.0000
  H   H7        1.0  0.29890  0.22798  0.00884  1.0000
  S   S5        1.0  0.01701  0.26674  0.13546  1.0000
  H   H8        1.0  0.23721  0.09614  0.18433  1.0000
  H   H9        1.0  0.13615  0.07795  0.11332  1.0000
  Fe  Fe2       1.0  0.28115  0.23880  0.19361  1.0000
  S   S6        1.0  0.30497  0.20315  0.20222  1.0000
  S   S7        1.0  0.27535  0.27395  0.20208  1.0000
  Fe  Fe3       1.0  0.26449  0.21540  0.17264  1.0000
  S   S8        1.0  0.28664  0.17791  0.18000  1.0000
  S   S9        1.0  0.24478  0.22408  0.15366  1.0000
  Fe  Fe4       1.0  0.27263  0.18632  0.20244  1.0000
  H   H10       1.0  0.16220  0.05036  0.08058  1.0000
  Fe  Fe5       1.0  0.31642  0.19883  0.17891  1.0000
  S   S10       1.0  0.35522  0.18835  0.16647  1.0000
  S   S11       1.0  0.24803  0.22239  0.19512  1.0000
  S   S12       1.0  0.29502  0.23590  0.17031  1.0000
  Fe  Fe6       1.0  0.17020  0.13455  0.09872  1.0000
  S   S13       1.0  0.12901  0.14659  0.10097  1.0000
  S   S14       1.0  0.19492  0.11756  0.08004  1.0000
  Fe  Fe7       1.0  0.17011  0.14849  0.12754  1.0000
  S   S15       1.0  0.12858  0.16193  0.13183  1.0000
  S   S16       1.0  0.19285  0.14247  0.14495  1.0000
  Fe  Fe8       1.0  0.12722  0.12801  0.12425  1.0000
  S   S17       1.0  0.09701  0.10615  0.13447  1.0000
  Fe  Fe9       1.0  0.13417  0.17941  0.10818  1.0000
  S   S18       1.0  0.11379  0.21550  0.09706  1.0000
  S   S19       1.0  0.16817  0.11323  0.12148  1.0000
  S   S20       1.0  0.17597  0.16874  0.10434  1.0000
  C   C1        1.0  0.10739  0.07511  0.14222  1.0000
  C   C2        1.0  0.13202  0.06661  0.14407  1.0000
  H   H11       1.0  0.21543  0.07671  0.18599  1.0000
  H   H12       1.0  0.12790  0.11650  0.05572  1.0000
  H   H13       1.0  0.14429  0.07943  0.14198  1.0000
  H   H14       1.0  0.07209  0.06484  0.14455  1.0000
  C   C3        1.0  0.23020  0.20142  0.15135  1.0000
  C   C4        1.0  0.23166  0.17835  0.16061  1.0000
  C   C5        1.0  0.22020  0.16048  0.15844  1.0000
  C   C6        1.0  0.20704  0.16555  0.14709  1.0000
  C   C7        1.0  0.20554  0.18864  0.13782  1.0000
  C   C8        1.0  0.21717  0.20649  0.13993  1.0000
  H   H15       1.0  0.24156  0.17428  0.16945  1.0000
  H   H16       1.0  0.22153  0.14265  0.16558  1.0000
  H   H17       1.0  0.19544  0.19271  0.12904  1.0000
  H   H18       1.0  0.21593  0.22434  0.13275  1.0000
  C   C9        1.0  0.36140  0.23416  0.16785  1.0000
  H   H19       1.0  0.27173  0.01448  0.99583  1.0000
  H   H20       1.0  0.34478  0.23483  0.17616  1.0000
  C   C10       1.0  0.17617  0.04971  0.08717  1.0000
  H   H21       1.0  0.02844  0.20751  0.13548  1.0000
  C   C11       1.0  0.03555  0.31365  0.17072  1.0000
  H   H22       1.0  0.36586  0.27058  0.16828  1.0000
  C   C12       1.0  0.31932  0.25988  0.21233  1.0000
  C   C13       1.0  0.29716  0.27717  0.21150  1.0000
  H   H23       1.0  0.21412  0.11072  0.22124  1.0000
  H   H24       1.0  0.32389  0.24476  0.20656  1.0000
  C   C14       1.0  0.04458  0.25417  0.12458  1.0000
  C   C15       1.0  0.06288  0.23708  0.13128  1.0000
  C   C16       1.0  0.08437  0.22542  0.12290  1.0000
  C   C17       1.0  0.08771  0.23092  0.10777  1.0000
  C   C18       1.0  0.06974  0.24855  0.10106  1.0000
  C   C19       1.0  0.04814  0.26012  0.10945  1.0000
  H   H25       1.0  0.06032  0.23266  0.14299  1.0000
  H   H26       1.0  0.09842  0.21233  0.12814  1.0000
  H   H27       1.0  0.07232  0.25303  0.08936  1.0000
  H   H28       1.0  0.03413  0.27338  0.10421  1.0000
  H   H29       1.0  0.16020  0.03478  0.14961  1.0000
  Fe  Fe10      1.0  0.20214  0.04542  0.99446  1.0000
  H   H30       1.0  0.28406  0.19046  0.98638  1.0000
  C   C20       1.0  0.16401  0.10712  0.04254  1.0000
  C   C21       1.0  0.18965  0.10360  0.04171  1.0000
  C   C22       1.0  0.19890  0.10687  0.05328  1.0000
  C   C23       1.0  0.18262  0.11381  0.06569  1.0000
  C   C24       1.0  0.15700  0.11718  0.06655  1.0000
  C   C25       1.0  0.14775  0.11389  0.05501  1.0000
  H   H31       1.0  0.20232  0.09840  0.03213  1.0000
  H   H32       1.0  0.21877  0.10408  0.05257  1.0000
  H   H33       1.0  0.14427  0.12219  0.07610  1.0000
  C   C26       1.0  0.18777  0.08691  0.21151  1.0000
  H   H34       1.0  0.30078  0.08448  0.21078  1.0000
  Fe  Fe11      1.0  0.47922  0.29458  0.10416  1.0000
  H   H35       1.0  0.35240  0.24828  0.22167  1.0000
  S   S21       1.0  0.09264  0.98538  0.19295  1.0000
  H   H36       1.0  0.01026  0.18931  0.14983  1.0000
  C   C27       1.0  0.09124  0.05839  0.14583  1.0000
  Fe  Fe12      1.0  0.44729  0.27488  0.13282  1.0000
  H   H37       1.0  0.29400  0.19229  0.13723  1.0000
  C   C28       1.0  0.29174  0.29703  0.21877  1.0000
  H   H38       1.0  0.23729  0.11482  0.20511  1.0000
  H   H39       1.0  0.38851  0.31571  0.16833  1.0000
  C   C29       1.0  0.46249  0.28834  0.05598  1.0000
  H   H40       1.0  0.44583  0.18062  0.14914  1.0000
  S   S22       1.0  0.48008  0.25076  0.14170  1.0000
  C   C30       1.0  0.28588  0.09378  0.21811  1.0000
  C   C31       1.0  0.29563  0.21190  0.00533  1.0000
  N   N1        1.0  0.14368  0.19390  0.05702  1.0000
  C   C32       1.0  0.12042  0.18481  0.06387  1.0000
  C   C33       1.0  0.16149  0.18521  0.06702  1.0000
  C   C34       1.0  0.13817  0.22122  0.05381  1.0000
  C   C35       1.0  0.15462  0.18439  0.04344  1.0000
  H   H41       1.0  0.11185  0.19140  0.07425  1.0000
  H   H42       1.0  0.12378  0.16429  0.06636  1.0000
  H   H43       1.0  0.10645  0.19127  0.05668  1.0000
  H   H44       1.0  0.17950  0.19118  0.06211  1.0000
  H   H45       1.0  0.15410  0.19252  0.07724  1.0000
  H   H46       1.0  0.16557  0.16474  0.07004  1.0000
  H   H47       1.0  0.12978  0.22883  0.06391  1.0000
  H   H48       1.0  0.12482  0.22851  0.04626  1.0000
  H   H49       1.0  0.15532  0.22879  0.04878  1.0000
  H   H50       1.0  0.14155  0.19019  0.03570  1.0000
  H   H51       1.0  0.15933  0.16380  0.04556  1.0000
  H   H52       1.0  0.17208  0.19107  0.03789  1.0000
  C   C36       1.0  0.14643  0.00982  0.21861  1.0000
  H   H53       1.0  0.06396  0.18712  0.11900  1.0000
  C   C37       1.0  0.13693  0.99037  0.21667  1.0000
  H   H54       1.0  0.31081  0.20643  0.11121  1.0000
  C   C38       1.0  0.46842  0.29315  0.06826  1.0000
  H   H55       1.0  0.04271  0.28527  0.15126  1.0000
  C   C39       1.0  0.21775  0.11224  0.20926  1.0000
  H   H56       1.0  0.40924  0.29849  0.98389  1.0000
  H   H57       1.0  0.02020  0.14341  0.15290  1.0000
  H   H58       1.0  0.34038  0.22369  0.99244  1.0000
  H   H59       1.0  0.13730  0.03039  0.10350  1.0000
  C   C40       1.0  0.03095  0.14557  0.14159  1.0000
  C   C41       1.0  0.12505  0.02452  0.15172  1.0000
  H   H60       1.0  0.02729  0.29683  0.17518  1.0000
  C   C42       1.0  0.10002  0.03310  0.15069  1.0000
  H   H61       1.0  0.33220  0.22729  0.10600  1.0000
  H   H62       1.0  0.27522  0.21415  0.00618  1.0000
  N   N2        1.0  0.04155  0.16821  0.13751  1.0000
  H   H63       1.0  0.22813  0.05095  0.20865  1.0000
  C   C43       1.0  0.02120  0.19005  0.13858  1.0000
  C   C44       1.0  0.05571  0.17023  0.12245  1.0000
  C   C45       1.0  0.05836  0.16694  0.14742  1.0000
  H   H64       1.0  0.39948  0.31645  0.20477  1.0000
  C   C46       1.0  0.19597  0.99285  0.97828  1.0000
  C   C47       1.0  0.46739  0.16141  0.17235  1.0000
  H   H65       1.0  0.35081  0.29479  0.19368  1.0000
  S   S23       1.0  0.21701  0.00387  0.99856  1.0000
  S   S24       1.0  0.13753  0.99279  0.15528  1.0000
  H   H66       1.0  0.04370  0.17111  0.11466  1.0000
  C   C48       1.0  0.33547  0.26194  0.22086  1.0000
  H   H67       1.0  0.20488  0.10945  0.18458  1.0000
  N   N3        1.0  0.21361  0.09013  0.20532  1.0000
  H   H68       1.0  0.20543  0.12937  0.20473  1.0000
  H   H69       1.0  0.18391  0.07057  0.20855  1.0000
  N   N4        1.0  0.16430  0.05224  0.10225  1.0000
  C   C49       1.0  0.15169  0.03129  0.10938  1.0000
  C   C50       1.0  0.14585  0.07564  0.10215  1.0000
  H   H70       1.0  0.18403  0.08378  0.22359  1.0000
  C   C51       1.0  0.18349  0.05247  0.11028  1.0000
  H   H71       1.0  0.16508  0.01330  0.11000  1.0000
  H   H72       1.0  0.11853  0.10877  0.98057  1.0000
  S   S25       1.0  0.45600  0.29887  0.02780  1.0000
  H   H73       1.0  0.13018  0.99195  0.20686  1.0000
  H   H74       1.0  0.13141  0.07648  0.09587  1.0000
  H   H75       1.0  0.25503  0.04308  0.98752  1.0000
  H   H76       1.0  0.38275  0.29170  0.20814  1.0000
  H   H77       1.0  0.15491  0.09179  0.09725  1.0000
  H   H78       1.0  0.34666  0.20616  0.97847  1.0000
  H   H79       1.0  0.19340  0.06807  0.10513  1.0000
  H   H80       1.0  0.19766  0.03504  0.11069  1.0000
  H   H81       1.0  0.17519  0.05461  0.12167  1.0000
  N   N5        1.0  0.30904  0.21028  0.99038  1.0000
  C   C52       1.0  0.39328  0.30929  0.17933  1.0000
  C   C53       1.0  0.14093  0.04134  0.14858  1.0000
  H   H82       1.0  0.05498  0.30897  0.17262  1.0000
  H   H83       1.0  0.17409  0.10336  0.20758  1.0000
  H   H84       1.0  0.39992  0.19635  0.14594  1.0000
  H   H85       1.0  0.46823  0.19914  0.13928  1.0000
  S   S26       1.0  0.45838  0.31182  0.98665  1.0000
  C   C54       1.0  0.34997  0.31510  0.19085  1.0000
  C   C55       1.0  0.39269  0.21243  0.15094  1.0000
  H   H86       1.0  0.06696  0.18356  0.14456  1.0000
  C   C56       1.0  0.33602  0.20747  0.98963  1.0000
  C   C57       1.0  0.21798  0.09323  0.18936  1.0000
  C   C58       1.0  0.04939  0.30299  0.14695  1.0000
  S   S27       1.0  0.26342  0.10036  0.97868  1.0000
  H   H87       1.0  0.18979  0.03198  0.08679  1.0000
  C   C59       1.0  0.46000  0.19024  0.15036  1.0000
  H   H88       1.0  0.33282  0.23172  0.14361  1.0000
  H   H89       1.0  0.07331  0.12491  0.98099  1.0000
  H   H90       1.0  0.30338  0.20281  0.15069  1.0000
  H   H91       1.0  0.01827  0.14577  0.13431  1.0000
  H   H92       1.0  0.42119  0.23233  0.13806  1.0000
  H   H93       1.0  0.00045  0.31101  0.15637  1.0000
  N   N6        1.0  0.31777  0.21901  0.12887  1.0000
  C   C60       1.0  0.33852  0.22596  0.13289  1.0000
  C   C61       1.0  0.32606  0.21182  0.11451  1.0000
  C   C62       1.0  0.29667  0.24026  0.12832  1.0000
  C   C63       1.0  0.30982  0.19794  0.13978  1.0000
  S   S28       1.0  0.25375  0.16415  0.22280  1.0000
  H   H94       1.0  0.34528  0.24161  0.12484  1.0000
  H   H95       1.0  0.35455  0.21017  0.13376  1.0000
  H   H96       1.0  0.18641  0.06491  0.08165  1.0000
  H   H97       1.0  0.34196  0.19581  0.11460  1.0000
  H   H98       1.0  0.28050  0.23554  0.12557  1.0000
  H   H99       1.0  0.47905  0.14293  0.14785  1.0000
  H   H100      1.0  0.30188  0.25652  0.12018  1.0000
  H   H101      1.0  0.28992  0.24614  0.13901  1.0000
  H   H102      1.0  0.08767  0.02014  0.15309  1.0000
  H   H103      1.0  0.32531  0.18162  0.14071  1.0000
  C   C64       1.0  0.40471  0.23271  0.14648  1.0000
  H   H104      1.0  0.04579  0.12870  0.14093  1.0000
  C   C65       1.0  0.37096  0.21318  0.16159  1.0000
  Fe  Fe13      1.0  0.49331  0.24171  0.11948  1.0000
  C   C66       1.0  0.37342  0.25437  0.16343  1.0000
  C   C67       1.0  0.23093  0.06808  0.21120  1.0000
  H   H105      1.0  0.14217  0.03290  0.12070  1.0000
  H   H106      1.0  0.45757  0.27084  0.05651  1.0000
  H   H107      1.0  0.14680  0.02636  0.21032  1.0000
  H   H108      1.0  0.39518  0.28883  0.18188  1.0000
  H   H109      1.0  0.07129  0.15409  0.12129  1.0000
  H   H110      1.0  0.06944  0.29923  0.14752  1.0000
  H   H111      1.0  0.27464  0.31050  0.21814  1.0000
  S   S29       1.0  0.18739  0.11774  0.98795  1.0000
  C   C68       1.0  0.39509  0.25368  0.15276  1.0000
  S   S30       1.0  0.40959  0.27936  0.14749  1.0000
  N   N7        1.0  0.47925  0.17297  0.15782  1.0000
  Fe  Fe14      1.0  0.22459  0.09204  0.98610  1.0000
  H   H112      1.0  0.46806  0.27938  0.07813  1.0000
  C   C69       1.0  0.28038  0.11972  0.21581  1.0000
  C   C70       1.0  0.30423  0.18879  0.98609  1.0000
  H   H113      1.0  0.34338  0.19059  0.99710  1.0000
  H   H114      1.0  0.00811  0.19154  0.13129  1.0000
  S   S31       1.0  0.46476  0.30837  0.12518  1.0000
  H   H115      1.0  0.04821  0.98981  0.22284  1.0000
  C   C71       1.0  0.26132  0.13176  0.22536  1.0000
  H   H116      1.0  0.45736  0.17557  0.17905  1.0000
  H   H117      1.0  0.22829  0.06536  0.22323  1.0000
  H   H118      1.0  0.04786  0.30833  0.13529  1.0000
  H   H119      1.0  0.31062  0.17114  0.99331  1.0000
  H   H120      1.0  0.45357  0.15090  0.17161  1.0000
  C   C72       1.0  0.46276  0.30606  0.04310  1.0000
  H   H121      1.0  0.25069  0.06967  0.20677  1.0000
  H   H122      1.0  0.48140  0.14833  0.17832  1.0000
  C   C73       1.0  0.47472  0.31574  0.06773  1.0000
  H   H123      1.0  0.26470  0.22512  0.22243  1.0000
  H   H124      1.0  0.48844  0.20122  0.16590  1.0000
  H   H125      1.0  0.28542  0.04177  0.99033  1.0000
  H   H126      1.0  0.30386  0.24977  0.98307  1.0000
  C   C74       1.0  0.27380  0.03124  0.98727  1.0000
  H   H127      1.0  0.39427  0.26166  0.98239  1.0000
  C   C75       1.0  0.49217  0.15362  0.14924  1.0000
  C   C76       1.0  0.30807  0.29931  0.22711  1.0000
  H   H128      1.0  0.41187  0.31346  0.17860  1.0000
  H   H129      1.0  0.30850  0.99179  0.98110  1.0000
  H   H130      1.0  0.22771  0.14658  0.97897  1.0000
  C   C77       1.0  0.30027  0.23308  0.98039  1.0000
  C   C78       1.0  0.38134  0.31206  0.20471  1.0000
  Fe  Fe15      1.0  0.21802  0.00791  0.27473  1.0000
  H   H131      1.0  0.08172  0.04222  0.36061  1.0000
  C   C79       1.0  0.17424  0.19592  0.44237  1.0000
  C   C80       1.0  0.33005  0.05655  0.46129  1.0000
  H   H132      1.0  0.17352  0.13519  0.45636  1.0000
  H   H133      1.0  0.21815  0.17095  0.43055  1.0000
  S   S32       1.0  0.00172  0.09994  0.36759  1.0000
  H   H134      1.0  0.11968  0.03261  0.32449  1.0000
  H   H135      1.0  0.35118  0.30729  0.32172  1.0000
  C   C81       1.0  0.24520  0.22670  0.46751  1.0000
  H   H136      1.0  0.17456  0.15886  0.46556  1.0000
  C   C82       1.0  0.32986  0.28163  0.22829  1.0000
  H   H137      1.0  0.18379  0.20669  0.43231  1.0000
  S   S33       1.0  0.16555  0.03559  0.37365  1.0000
  H   H138      1.0  0.25048  0.25890  0.43053  1.0000
  S   S34       1.0  0.39274  0.27457  0.41111  1.0000
  C   C83       1.0  0.31069  0.26565  0.42277  1.0000
  Fe  Fe16      1.0  0.17543  0.07187  0.36163  1.0000
  Fe  Fe17      1.0  0.16957  0.09070  0.38944  1.0000
  S   S35       1.0  0.15880  0.05602  0.40380  1.0000
  S   S36       1.0  0.17408  0.12377  0.39707  1.0000
  Fe  Fe18      1.0  0.13520  0.05813  0.38750  1.0000
  S   S37       1.0  0.09811  0.04579  0.39420  1.0000
  S   S38       1.0  0.20237  0.07107  0.37552  1.0000
  S   S39       1.0  0.14327  0.09454  0.37442  1.0000
  Fe  Fe19      1.0  0.31459  0.17471  0.42286  1.0000
  S   S40       1.0  0.30307  0.18496  0.44493  1.0000
  S   S41       1.0  0.33905  0.19360  0.40358  1.0000
  Fe  Fe20      1.0  0.28052  0.13719  0.43024  1.0000
  S   S42       1.0  0.26602  0.14500  0.45262  1.0000
  S   S43       1.0  0.26831  0.10526  0.42567  1.0000
  Fe  Fe21      1.0  0.26453  0.18482  0.44239  1.0000
  S   S44       1.0  0.22961  0.21369  0.44589  1.0000
  Fe  Fe22      1.0  0.30578  0.14386  0.45300  1.0000
  H   H139      1.0  0.21482  0.16483  0.44986  1.0000
  S   S45       1.0  0.27575  0.17716  0.41979  1.0000
  S   S46       1.0  0.32052  0.13369  0.43112  1.0000
  H   H140      1.0  0.31385  0.04551  0.37952  1.0000
  H   H141      1.0  0.27487  0.24282  0.44019  1.0000
  H   H142      1.0  0.08423  0.01415  0.23172  1.0000
  C   C84       1.0  0.07137  0.06165  0.38696  1.0000
  C   C85       1.0  0.05042  0.05062  0.39062  1.0000
  C   C86       1.0  0.02901  0.06215  0.38476  1.0000
  C   C87       1.0  0.02836  0.08482  0.37513  1.0000
  C   C88       1.0  0.04925  0.09597  0.37153  1.0000
  C   C89       1.0  0.07065  0.08450  0.37746  1.0000
  H   H143      1.0  0.01312  0.05336  0.38764  1.0000
  H   H144      1.0  0.04884  0.11363  0.36417  1.0000
  H   H145      1.0  0.08651  0.09339  0.37472  1.0000
  C   C90       1.0  0.20016  0.11873  0.40508  1.0000
  C   C91       1.0  0.21319  0.13783  0.40298  1.0000
  C   C92       1.0  0.23389  0.13415  0.40950  1.0000
  C   C93       1.0  0.24154  0.11134  0.41815  1.0000
  C   C94       1.0  0.22825  0.09246  0.42045  1.0000
  C   C95       1.0  0.20766  0.09606  0.41388  1.0000
  H   H146      1.0  0.20746  0.15536  0.39611  1.0000
  H   H147      1.0  0.24426  0.14872  0.40756  1.0000
  H   H148      1.0  0.23391  0.07498  0.42735  1.0000
  H   H149      1.0  0.19745  0.08139  0.41572  1.0000
  S   S47       1.0  0.42501  0.29148  0.37076  1.0000
  C   C96       1.0  0.36562  0.12887  0.46109  1.0000
  C   C97       1.0  0.39108  0.12584  0.46094  1.0000
  H   H150      1.0  0.35690  0.14341  0.45335  1.0000
  H   H151      1.0  0.40190  0.13808  0.45306  1.0000
  H   H152      1.0  0.30170  0.22193  0.23277  1.0000
  Fe  Fe23      1.0  0.39688  0.31791  0.35870  1.0000
  H   H153      1.0  0.44329  0.28204  0.40699  1.0000
  C   C98       1.0  0.22695  0.23131  0.45911  1.0000
  H   H154      1.0  0.45839  0.30042  0.24890  1.0000
  H   H155      1.0  0.22695  0.03388  0.43646  1.0000
  H   H156      1.0  0.11458  0.06551  0.32337  1.0000
  H   H157      1.0  0.48533  0.25082  0.42199  1.0000
  H   H158      1.0  0.26537  0.04814  0.36940  1.0000
  C   C99       1.0  0.37892  0.25131  0.40891  1.0000
  C   C100      1.0  0.37440  0.25095  0.39536  1.0000
  C   C101      1.0  0.36266  0.23279  0.39384  1.0000
  C   C102      1.0  0.35503  0.21510  0.40587  1.0000
  C   C103      1.0  0.35962  0.21537  0.41943  1.0000
  C   C104      1.0  0.37170  0.23336  0.42092  1.0000
  H   H159      1.0  0.37990  0.26467  0.38602  1.0000
  H   H160      1.0  0.35927  0.23260  0.38330  1.0000
  H   H161      1.0  0.35409  0.20159  0.42873  1.0000
  H   H162      1.0  0.37528  0.23347  0.43142  1.0000
  H   H163      1.0  0.24455  0.24538  0.25780  1.0000
  H   H164      1.0  0.19236  0.03045  0.34470  1.0000
  H   H165      1.0  0.27823  0.02441  0.38313  1.0000
  H   H166      1.0  0.30099  0.06908  0.36578  1.0000
  H   H167      1.0  0.24716  0.04126  0.38717  1.0000
  H   H168      1.0  0.29185  0.29012  0.39924  1.0000
  H   H169      1.0  0.28329  0.18522  0.23659  1.0000
  H   H170      1.0  0.15241  0.16988  0.43076  1.0000
  C   C105      1.0  0.26853  0.26026  0.43275  1.0000
  N   N8        1.0  0.28716  0.26393  0.41924  1.0000
  S   S48       1.0  0.21752  0.00218  0.39554  1.0000
  C   C106      1.0  0.19439  0.06779  0.31147  1.0000
  S   S49       1.0  0.37705  0.30843  0.34356  1.0000
  H   H171      1.0  0.29482  0.09537  0.45436  1.0000
  H   H172      1.0  0.08290  0.03080  0.34460  1.0000
  C   C107      1.0  0.26623  0.04307  0.38115  1.0000
  C   C108      1.0  0.23139  0.00184  0.41005  1.0000
  H   H173      1.0  0.26039  0.28609  0.40652  1.0000
  H   H174      1.0  0.18867  0.28074  0.47226  1.0000
  S   S50       1.0  0.18399  0.08392  0.33727  1.0000
  H   H175      1.0  0.45798  0.24086  0.42094  1.0000
  Fe  Fe24      1.0  0.18984  0.03658  0.38874  1.0000
  C   C109      1.0  0.19960  0.04971  0.30283  1.0000
  H   H176      1.0  0.31795  0.24867  0.43025  1.0000
  C   C110      1.0  0.22269  0.02032  0.41834  1.0000
  N   N9        1.0  0.47761  0.25754  0.40050  1.0000
  C   C111      1.0  0.15557  0.98618  0.24171  1.0000
  N   N10       1.0  0.05637  0.99273  0.24296  1.0000
  H   H177      1.0  0.26088  0.21156  0.46632  1.0000
  C   C112      1.0  0.19153  0.06095  0.32662  1.0000
  H   H178      1.0  0.05082  0.03297  0.39798  1.0000
  S   S51       1.0  0.43434  0.10477  0.47074  1.0000
  H   H179      1.0  0.20180  0.05508  0.29116  1.0000
  H   H180      1.0  0.19257  0.08711  0.30639  1.0000
  C   C113      1.0  0.25422  0.00099  0.43308  1.0000
  N   N11       1.0  0.11551  0.04391  0.34483  1.0000
  C   C114      1.0  0.08835  0.04515  0.34864  1.0000
  C   C115      1.0  0.12378  0.04729  0.32891  1.0000
  C   C116      1.0  0.12835  0.01961  0.35172  1.0000
  C   C117      1.0  0.12165  0.06363  0.35013  1.0000
  H   H181      1.0  0.24257  0.08129  0.24848  1.0000
  H   H182      1.0  0.29870  0.21965  0.25190  1.0000
  H   H183      1.0  0.17989  0.20030  0.45164  1.0000
  H   H184      1.0  0.46755  0.25628  0.38063  1.0000
  S   S52       1.0  0.35021  0.28345  0.23909  1.0000
  C   C118      1.0  0.24908  0.22496  0.25857  1.0000
  H   H185      1.0  0.27717  0.03400  0.46691  1.0000
  H   H186      1.0  0.12281  0.01665  0.36377  1.0000
  H   H187      1.0  0.48828  0.22342  0.41496  1.0000
  S   S53       1.0  0.26877  0.00201  0.44702  1.0000
  H   H188      1.0  0.25401  0.18337  0.24847  1.0000
  H   H189      1.0  0.11203  0.08230  0.34541  1.0000
  H   H190      1.0  0.15387  0.20289  0.44326  1.0000
  H   H191      1.0  0.28811  0.03580  0.40408  1.0000
  H   H192      1.0  0.27408  0.24046  0.40934  1.0000
  C   C119      1.0  0.19398  0.03597  0.33310  1.0000
  H   H193      1.0  0.27446  0.30327  0.41468  1.0000
  H   H194      1.0  0.19241  0.25448  0.45439  1.0000
  C   C120      1.0  0.20175  0.02474  0.30937  1.0000
  C   C121      1.0  0.47732  0.24248  0.41525  1.0000
  H   H195      1.0  0.20724  0.03502  0.41587  1.0000
  H   H196      1.0  0.14889  0.01803  0.34899  1.0000
  H   H197      1.0  0.05325  0.02832  0.22885  1.0000
  C   C122      1.0  0.16735  0.99406  0.42997  1.0000
  H   H198      1.0  0.30801  0.07748  0.38095  1.0000
  H   H199      1.0  0.14189  0.06348  0.34723  1.0000
  H   H200      1.0  0.24781  0.24991  0.23136  1.0000
  C   C123      1.0  0.17287  0.16404  0.43001  1.0000
  C   C124      1.0  0.06424  0.01673  0.23709  1.0000
  N   N12       1.0  0.30545  0.05598  0.45865  1.0000
  H   H201      1.0  0.34392  0.03967  0.45905  1.0000
  H   H202      1.0  0.00200  0.11423  0.42232  1.0000
  H   H203      1.0  0.25807  0.21670  0.26816  1.0000
  C   C125      1.0  0.15606  0.00762  0.23106  1.0000
  H   H204      1.0  0.06951  0.98722  0.26287  1.0000
  H   H205      1.0  0.23305  0.12707  0.24460  1.0000
  H   H206      1.0  0.47655  0.22660  0.39155  1.0000
  H   H207      1.0  0.28525  0.24781  0.24109  1.0000
  H   H208      1.0  0.06181  0.02735  0.24580  1.0000
  H   H209      1.0  0.11635  0.06126  0.36214  1.0000
  H   H210      1.0  0.00049  0.11465  0.39673  1.0000
  C   C126      1.0  0.46290  0.28257  0.40149  1.0000
  Fe  Fe25      1.0  0.25016  0.02612  0.24614  1.0000
  H   H211      1.0  0.28940  0.05326  0.44115  1.0000
  C   C127      1.0  0.46662  0.24593  0.39201  1.0000
  S   S54       1.0  0.25746  0.99385  0.26434  1.0000
  N   N13       1.0  0.26543  0.21814  0.24515  1.0000
  H   H212      1.0  0.21417  0.14085  0.44075  1.0000
  H   H213      1.0  0.20069  0.99864  0.32959  1.0000
  H   H214      1.0  0.26491  0.27562  0.43875  1.0000
  Fe  Fe26      1.0  0.40031  0.30299  0.39076  1.0000
  C   C128      1.0  0.35147  0.11346  0.47145  1.0000
  C   C129      1.0  0.25301  0.09190  0.23932  1.0000
  H   H215      1.0  0.14422  0.04655  0.32572  1.0000
  S   S55       1.0  0.23680  0.00441  0.23397  1.0000
  S   S56       1.0  0.20728  0.00137  0.29921  1.0000
  C   C130      1.0  0.19886  0.01796  0.32451  1.0000
  H   H216      1.0  0.47080  0.29212  0.40762  1.0000
  H   H217      1.0  0.07800  0.06351  0.34398  1.0000
  S   S57       1.0  0.48147  0.04273  0.47397  1.0000
  H   H218      1.0  0.32906  0.05774  0.47276  1.0000
  H   H219      1.0  0.14775  0.00396  0.43251  1.0000
  H   H220      1.0  0.26438  0.10032  0.38695  1.0000
  H   H221      1.0  0.17774  0.14395  0.42964  1.0000
  H   H222      1.0  0.28587  0.08123  0.47288  1.0000
  C   C131      1.0  0.29148  0.24275  0.41194  1.0000
  C   C132      1.0  0.20659  0.25085  0.46085  1.0000
  S   S58       1.0  0.16907  0.03152  0.23306  1.0000
  C   C133      1.0  0.28877  0.22728  0.24265  1.0000
  H   H223      1.0  0.29881  0.22518  0.41890  1.0000
  S   S59       1.0  0.27900  0.04742  0.23212  1.0000
  C   C134      1.0  0.28798  0.07899  0.46148  1.0000
  H   H224      1.0  0.23124  0.21843  0.26070  1.0000
  H   H225      1.0  0.30538  0.24480  0.40163  1.0000
  H   H226      1.0  0.32085  0.03683  0.44086  1.0000
  C   C135      1.0  0.24774  0.11782  0.23714  1.0000
  H   H227      1.0  0.12405  0.00421  0.34806  1.0000
  C   C136      1.0  0.27802  0.28691  0.40949  1.0000
  Fe  Fe27      1.0  0.19916  0.01782  0.24641  1.0000
  C   C137      1.0  0.27215  0.07983  0.22983  1.0000
  H   H228      1.0  0.28095  0.18178  0.25579  1.0000
  H   H229      1.0  0.39715  0.99251  0.43614  1.0000
  N   N14       1.0  0.27536  0.06166  0.38585  1.0000
  C   C138      1.0  0.30069  0.06350  0.37766  1.0000
  C   C139      1.0  0.27584  0.05415  0.40152  1.0000
  H   H230      1.0  0.25700  0.05263  0.40793  1.0000
  C   C140      1.0  0.30768  0.05393  0.44341  1.0000
  H   H231      1.0  0.44665  0.24551  0.39678  1.0000
  C   C141      1.0  0.23391  0.01971  0.42994  1.0000
  H   H232      1.0  0.14814  0.16117  0.45760  1.0000
  C   C142      1.0  0.36715  0.31558  0.31637  1.0000
  C   C143      1.0  0.20821  0.16101  0.44079  1.0000
  N   N15       1.0  0.18099  0.16912  0.44230  1.0000
  H   H233      1.0  0.30833  0.28159  0.42813  1.0000
  H   H234      1.0  0.32535  0.26793  0.41285  1.0000
  C   C144      1.0  0.16874  0.15549  0.45607  1.0000
  C   C145      1.0  0.25858  0.08594  0.38311  1.0000
  H   H235      1.0  0.23920  0.08504  0.38885  1.0000
  H   H236      1.0  0.25802  0.09246  0.37137  1.0000
  H   H237      1.0  0.28238  0.06784  0.40555  1.0000
  S   S60       1.0  0.21197  0.04199  0.25736  1.0000
  H   H238      1.0  0.18185  0.17395  0.41944  1.0000
  C   C146      1.0  0.27118  0.19097  0.24661  1.0000
  H   H239      1.0  0.42609  0.99190  0.42337  1.0000
  H   H240      1.0  0.30346  0.31441  0.23291  1.0000
  H   H241      1.0  0.33738  0.07292  0.45439  1.0000
  H   H242      1.0  0.46253  0.29422  0.39053  1.0000
  S   S61       1.0  0.31934  0.11772  0.47220  1.0000
  H   H243      1.0  0.02624  0.00743  0.25887  1.0000
  C   C147      1.0  0.40259  0.10721  0.47099  1.0000
  H   H244      1.0  0.31432  0.07006  0.43575  1.0000
  H   H245      1.0  0.17908  0.00321  0.43395  1.0000
  H   H246      1.0  0.01768  0.00725  0.24213  1.0000
  H   H247      1.0  0.23537  0.22236  0.23400  1.0000
  H   H248      1.0  0.26929  0.07953  0.45938  1.0000
  C   C148      1.0  0.02985  0.99685  0.25002  1.0000
  C   C149      1.0  0.20451  0.26582  0.47092  1.0000
  C   C150      1.0  0.25269  0.22939  0.23276  1.0000
  C   C151      1.0  0.24318  0.24178  0.47752  1.0000
  H   H249      1.0  0.41843  0.99432  0.45558  1.0000
  H   H250      1.0  0.44723  0.99387  0.44277  1.0000
  H   H251      1.0  0.30831  0.01689  0.46614  1.0000
  C   C152      1.0  0.29600  0.03457  0.46838  1.0000
  H   H252      1.0  0.17297  0.99682  0.41794  1.0000
  H   H253      1.0  0.45019  0.31423  0.26481  1.0000
  C   C153      1.0  0.44975  0.31782  0.25302  1.0000
  C   C154      1.0  0.38368  0.31788  0.32456  1.0000
  N   N16       1.0  0.22565  0.27059  0.69663  1.0000
  Fe  Fe28      1.0  0.46845  0.04943  0.51412  1.0000
  S   S62       1.0  0.46369  0.05228  0.53754  1.0000
  H   H254      1.0  0.44459  0.15374  0.70967  1.0000
  H   H255      1.0  0.99834  0.18566  0.69450  1.0000
  C   C155      1.0  0.41353  0.00826  0.48515  1.0000
  C   C156      1.0  0.40686  0.18957  0.72302  1.0000
  S   S63       1.0  0.43815  0.04606  0.50375  1.0000
  C   C157      1.0  0.48972  0.15800  0.69379  1.0000
  H   H256      1.0  0.40849  0.14973  0.65772  1.0000
  H   H257      1.0  0.32928  0.26319  0.63629  1.0000
  H   H258      1.0  0.00441  0.19847  0.72181  1.0000
  H   H259      1.0  0.42011  0.01371  0.53810  1.0000
  H   H260      1.0  0.39066  0.24490  0.70121  1.0000
  H   H261      1.0  0.23591  0.24987  0.54167  1.0000
  C   C158      1.0  0.31706  0.28091  0.63398  1.0000
  C   C159      1.0  0.20946  0.29226  0.68947  1.0000
  H   H262      1.0  0.02937  0.18715  0.68451  1.0000
  Fe  Fe29      1.0  0.34481  0.03890  0.59268  1.0000
  C   C160      1.0  0.21163  0.26027  0.71085  1.0000
  S   S64       1.0  0.35191  0.05579  0.56888  1.0000
  Fe  Fe30      1.0  0.32050  0.05514  0.62138  1.0000
  S   S65       1.0  0.32664  0.01649  0.63413  1.0000
  S   S66       1.0  0.29911  0.08797  0.63144  1.0000
  Fe  Fe31      1.0  0.36449  0.01246  0.61999  1.0000
  S   S67       1.0  0.22101  0.28018  0.49172  1.0000
  Fe  Fe32      1.0  0.31478  0.00601  0.61612  1.0000
  Fe  Fe33      1.0  0.47376  0.05304  0.69267  1.0000
  S   S68       1.0  0.35934  0.05201  0.60852  1.0000
  S   S69       1.0  0.30530  0.04518  0.60457  1.0000
  Fe  Fe34      1.0  0.33749  0.18895  0.68684  1.0000
  S   S70       1.0  0.32223  0.16313  0.67855  1.0000
  S   S71       1.0  0.36291  0.16879  0.70247  1.0000
  Fe  Fe35      1.0  0.31277  0.23417  0.66741  1.0000
  S   S72       1.0  0.29703  0.21147  0.65709  1.0000
  Fe  Fe36      1.0  0.28687  0.19126  0.67988  1.0000
  H   H263      1.0  0.38960  0.98804  0.51640  1.0000
  Fe  Fe37      1.0  0.33412  0.18571  0.65680  1.0000
  S   S73       1.0  0.35761  0.16326  0.64037  1.0000
  S   S74       1.0  0.30075  0.21507  0.69035  1.0000
  S   S75       1.0  0.35119  0.21037  0.66495  1.0000
  C   C161      1.0  0.23094  0.31173  0.53834  1.0000
  H   H264      1.0  0.43866  0.20271  0.68867  1.0000
  S   S76       1.0  0.44990  0.06809  0.64625  1.0000
  H   H265      1.0  0.07638  0.99040  0.60627  1.0000
  S   S77       1.0  0.48244  0.07833  0.49596  1.0000
  S   S78       1.0  0.45113  0.07649  0.70870  1.0000
  C   C162      1.0  0.31839  0.29425  0.61965  1.0000
  H   H266      1.0  0.25318  0.12782  0.66062  1.0000
  H   H267      1.0  0.22378  0.26835  0.55545  1.0000
  H   H268      1.0  0.30103  0.08447  0.68016  1.0000
  S   S79       1.0  0.45503  0.03110  0.68359  1.0000
  H   H269      1.0  0.09770  0.00832  0.67745  1.0000
  Fe  Fe38      1.0  0.45464  0.07222  0.48465  1.0000
  C   C163      1.0  0.40695  0.00155  0.54454  1.0000
  H   H270      1.0  0.39358  0.15659  0.72386  1.0000
  H   H271      1.0  0.24490  0.25873  0.67664  1.0000
  H   H272      1.0  0.22341  0.24422  0.71673  1.0000
  H   H273      1.0  0.48838  0.15849  0.70540  1.0000
  H   H274      1.0  0.29055  0.09397  0.66319  1.0000
  C   C164      1.0  0.41263  0.01455  0.63436  1.0000
  C   C165      1.0  0.43614  0.00634  0.63816  1.0000
  C   C166      1.0  0.44742  0.02255  0.64217  1.0000
  C   C167      1.0  0.43559  0.04726  0.64191  1.0000
  C   C168      1.0  0.41210  0.05548  0.63813  1.0000
  C   C169      1.0  0.40045  0.03903  0.63465  1.0000
  H   H275      1.0  0.47052  0.20621  0.68506  1.0000
  H   H276      1.0  0.46561  0.01614  0.64503  1.0000
  H   H277      1.0  0.40278  0.07450  0.63805  1.0000
  H   H278      1.0  0.38200  0.04528  0.63229  1.0000
  C   C170      1.0  0.31597  0.10903  0.63316  1.0000
  C   C171      1.0  0.34195  0.10381  0.63075  1.0000
  C   C172      1.0  0.35477  0.12084  0.63262  1.0000
  C   C173      1.0  0.34159  0.14272  0.63729  1.0000
  C   C174      1.0  0.31565  0.14792  0.63966  1.0000
  C   C175      1.0  0.30291  0.13131  0.63732  1.0000
  H   H279      1.0  0.35216  0.08655  0.62771  1.0000
  H   H280      1.0  0.37487  0.11679  0.63078  1.0000
  H   H281      1.0  0.30542  0.16497  0.64306  1.0000
  H   H282      1.0  0.28288  0.13570  0.63878  1.0000
  H   H283      1.0  0.05323  0.30399  0.49252  1.0000
  C   C176      1.0  0.04803  0.01390  0.68174  1.0000
  H   H284      1.0  0.19662  0.19610  0.69945  1.0000
  H   H285      1.0  0.25858  0.28610  0.68825  1.0000
  S   S80       1.0  0.15542  0.30777  0.51217  1.0000
  N   N17       1.0  0.06664  0.00127  0.67090  1.0000
  C   C177      1.0  0.45724  0.19429  0.69156  1.0000
  C   C178      1.0  0.23399  0.25165  0.68741  1.0000
  C   C179      1.0  0.30042  0.29086  0.64533  1.0000
  C   C180      1.0  0.37840  0.18695  0.70828  1.0000
  S   S81       1.0  0.39858  0.99386  0.62960  1.0000
  C   C181      1.0  0.38854  0.09138  0.48114  1.0000
  H   H286      1.0  0.26035  0.26215  0.70402  1.0000
  C   C182      1.0  0.40618  0.21445  0.71661  1.0000
  H   H287      1.0  0.41600  0.00051  0.51625  1.0000
  C   C183      1.0  0.37746  0.21190  0.70198  1.0000
  C   C184      1.0  0.24760  0.27817  0.69878  1.0000
  H   H288      1.0  0.20448  0.27427  0.71796  1.0000
  C   C185      1.0  0.23670  0.26724  0.54486  1.0000
  H   H289      1.0  0.30451  0.11417  0.66912  1.0000
  C   C186      1.0  0.38944  0.01093  0.48272  1.0000
  H   H290      1.0  0.05477  0.01108  0.69204  1.0000
  H   H291      1.0  0.43130  0.08595  0.67652  1.0000
  C   C187      1.0  0.45868  0.10564  0.72541  1.0000
  H   H292      1.0  0.24732  0.26988  0.51604  1.0000
  H   H293      1.0  0.36720  0.11907  0.68903  1.0000
  H   H294      1.0  0.38949  0.09058  0.69216  1.0000
  H   H295      1.0  0.10243  0.30968  0.71913  1.0000
  H   H296      1.0  0.25586  0.26562  0.54662  1.0000
  H   H297      1.0  0.43951  0.11069  0.66219  1.0000
  H   H298      1.0  0.28175  0.13388  0.69028  1.0000
  H   H299      1.0  0.03867  0.23298  0.70389  1.0000
  H   H300      1.0  0.19061  0.29167  0.54193  1.0000
  C   C188      1.0  0.43261  0.05537  0.54660  1.0000
  C   C189      1.0  0.42696  0.04567  0.56147  1.0000
  C   C190      1.0  0.40212  0.04627  0.56856  1.0000
  C   C191      1.0  0.38294  0.05696  0.56080  1.0000
  C   C192      1.0  0.38858  0.06773  0.54612  1.0000
  C   C193      1.0  0.41338  0.06670  0.53898  1.0000
  H   H301      1.0  0.44182  0.03694  0.56741  1.0000
  H   H302      1.0  0.39789  0.03790  0.57992  1.0000
  H   H303      1.0  0.37377  0.07636  0.54013  1.0000
  H   H304      1.0  0.41762  0.07473  0.52758  1.0000
  S   S82       1.0  0.24823  0.18323  0.68684  1.0000
  H   H305      1.0  0.24210  0.29233  0.70577  1.0000
  C   C194      1.0  0.37493  0.02507  0.53120  1.0000
  H   H306      1.0  0.35205  0.08264  0.48943  1.0000
  H   H307      1.0  0.26725  0.18195  0.71242  1.0000
  S   S83       1.0  0.15340  0.31340  0.71621  1.0000
  H   H308      1.0  0.36624  0.22059  0.69381  1.0000
  C   C195      1.0  0.19524  0.19977  0.72135  1.0000
  H   H309      1.0  0.05127  0.02564  0.65305  1.0000
  H   H310      1.0  0.40294  0.11142  0.65205  1.0000
  H   H311      1.0  0.42844  0.16120  0.69485  1.0000
  H   H312      1.0  0.19524  0.25380  0.70963  1.0000
  H   H313      1.0  0.24619  0.23508  0.69254  1.0000
  H   H314      1.0  0.20307  0.30704  0.69607  1.0000
  C   C196      1.0  0.05669  0.00557  0.65750  1.0000
  C   C197      1.0  0.03958  0.21536  0.70044  1.0000
  H   H315      1.0  0.19865  0.30703  0.52363  1.0000
  H   H316      1.0  0.45019  0.17600  0.66995  1.0000
  H   H317      1.0  0.29497  0.03494  0.47997  1.0000
  C   C198      1.0  0.39127  0.22564  0.70618  1.0000
  H   H318      1.0  0.45556  0.19520  0.70315  1.0000
  S   S84       1.0  0.42501  0.23155  0.72063  1.0000
  H   H319      1.0  0.36168  0.02470  0.52439  1.0000
  H   H320      1.0  0.39727  0.07699  0.48890  1.0000
  H   H321      1.0  0.37252  0.11467  0.66319  1.0000
  H   H322      1.0  0.45269  0.13414  0.69655  1.0000
  N   N18       1.0  0.40152  0.11717  0.67347  1.0000
  S   S85       1.0  0.29951  0.27552  0.66350  1.0000
  H   H323      1.0  0.20307  0.27404  0.52763  1.0000
  H   H324      1.0  0.01739  0.23256  0.67717  1.0000
  H   H325      1.0  0.27799  0.10415  0.70113  1.0000
  H   H326      1.0  0.19245  0.28726  0.68797  1.0000
  C   C199      1.0  0.24746  0.28694  0.51980  1.0000
  C   C200      1.0  0.46982  0.08974  0.71561  1.0000
  H   H327      1.0  0.26810  0.14740  0.66647  1.0000
  H   H328      1.0  0.36396  0.03355  0.54062  1.0000
  Fe  Fe39      1.0  0.49022  0.00254  0.68374  1.0000
  C   C201      1.0  0.20447  0.29038  0.53168  1.0000
  C   C202      1.0  0.38735  0.11093  0.68835  1.0000
  C   C203      1.0  0.08969  0.01116  0.66756  1.0000
  C   C204      1.0  0.39806  0.14431  0.66891  1.0000
  C   C205      1.0  0.23338  0.18860  0.70428  1.0000
  H   H329      1.0  0.33163  0.28670  0.61095  1.0000
  H   H330      1.0  0.43555  0.11331  0.68091  1.0000
  H   H331      1.0  0.05298  0.21499  0.68998  1.0000
  C   C206      1.0  0.20739  0.19486  0.70758  1.0000
  H   H332      1.0  0.02455  0.17298  0.70335  1.0000
  Fe  Fe40      1.0  0.47473  0.04922  0.66229  1.0000
  N   N19       1.0  0.01480  0.21264  0.69919  1.0000
  C   C207      1.0  0.01685  0.18857  0.69518  1.0000
  H   H333      1.0  0.38759  0.03762  0.52461  1.0000
  H   H334      1.0  0.39387  0.11825  0.69624  1.0000
  H   H335      1.0  0.39517  0.08644  0.66634  1.0000
  H   H336      1.0  0.40410  0.15278  0.67643  1.0000
  H   H337      1.0  0.37816  0.15284  0.66881  1.0000
  H   H338      1.0  0.23769  0.14273  0.67570  1.0000
  C   C208      1.0  0.42816  0.10645  0.67325  1.0000
  C   C209      1.0  0.39256  0.10695  0.66337  1.0000
  C   C210      1.0  0.30263  0.31725  0.61657  1.0000
  N   N20       1.0  0.34740  0.12217  0.58389  1.0000
  C   C211      1.0  0.34315  0.14507  0.58964  1.0000
  C   C212      1.0  0.34759  0.12830  0.56813  1.0000
  C   C213      1.0  0.32727  0.10852  0.59129  1.0000
  C   C214      1.0  0.37161  0.10670  0.58653  1.0000
  H   H339      1.0  0.34274  0.14089  0.60156  1.0000
  H   H340      1.0  0.32507  0.15725  0.58783  1.0000
  H   H341      1.0  0.35809  0.15580  0.58442  1.0000
  H   H342      1.0  0.35082  0.11122  0.56357  1.0000
  H   H343      1.0  0.32956  0.13979  0.56570  1.0000
  H   H344      1.0  0.36257  0.13857  0.56214  1.0000
  H   H345      1.0  0.32687  0.10312  0.60315  1.0000
  H   H346      1.0  0.32959  0.09129  0.58711  1.0000
  H   H347      1.0  0.30867  0.11974  0.58977  1.0000
  H   H348      1.0  0.38726  0.11630  0.58092  1.0000
  H   H349      1.0  0.37527  0.08910  0.58249  1.0000
  H   H350      1.0  0.37229  0.10189  0.59831  1.0000
  N   N21       1.0  0.26716  0.11178  0.68033  1.0000
  C   C215      1.0  0.25090  0.09337  0.68480  1.0000
  C   C216      1.0  0.26973  0.11986  0.69328  1.0000
  C   C217      1.0  0.25605  0.13332  0.67032  1.0000
  C   C218      1.0  0.29191  0.10060  0.67290  1.0000
  H   H351      1.0  0.23203  0.10130  0.69036  1.0000
  H   H352      1.0  0.25867  0.07687  0.69240  1.0000
  H   H353      1.0  0.24866  0.08683  0.67526  1.0000
  H   H354      1.0  0.25141  0.12868  0.69905  1.0000
  Fe  Fe41      1.0  0.46702  0.01683  0.49386  1.0000
  C   C219      1.0  0.24720  0.18694  0.71484  1.0000
  H   H355      1.0  0.04757  0.20008  0.70866  1.0000
  H   H356      1.0  0.42101  0.02449  0.48428  1.0000
  C   C220      1.0  0.46816  0.16810  0.67371  1.0000
  H   H357      1.0  0.17519  0.20441  0.72386  1.0000
  S   S86       1.0  0.00165  0.99837  0.64563  1.0000
  H   H358      1.0  0.21931  0.30032  0.67861  1.0000
  C   C221      1.0  0.39290  0.17588  0.71891  1.0000
  N   N22       1.0  0.38896  0.00004  0.53603  1.0000
  H   H359      1.0  0.47442  0.14887  0.67164  1.0000
  H   H360      1.0  0.39735  0.00913  0.55446  1.0000
  C   C222      1.0  0.44700  0.15375  0.69790  1.0000
  C   C223      1.0  0.00499  0.23281  0.68798  1.0000
  N   N23       1.0  0.46554  0.16855  0.68922  1.0000
  N   N24       1.0  0.22993  0.28906  0.53368  1.0000
  C   C224      1.0  0.28469  0.31386  0.64224  1.0000
  H   H361      1.0  0.10410  0.00193  0.65943  1.0000
  H   H362      1.0  0.21803  0.24529  0.68555  1.0000
  H   H363      1.0  0.04323  0.03417  0.67762  1.0000
  H   H364      1.0  0.21756  0.31410  0.54864  1.0000
  H   H365      1.0  0.08618  0.03134  0.66302  1.0000
  H   H366      1.0  0.03032  0.00701  0.68441  1.0000
  H   H367      1.0  0.00311  0.25122  0.69073  1.0000
  C   C225      1.0  0.37972  0.99008  0.48350  1.0000
  S   S87       1.0  0.35336  0.99868  0.60288  1.0000
  H   H368      1.0  0.48206  0.17906  0.66683  1.0000
  C   C226      1.0  0.36296  0.09462  0.48142  1.0000
  H   H369      1.0  0.37842  0.02927  0.48012  1.0000
  C   C227      1.0  0.40248  0.98920  0.52322  1.0000
  H   H370      1.0  0.03988  0.99751  0.65962  1.0000
  H   H371      1.0  0.24237  0.30279  0.51103  1.0000
  C   C228      1.0  0.99765  0.21371  0.71325  1.0000
  H   H372      1.0  0.99591  0.23136  0.71685  1.0000
  H   H373      1.0  0.26684  0.28637  0.52076  1.0000
  Fe  Fe42      1.0  0.18763  0.31119  0.49370  1.0000
  H   H374      1.0  0.25737  0.23817  0.48398  1.0000
  H   H375      1.0  0.36093  0.99219  0.55490  1.0000
  S   S88       1.0  0.34943  0.99429  0.48051  1.0000
  S   S89       1.0  0.49184  0.07266  0.67136  1.0000
  H   H376      1.0  0.24978  0.31142  0.54012  1.0000
  H   H377      1.0  0.07040  0.99678  0.64893  1.0000
  H   H378      1.0  0.99732  0.08854  0.67857  1.0000
  S   S90       1.0  0.09829  0.31766  0.49352  1.0000
  H   H379      1.0  0.44578  0.98751  0.63784  1.0000
  C   C229      1.0  0.22285  0.26138  0.47924  1.0000
  S   S91       1.0  0.49278  0.20047  0.72147  1.0000
  S   S92       1.0  0.04006  0.15501  0.73273  1.0000
  Fe  Fe43      1.0  0.03692  0.17819  0.93909  1.0000
  S   S93       1.0  0.05816  0.17777  0.91643  1.0000
  S   S94       1.0  0.04565  0.14794  0.95810  1.0000
  H   H380      1.0  0.08142  0.07459  0.93824  1.0000
  S   S95       1.0  0.02286  0.23135  0.90683  1.0000
  C   C230      1.0  0.14355  0.21257  0.92782  1.0000
  Fe  Fe44      1.0  0.02111  0.19131  0.90977  1.0000
  H   H381      1.0  0.29288  0.23708  0.89230  1.0000
  Fe  Fe45      1.0  0.05805  0.21748  0.91574  1.0000
  S   S96       1.0  0.09583  0.22771  0.90806  1.0000
  H   H382      1.0  0.00001  0.15391  0.81044  1.0000
  S   S97       1.0  0.03906  0.21713  0.93897  1.0000
  C   C231      1.0  0.15152  0.17378  0.94446  1.0000
  Fe  Fe46      1.0  0.15964  0.23328  0.75034  1.0000
  H   H383      1.0  0.31392  0.18724  0.97479  1.0000
  H   H384      1.0  0.33700  0.27242  0.86588  1.0000
  H   H385      1.0  0.29877  0.25964  0.85273  1.0000
  C   C232      1.0  0.29203  0.16179  0.95886  1.0000
  H   H386      1.0  0.48478  0.14239  0.77851  1.0000
  S   S98       1.0  0.10572  0.28915  0.75149  1.0000
  S   S99       1.0  0.43873  0.06926  0.85390  1.0000
  N   N25       1.0  0.28431  0.02489  0.97279  1.0000
  S   S100      1.0  0.39472  0.12319  0.87132  1.0000
  Fe  Fe47      1.0  0.35954  0.21984  0.92208  1.0000
  S   S101      1.0  0.34694  0.21116  0.94618  1.0000
  S   S102      1.0  0.39430  0.19668  0.91149  1.0000
  Fe  Fe48      1.0  0.32351  0.26885  0.91885  1.0000
  S   S103      1.0  0.30843  0.26477  0.94273  1.0000
  H   H387      1.0  0.48783  0.15965  0.93846  1.0000
  Fe  Fe49      1.0  0.34801  0.25066  0.94565  1.0000
  H   H388      1.0  0.39987  0.16272  0.80756  1.0000
  Fe  Fe50      1.0  0.30846  0.22563  0.94164  1.0000
  S   S104      1.0  0.27389  0.21232  0.95506  1.0000
  S   S105      1.0  0.36335  0.25837  0.92180  1.0000
  S   S106      1.0  0.32081  0.23072  0.91736  1.0000
  C   C233      1.0  0.03415  0.21623  0.74925  1.0000
  H   H389      1.0  0.44268  0.17485  0.94602  1.0000
  H   H390      1.0  0.05876  0.06925  0.92022  1.0000
  C   C234      1.0  0.47316  0.11812  0.73002  1.0000
  C   C235      1.0  0.31458  0.24487  0.85594  1.0000
  S   S107      1.0  0.45872  0.18905  0.78695  1.0000
  H   H391      1.0  0.11862  0.22926  0.95203  1.0000
  C   C236      1.0  0.08625  0.12560  0.97074  1.0000
  C   C237      1.0  0.46261  0.19696  0.91034  1.0000
  C   C238      1.0  0.10943  0.19319  0.94168  1.0000
  S   S108      1.0  0.17706  0.31045  0.85030  1.0000
  S   S109      1.0  0.45512  0.17462  0.74930  1.0000
  S   S110      1.0  0.12641  0.23365  0.76866  1.0000
  Fe  Fe51      1.0  0.10433  0.25014  0.75089  1.0000
  S   S111      1.0  0.19426  0.20363  0.74937  1.0000
  S   S112      1.0  0.21461  0.06915  0.97320  1.0000
  H   H392      1.0  0.20317  0.30730  0.78630  1.0000
  H   H393      1.0  0.02683  0.08420  0.92060  1.0000
  C   C239      1.0  0.46302  0.30500  0.95066  1.0000
  H   H394      1.0  0.43544  0.12870  0.80928  1.0000
  H   H395      1.0  0.31004  0.23223  0.96910  1.0000
  C   C240      1.0  0.47779  0.13506  0.82015  1.0000
  C   C241      1.0  0.11180  0.11643  0.97052  1.0000
  H   H396      1.0  0.42414  0.13277  0.84109  1.0000
  H   H397      1.0  0.31782  0.00405  0.96215  1.0000
  H   H398      1.0  0.24026  0.26730  0.90127  1.0000
  H   H399      1.0  0.10474  0.24780  0.82906  1.0000
  H   H400      1.0  0.04606  0.14634  0.78695  1.0000
  H   H401      1.0  0.46437  0.13062  0.73741  1.0000
  C   C242      1.0  0.07178  0.18158  0.73665  1.0000
  H   H402      1.0  0.15349  0.16287  0.93594  1.0000
  S   S113      1.0  0.22027  0.29557  0.87668  1.0000
  H   H403      1.0  0.29419  0.04382  0.95077  1.0000
  N   N26       1.0  0.46260  0.17845  0.92396  1.0000
  Fe  Fe52      1.0  0.45442  0.04113  0.87173  1.0000
  H   H404      1.0  0.29804  0.05874  0.96438  1.0000
  Fe  Fe53      1.0  0.00099  0.14797  0.73656  1.0000
  S   S114      1.0  0.36481  0.25362  0.96417  1.0000
  H   H405      1.0  0.18747  0.01224  0.97615  1.0000
  C   C243      1.0  0.09465  0.28645  0.84257  1.0000
  H   H406      1.0  0.30390  0.28234  0.87051  1.0000
  H   H407      1.0  0.47017  0.14819  0.91268  1.0000
  H   H408      1.0  0.24572  0.18962  0.73695  1.0000
  C   C244      1.0  0.48755  0.31083  0.92650  1.0000
  H   H409      1.0  0.01326  0.08443  0.95307  1.0000
  C   C245      1.0  0.39413  0.14390  0.88242  1.0000
  C   C246      1.0  0.37145  0.15714  0.88882  1.0000
  C   C247      1.0  0.37108  0.17343  0.89787  1.0000
  C   C248      1.0  0.39346  0.17690  0.90018  1.0000
  C   C249      1.0  0.41604  0.16409  0.89347  1.0000
  C   C250      1.0  0.41637  0.14739  0.88482  1.0000
  H   H410      1.0  0.35418  0.15426  0.88712  1.0000
  H   H411      1.0  0.35360  0.18292  0.90322  1.0000
  H   H412      1.0  0.43344  0.16699  0.89495  1.0000
  H   H413      1.0  0.43390  0.13735  0.87995  1.0000
  H   H414      1.0  0.05768  0.06381  0.95273  1.0000
  H   H415      1.0  0.03498  0.05866  0.93473  1.0000
  C   C251      1.0  0.46980  0.15814  0.81177  1.0000
  C   C252      1.0  0.47188  0.16077  0.79679  1.0000
  H   H416      1.0  0.26771  0.06013  0.96145  1.0000
  H   H417      1.0  0.42254  0.15934  0.82666  1.0000
  H   H418      1.0  0.41818  0.18083  0.73111  1.0000
  H   H419      1.0  0.46161  0.17396  0.81691  1.0000
  H   H420      1.0  0.42469  0.19313  0.93281  1.0000
  S   S115      1.0  0.16519  0.27062  0.75133  1.0000
  H   H421      1.0  0.09707  0.20278  0.73925  1.0000
  H   H422      1.0  0.17405  0.28979  0.77773  1.0000
  Fe  Fe54      1.0  0.47658  0.07893  0.84707  1.0000
  C   C253      1.0  0.23500  0.19121  0.72873  1.0000
  H   H423      1.0  0.30995  0.16596  0.95325  1.0000
  H   H424      1.0  0.09405  0.23949  0.85613  1.0000
  H   H425      1.0  0.03198  0.17491  0.79312  1.0000
  C   C254      1.0  0.45689  0.15557  0.92191  1.0000
  H   H426      1.0  0.14322  0.28884  0.83378  1.0000
  C   C255      1.0  0.07755  0.13615  0.95776  1.0000
  C   C256      1.0  0.09436  0.13679  0.94457  1.0000
  C   C257      1.0  0.11969  0.12721  0.94433  1.0000
  C   C258      1.0  0.12853  0.11730  0.95728  1.0000
  H   H427      1.0  0.02172  0.11333  0.95219  1.0000
  S   S116      1.0  0.99958  0.18846  0.93255  1.0000
  H   H428      1.0  0.08800  0.14457  0.93451  1.0000
  H   H429      1.0  0.13258  0.12776  0.93406  1.0000
  H   H430      1.0  0.39626  0.10286  0.84387  1.0000
  H   H431      1.0  0.38056  0.14102  0.80899  1.0000
  H   H432      1.0  0.47564  0.13326  0.83169  1.0000
  H   H433      1.0  0.33515  0.20518  0.87406  1.0000
  H   H434      1.0  0.09035  0.29486  0.85240  1.0000
  C   C259      1.0  0.37581  0.28011  0.96448  1.0000
  H   H435      1.0  0.33184  0.24927  0.84840  1.0000
  H   H436      1.0  0.23232  0.19008  0.96956  1.0000
  H   H437      1.0  0.27638  0.25162  0.87778  1.0000
  H   H438      1.0  0.47684  0.19018  0.90133  1.0000
  H   H439      1.0  0.00079  0.15009  0.87384  1.0000
  C   C260      1.0  0.28941  0.13708  0.96439  1.0000
  H   H440      1.0  0.11039  0.18363  0.93269  1.0000
  Fe  Fe55      1.0  0.43128  0.09603  0.86892  1.0000
  C   C261      1.0  0.38609  0.11638  0.83585  1.0000
  H   H441      1.0  0.14506  0.16216  0.95508  1.0000
  C   C262      1.0  0.26997  0.28377  0.90275  1.0000
  C   C263      1.0  0.24998  0.28249  0.89684  1.0000
  H   H442      1.0  0.49291  0.18986  0.92889  1.0000
  N   N27       1.0  0.13406  0.19766  0.94190  1.0000
  H   H443      1.0  0.27544  0.26972  0.91175  1.0000
  H   H444      1.0  0.37875  0.10576  0.83007  1.0000
  H   H445      1.0  0.07042  0.10967  0.91901  1.0000
  C   C264      1.0  0.07659  0.27290  0.89278  1.0000
  C   C265      1.0  0.09768  0.25686  0.89708  1.0000
  C   C266      1.0  0.12090  0.26379  0.89226  1.0000
  C   C267      1.0  0.12310  0.28662  0.88305  1.0000
  C   C268      1.0  0.18370  0.30994  0.79134  1.0000
  H   H446      1.0  0.05862  0.26769  0.89650  1.0000
  H   H447      1.0  0.13728  0.25144  0.89555  1.0000
  C   C269      1.0  0.11077  0.24665  0.85608  1.0000
  C   C270      1.0  0.99903  0.15080  0.89625  1.0000
  C   C271      1.0  0.28310  0.30290  0.89684  1.0000
  C   C272      1.0  0.10208  0.30249  0.87857  1.0000
  Fe  Fe56      1.0  0.17653  0.09270  0.97671  1.0000
  H   H448      1.0  0.01288  0.12542  0.80398  1.0000
  H   H449      1.0  0.46681  0.21448  0.91148  1.0000
  C   C273      1.0  0.14210  0.30320  0.79304  1.0000
  H   H450      1.0  0.32141  0.26648  0.88438  1.0000
  C   C274      1.0  0.06297  0.08047  0.94502  1.0000
  C   C275      1.0  0.42343  0.11707  0.81746  1.0000
  H   H451      1.0  0.13506  0.28358  0.85315  1.0000
  H   H452      1.0  0.45783  0.14079  0.93174  1.0000
  H   H453      1.0  0.31166  0.22718  0.85418  1.0000
  H   H454      1.0  0.37205  0.16246  0.82122  1.0000
  H   H455      1.0  0.05336  0.12836  0.93207  1.0000
  N   N28       1.0  0.31615  0.24325  0.87120  1.0000
  Fe  Fe57      1.0  0.48195  0.07763  0.87754  1.0000
  C   C276      1.0  0.24829  0.17532  0.96802  1.0000
  S   S117      1.0  0.46775  0.10823  0.86041  1.0000
  C   C277      1.0  0.38802  0.15044  0.81543  1.0000
  S   S118      1.0  0.44454  0.06754  0.88734  1.0000
  C   C278      1.0  0.33732  0.22362  0.87509  1.0000
  S   S119      1.0  0.44150  0.00435  0.87959  1.0000
  C   C279      1.0  0.24562  0.15067  0.97335  1.0000
  C   C280      1.0  0.13353  0.31660  0.80433  1.0000
  S   S120      1.0  0.16072  0.10742  0.95629  1.0000
  H   H456      1.0  0.12504  0.26877  0.81981  1.0000
  H   H457      1.0  0.16224  0.21612  0.92747  1.0000
  H   H458      1.0  0.15487  0.25956  0.84422  1.0000
  C   C281      1.0  0.13830  0.27476  0.84357  1.0000
  C   C282      1.0  0.37027  0.30243  0.95489  1.0000
  C   C283      1.0  0.20902  0.19787  0.73198  1.0000
  Fe  Fe58      1.0  0.14067  0.28417  0.73484  1.0000
  H   H459      1.0  0.12449  0.20036  0.96441  1.0000
  H   H460      1.0  0.48794  0.29153  0.92566  1.0000
  H   H461      1.0  0.03749  0.17394  0.77420  1.0000
  H   H462      1.0  0.13086  0.23080  0.92559  1.0000
  C   C284      1.0  0.39000  0.27882  0.97489  1.0000
  C   C285      1.0  0.13169  0.21114  0.95365  1.0000
  H   H463      1.0  0.47918  0.30441  0.95552  1.0000
  H   H464      1.0  0.10716  0.25424  0.86616  1.0000
  N   N29       1.0  0.04399  0.09273  0.93600  1.0000
  C   C286      1.0  0.04692  0.17924  0.73874  1.0000
  H   H465      1.0  0.43544  0.10395  0.82471  1.0000
  H   H466      1.0  0.02028  0.12458  0.77818  1.0000
  N   N30       1.0  0.00679  0.15762  0.78721  1.0000
  H   H467      1.0  0.07767  0.28038  0.84194  1.0000
  H   H468      1.0  0.44735  0.20562  0.93753  1.0000
  S   S121      1.0  0.31054  0.30261  0.90265  1.0000
  H   H469      1.0  0.41698  0.10600  0.81152  1.0000
  Fe  Fe59      1.0  0.13009  0.27251  0.76800  1.0000
  C   C287      1.0  0.04103  0.07542  0.92753  1.0000
  H   H470      1.0  0.00891  0.19509  0.74678  1.0000
  S   S122      1.0  0.01194  0.17748  0.89197  1.0000
  C   C288      1.0  0.26798  0.01130  0.96918  1.0000
  H   H471      1.0  0.13731  0.23927  0.82976  1.0000
  C   C289      1.0  0.28622  0.04780  0.96184  1.0000
  S   S123      1.0  0.06546  0.24371  0.75245  1.0000
  H   H472      1.0  0.14112  0.29179  0.87933  1.0000
  H   H473      1.0  0.28974  0.21923  0.88001  1.0000
  N   N31       1.0  0.11619  0.26566  0.84301  1.0000
  C   C290      1.0  0.48844  0.11459  0.81355  1.0000
  H   H474      1.0  0.09828  0.30139  0.83305  1.0000
  C   C291      1.0  0.24287  0.30034  0.88502  1.0000
  H   H475      1.0  0.33913  0.22224  0.88649  1.0000
  H   H476      1.0  0.14995  0.21480  0.95414  1.0000
  C   C292      1.0  0.29280  0.23749  0.88074  1.0000
  S   S124      1.0  0.13739  0.24677  0.73257  1.0000
  C   C293      1.0  0.02004  0.10052  0.94550  1.0000
  C   C294      1.0  0.16722  0.30009  0.78644  1.0000
  C   C295      1.0  0.05901  0.21858  0.74716  1.0000
  H   H477      1.0  0.35922  0.30369  0.94690  1.0000
  H   H478      1.0  0.37000  0.12733  0.84225  1.0000
  S   S125      1.0  0.12072  0.29035  0.78786  1.0000
  H   H479      1.0  0.39640  0.15597  0.84115  1.0000
  H   H480      1.0  0.09571  0.21083  0.93996  1.0000
  C   C296      1.0  0.12102  0.25486  0.82987  1.0000
  H   H481      1.0  0.00544  0.11042  0.93908  1.0000
  C   C297      1.0  0.99992  0.14353  0.80204  1.0000
  C   C298      1.0  0.07881  0.29569  0.88351  1.0000
  H   H482      1.0  0.14504  0.20314  0.91867  1.0000
  H   H483      1.0  0.00621  0.26033  0.95143  1.0000
  C   C299      1.0  0.27143  0.18097  0.96074  1.0000
  C   C300      1.0  0.31979  0.26715  0.87303  1.0000
  C   C301      1.0  0.48314  0.14049  0.79008  1.0000
  N   N32       1.0  0.40233  0.13238  0.82568  1.0000
  C   C302      1.0  0.02811  0.19662  0.74510  1.0000
  H   H484      1.0  0.12661  0.23066  0.85682  1.0000
  C   C303      1.0  0.05194  0.11463  0.92597  1.0000
  H   H485      1.0  0.30540  0.12229  0.96300  1.0000
  H   H486      1.0  0.48616  0.13242  0.87916  1.0000
  H   H487      1.0  0.06249  0.30795  0.88008  1.0000
  Fe  Fe60      1.0  0.45431  0.21113  0.73385  1.0000
  C   C304      1.0  0.41179  0.14572  0.83397  1.0000
  H   H488      1.0  0.43783  0.15886  0.91959  1.0000
  C   C305      1.0  0.99530  0.14124  0.88499  1.0000
  S   S126      1.0  0.46676  0.22986  0.74819  1.0000
  C   C306      1.0  0.44354  0.18843  0.93562  1.0000
  H   H489      1.0  0.01951  0.22973  0.75408  1.0000
  H   H490      1.0  0.03856  0.12404  0.91864  1.0000
  H   H491      1.0  0.35525  0.22730  0.86807  1.0000
  Fe  Fe61      1.0  0.47051  0.19242  0.76278  1.0000
  H   H492      1.0  0.06547  0.09314  0.95157  1.0000
  H   H493      1.0  0.44433  0.20145  0.90689  1.0000
  H   H494      1.0  0.17040  0.17635  0.94456  1.0000
  C   C307      1.0  0.07785  0.20113  0.74089  1.0000
  H   H495      1.0  0.48265  0.98886  0.85660  1.0000
  H   H496      1.0  0.24888  0.02249  0.96913  1.0000
  H   H497      1.0  0.01321  0.15233  0.76520  1.0000
  H   H498      1.0  0.10183  0.18156  0.95201  1.0000
  H   H499      1.0  0.27520  0.00625  0.95831  1.0000
  H   H500      1.0  0.08646  0.16822  0.73173  1.0000
  H   H501      1.0  0.44108  0.30239  0.92957  1.0000
  C   C308      1.0  0.39854  0.29967  0.97574  1.0000
  C   C309      1.0  0.00727  0.14270  0.77650  1.0000
  H   H502      1.0  0.46245  0.28569  0.95037  1.0000
  C   C310      1.0  0.48736  0.17285  0.92796  1.0000
  C   C311      1.0  0.03165  0.16345  0.78531  1.0000
  C   C312      1.0  0.30930  0.00920  0.97291  1.0000
  H   H503      1.0  0.00487  0.28897  0.96757  1.0000
  C   C313      1.0  0.26617  0.13145  0.97161  1.0000
  Fe  Fe62      1.0  0.00364  0.22772  0.93024  1.0000
  S   S127      1.0  0.49311  0.04856  0.86364  1.0000
  H   H504      1.0  0.44598  0.31206  0.95816  1.0000
  H   H505      1.0  0.43876  0.10873  0.72921  1.0000
  H   H506      1.0  0.32204  0.01894  0.97562  1.0000
  C   C314      1.0  0.49160  0.11746  0.79846  1.0000
  H   H507      1.0  0.26597  0.99400  0.97731  1.0000
  H   H508      1.0  0.00917  0.38350  0.12261  1.0000
  N   N33       1.0  0.02327  0.50996  0.11790  1.0000
  S   S128      1.0  0.42138  0.57813  0.00481  1.0000
  H   H509      1.0  0.47471  0.49137  0.01319  1.0000
  C   C315      1.0  0.02421  0.51356  0.10214  1.0000
  H   H510      1.0  0.38766  0.62867  0.16531  1.0000
  H   H511      1.0  0.42946  0.50363  0.16751  1.0000
  Fe  Fe63      1.0  0.45140  0.61435  0.11966  1.0000
  C   C316      1.0  0.99706  0.51401  0.12548  1.0000
  C   C317      1.0  0.04536  0.34498  0.14976  1.0000
  Fe  Fe64      1.0  0.46297  0.61432  0.08702  1.0000
  N   N34       1.0  0.03476  0.32238  0.15514  1.0000
  H   H512      1.0  0.02648  0.47042  0.12170  1.0000
  H   H513      1.0  0.39098  0.47759  0.99284  1.0000
  C   C318      1.0  0.42471  0.44975  0.99189  1.0000
  H   H514      1.0  0.47400  0.48234  0.04557  1.0000
  S   S129      1.0  0.45927  0.61081  0.98054  1.0000
  Fe  Fe65      1.0  0.03859  0.45127  0.16413  1.0000
  S   S130      1.0  0.24031  0.49157  0.22602  1.0000
  S   S131      1.0  0.04667  0.42894  0.14636  1.0000
  Fe  Fe66      1.0  0.05689  0.46248  0.18906  1.0000
  S   S132      1.0  0.02420  0.49310  0.19273  1.0000
  S   S133      1.0  0.08430  0.45281  0.20431  1.0000
  H   H515      1.0  0.04136  0.62832  0.01614  1.0000
  H   H516      1.0  0.04574  0.35161  0.13792  1.0000
  Fe  Fe67      1.0  0.03049  0.50399  0.16857  1.0000
  S   S134      1.0  0.03364  0.54316  0.15803  1.0000
  S   S135      1.0  0.03395  0.43573  0.18802  1.0000
  S   S136      1.0  0.06490  0.47496  0.16488  1.0000
  C   C319      1.0  0.11924  0.49236  0.22025  1.0000
  C   C320      1.0  0.43153  0.39477  0.19962  1.0000
  C   C321      1.0  0.11420  0.51605  0.21187  1.0000
  N   N35       1.0  0.45321  0.52864  0.15492  1.0000
  H   H517      1.0  0.41125  0.50347  0.03578  1.0000
  C   C322      1.0  0.03581  0.48453  0.12327  1.0000
  S   S137      1.0  0.19035  0.54414  0.21575  1.0000
  H   H518      1.0  0.15200  0.61541  0.16198  1.0000
  H   H519      1.0  0.02224  0.62801  0.03389  1.0000
  H   H520      1.0  0.33522  0.32353  0.19915  1.0000
  S   S138      1.0  0.49150  0.61081  0.12069  1.0000
  C   C323      1.0  0.45306  0.40695  0.21499  1.0000
  Fe  Fe68      1.0  0.00179  0.46760  0.18986  1.0000
  C   C324      1.0  0.44138  0.60564  0.04334  1.0000
  C   C325      1.0  0.18191  0.60044  0.18162  1.0000
  C   C326      1.0  0.18211  0.43854  0.21072  1.0000
  H   H521      1.0  0.48884  0.38041  0.13686  1.0000
  C   C327      1.0  0.47051  0.50749  0.01867  1.0000
  C   C328      1.0  0.48853  0.57549  0.04035  1.0000
  H   H522      1.0  0.03797  0.59938  0.02818  1.0000
  C   C329      1.0  0.14297  0.61709  0.17336  1.0000
  C   C330      1.0  0.42721  0.50483  0.02653  1.0000
  H   H523      1.0  0.03132  0.58862  0.13745  1.0000
  C   C331      1.0  0.41093  0.47404  0.99195  1.0000
  H   H524      1.0  0.45275  0.54152  0.13217  1.0000
  C   C332      1.0  0.45562  0.60218  0.05400  1.0000
  C   C333      1.0  0.48953  0.64498  0.01934  1.0000
  Fe  Fe69      1.0  0.45952  0.37882  0.99013  1.0000
  H   H525      1.0  0.36733  0.32071  0.21322  1.0000
  S   S139      1.0  0.00048  0.33424  0.11297  1.0000
  H   H526      1.0  0.18485  0.41897  0.21655  1.0000
  H   H527      1.0  0.14351  0.61923  0.20085  1.0000
  H   H528      1.0  0.44175  0.48033  0.05149  1.0000
  H   H529      1.0  0.42552  0.54679  0.17056  1.0000
  S   S140      1.0  0.42358  0.61377  0.14080  1.0000
  C   C334      1.0  0.01407  0.58237  0.13890  1.0000
  Fe  Fe70      1.0  0.45662  0.32661  0.00665  1.0000
  H   H530      1.0  0.43988  0.59819  0.02282  1.0000
  H   H531      1.0  0.22021  0.64178  0.19195  1.0000
  H   H532      1.0  0.48337  0.62811  0.02624  1.0000
  Fe  Fe71      1.0  0.46241  0.57565  0.99705  1.0000
  H   H533      1.0  0.16411  0.57026  0.17063  1.0000
  C   C335      1.0  0.47525  0.33338  0.05479  1.0000
  C   C336      1.0  0.19295  0.47850  0.20700  1.0000
  C   C337      1.0  0.45298  0.40072  0.20183  1.0000
  C   C338      1.0  0.43146  0.40808  0.22567  1.0000
  C   C339      1.0  0.09592  0.47724  0.20698  1.0000
  C   C340      1.0  0.09084  0.50094  0.19867  1.0000
  C   C341      1.0  0.09990  0.52026  0.20114  1.0000
  C   C342      1.0  0.45681  0.48247  0.04177  1.0000
  H   H534      1.0  0.07997  0.50440  0.19029  1.0000
  H   H535      1.0  0.46266  0.51458  0.17608  1.0000
  H   H536      1.0  0.02628  0.54721  0.11757  1.0000
  C   C343      1.0  0.25986  0.64184  0.21354  1.0000
  C   C344      1.0  0.47167  0.51965  0.16453  1.0000
  C   C345      1.0  0.02238  0.41591  0.14461  1.0000
  C   C346      1.0  0.02542  0.40407  0.13290  1.0000
  H   H537      1.0  0.04242  0.40353  0.12486  1.0000
  H   H538      1.0  0.43035  0.52607  0.04809  1.0000
  C   C347      1.0  0.03698  0.51903  0.22390  1.0000
  H   H539      1.0  0.48219  0.46091  0.98934  1.0000
  H   H540      1.0  0.16438  0.55827  0.18956  1.0000
  H   H541      1.0  0.18325  0.61878  0.18330  1.0000
  S   S141      1.0  0.45874  0.58443  0.10678  1.0000
  C   C348      1.0  0.01434  0.60522  0.00611  1.0000
  N   N36       1.0  0.19739  0.45260  0.21485  1.0000
  S   S142      1.0  0.40516  0.52389  0.99133  1.0000
  H   H542      1.0  0.12339  0.59874  0.20099  1.0000
  H   H543      1.0  0.13542  0.57048  0.18364  1.0000
  H   H544      1.0  0.04372  0.51058  0.09608  1.0000
  H   H545      1.0  0.42187  0.55843  0.15202  1.0000
  N   N37       1.0  0.00616  0.61807  0.01856  1.0000
  H   H546      1.0  0.47642  0.55011  0.13832  1.0000
  H   H547      1.0  0.39034  0.35349  0.18603  1.0000
  N   N38       1.0  0.15573  0.59790  0.18388  1.0000
  C   C349      1.0  0.21963  0.62051  0.21364  1.0000
  H   H548      1.0  0.48257  0.53393  0.16387  1.0000
  H   H549      1.0  0.19207  0.59838  0.17048  1.0000
  S   S143      1.0  0.19215  0.61066  0.21404  1.0000
  H   H550      1.0  0.41541  0.43475  0.99273  1.0000
  H   H551      1.0  0.01492  0.53264  0.09779  1.0000
  H   H552      1.0  0.09583  0.53856  0.19465  1.0000
  H   H553      1.0  0.46580  0.52444  0.01052  1.0000
  H   H554      1.0  0.99770  0.58567  0.03403  1.0000
  H   H555      1.0  0.19208  0.58628  0.18942  1.0000
  Fe  Fe72      1.0  0.42453  0.55615  0.98772  1.0000
  S   S144      1.0  0.44372  0.61892  0.06820  1.0000
  C   C350      1.0  0.15491  0.57318  0.18178  1.0000
  H   H556      1.0  0.44580  0.56594  0.15845  1.0000
  C   C351      1.0  0.46927  0.32859  0.04250  1.0000
  H   H557      1.0  0.17316  0.48777  0.20978  1.0000
  H   H558      1.0  0.46254  0.52830  0.04192  1.0000
  H   H559      1.0  0.35829  0.35779  0.19456  1.0000
  H   H560      1.0  0.46963  0.39970  0.19353  1.0000
  C   C352      1.0  0.46609  0.53503  0.13974  1.0000
  H   H561      1.0  0.15229  0.58673  0.20698  1.0000
  H   H562      1.0  0.05558  0.48057  0.11774  1.0000
  C   C353      1.0  0.25128  0.62470  0.22563  1.0000
  H   H563      1.0  0.16194  0.44670  0.21331  1.0000
  H   H564      1.0  0.42167  0.52179  0.01855  1.0000
  H   H565      1.0  0.99726  0.50423  0.22058  1.0000
  H   H566      1.0  0.03825  0.51718  0.21253  1.0000
  H   H567      1.0  0.99679  0.34180  0.15958  1.0000
  C   C354      1.0  0.23119  0.61401  0.22569  1.0000
  C   C355      1.0  0.43582  0.55084  0.15922  1.0000
  C   C356      1.0  0.45048  0.44490  0.99101  1.0000
  H   H568      1.0  0.45805  0.50344  0.98916  1.0000
  H   H569      1.0  0.42987  0.48877  0.02118  1.0000
  S   S145      1.0  0.48670  0.56603  0.01396  1.0000
  C   C357      1.0  0.00998  0.56069  0.14882  1.0000
  C   C358      1.0  0.22398  0.44132  0.21106  1.0000
  C   C359      1.0  0.37236  0.34825  0.18643  1.0000
  H   H570      1.0  0.45198  0.49206  0.15293  1.0000
  H   H571      1.0  0.34391  0.32183  0.18021  1.0000
  H   H572      1.0  0.42312  0.61743  0.04440  1.0000
  H   H573      1.0  0.22824  0.42202  0.21713  1.0000
  H   H574      1.0  0.14325  0.63599  0.17465  1.0000
  H   H575      1.0  0.47974  0.51889  0.13614  1.0000
  H   H576      1.0  0.06477  0.34179  0.15149  1.0000
  Fe  Fe73      1.0  0.43163  0.34690  0.98052  1.0000
  S   S146      1.0  0.38454  0.38458  0.20857  1.0000
  H   H577      1.0  0.03425  0.36030  0.15535  1.0000
  C   C360      1.0  0.42284  0.49360  0.99100  1.0000
  H   H578      1.0  0.44204  0.64579  0.01925  1.0000
  S   S147      1.0  0.12477  0.54112  0.21458  1.0000
  C   C361      1.0  0.47445  0.57953  0.02951  1.0000
  C   C362      1.0  0.03598  0.52776  0.12074  1.0000
  S   S148      1.0  0.48870  0.34570  0.99660  1.0000
  H   H579      1.0  0.12317  0.61568  0.17478  1.0000
  N   N39       1.0  0.45001  0.50544  0.03135  1.0000
  H   H580      1.0  0.02713  0.61483  0.99714  1.0000
  H   H581      1.0  0.02495  0.32805  0.17714  1.0000
  C   C363      1.0  0.41034  0.39470  0.21064  1.0000
  C   C364      1.0  0.02793  0.61842  0.02446  1.0000
  H   H582      1.0  0.20448  0.48951  0.20974  1.0000
  C   C365      1.0  0.00031  0.41669  0.15488  1.0000
  C   C366      1.0  0.22874  0.63700  0.20141  1.0000
  H   H583      1.0  0.43167  0.38947  0.18956  1.0000
  C   C367      1.0  0.43930  0.50903  0.15616  1.0000
  S   S149      1.0  0.42712  0.36024  0.00147  1.0000
  H   H584      1.0  0.23606  0.45182  0.21372  1.0000
  H   H585      1.0  0.01472  0.50041  0.09965  1.0000
  C   C368      1.0  0.00870  0.32791  0.15314  1.0000
  H   H586      1.0  0.49021  0.33698  0.13558  1.0000
  H   H587      1.0  0.02417  0.58587  0.00924  1.0000
  H   H588      1.0  0.42514  0.51518  0.14909  1.0000
  H   H589      1.0  0.05554  0.52595  0.11475  1.0000
  H   H590      1.0  0.28418  0.45497  0.22088  1.0000
  C   C369      1.0  0.11010  0.47301  0.21780  1.0000
  C   C370      1.0  0.45080  0.59456  0.03112  1.0000
  Fe  Fe74      1.0  0.41843  0.61200  0.98715  1.0000
  C   C371      1.0  0.14311  0.60088  0.19879  1.0000
  H   H591      1.0  0.47064  0.35768  0.22291  1.0000
  H   H592      1.0  0.11380  0.45474  0.22437  1.0000
  Fe  Fe75      1.0  0.49278  0.63896  0.09998  1.0000
  H   H593      1.0  0.46026  0.46588  0.03677  1.0000
  S   S150      1.0  0.00472  0.48149  0.16589  1.0000
  S   S151      1.0  0.45208  0.64461  0.10003  1.0000
  C   C372      1.0  0.47920  0.58690  0.05255  1.0000
  H   H594      1.0  0.46954  0.34238  0.03262  1.0000
  C   C373      1.0  0.46227  0.46451  0.99005  1.0000
  H   H595      1.0  0.05639  0.51599  0.22566  1.0000
  S   S152      1.0  0.46897  0.41487  0.99152  1.0000
  H   H596      1.0  0.48787  0.50873  0.02180  1.0000
  H   H597      1.0  0.22979  0.44098  0.19927  1.0000
  C   C374      1.0  0.44556  0.52698  0.03839  1.0000
  C   C375      1.0  0.38478  0.64291  0.15587  1.0000
  C   C376      1.0  0.39947  0.63994  0.14225  1.0000
  S   S153      1.0  0.39475  0.64961  0.98878  1.0000
  S   S154      1.0  0.48233  0.32237  0.08296  1.0000
  H   H598      1.0  0.03577  0.48142  0.13509  1.0000
  H   H599      1.0  0.36705  0.35590  0.17564  1.0000
  H   H600      1.0  0.44031  0.54460  0.03083  1.0000
  S   S155      1.0  0.48064  0.41031  0.21909  1.0000
  C   C377      1.0  0.99620  0.59571  0.13058  1.0000
  H   H601      1.0  0.49035  0.58414  0.06071  1.0000
  H   H602      1.0  0.99964  0.61224  0.12278  1.0000
  H   H603      1.0  0.03664  0.52468  0.13245  1.0000
  H   H604      1.0  0.03613  0.47288  0.22153  1.0000
  H   H605      1.0  0.48515  0.50293  0.16157  1.0000
  C   C378      1.0  0.00668  0.39264  0.13163  1.0000
  H   H606      1.0  0.19772  0.47963  0.19505  1.0000
  H   H607      1.0  0.99777  0.42577  0.16394  1.0000
  H   H608      1.0  0.18688  0.43844  0.19888  1.0000
  H   H609      1.0  0.46789  0.32633  0.22463  1.0000
  S   S156      1.0  0.46577  0.55214  0.98058  1.0000
  N   N40       1.0  0.37425  0.32116  0.19032  1.0000
  H   H610      1.0  0.99822  0.60436  0.00159  1.0000
  H   H611      1.0  0.00725  0.33574  0.14163  1.0000
  H   H612      1.0  0.48008  0.35090  0.05429  1.0000
  C   C379      1.0  0.44859  0.48871  0.98993  1.0000
  H   H613      1.0  0.02799  0.53847  0.22477  1.0000
  C   C380      1.0  0.41029  0.40164  0.22359  1.0000
  C   C381      1.0  0.24880  0.64756  0.20135  1.0000
  H   H614      1.0  0.99570  0.51155  0.13738  1.0000
  Fe  Fe76      1.0  0.15297  0.53844  0.22843  1.0000
  S   S157      1.0  0.16873  0.50963  0.24600  1.0000
  C   C382      1.0  0.38375  0.54700  0.46692  1.0000
  H   H615      1.0  0.19097  0.55199  0.35878  1.0000
  S   S158      1.0  0.20543  0.54842  0.24568  1.0000
  Fe  Fe77      1.0  0.44172  0.32445  0.36930  1.0000
  H   H616      1.0  0.31381  0.36572  0.44221  1.0000
  Fe  Fe78      1.0  0.16695  0.54187  0.25648  1.0000
  S   S159      1.0  0.15028  0.53999  0.28036  1.0000
  H   H617      1.0  0.20506  0.64514  0.36333  1.0000
  S   S160      1.0  0.27946  0.38769  0.26329  1.0000
  H   H618      1.0  0.04134  0.50063  0.25163  1.0000
  Fe  Fe79      1.0  0.15889  0.60907  0.33851  1.0000
  S   S161      1.0  0.13267  0.58507  0.35237  1.0000
  S   S162      1.0  0.18175  0.60322  0.31656  1.0000
  C   C383      1.0  0.22552  0.53705  0.32703  1.0000
  S   S163      1.0  0.12055  0.62212  0.37582  1.0000
  Fe  Fe80      1.0  0.14911  0.58856  0.37071  1.0000
  S   S164      1.0  0.15912  0.55597  0.38839  1.0000
  Fe  Fe81      1.0  0.10666  0.62073  0.35605  1.0000
  H   H619      1.0  0.12148  0.39309  0.47038  1.0000
  S   S165      1.0  0.17751  0.60983  0.35648  1.0000
  C   C384      1.0  0.03546  0.47582  0.23261  1.0000
  S   S166      1.0  0.45097  0.59789  0.45288  1.0000
  N   N41       1.0  0.28761  0.39650  0.44982  1.0000
  C   C385      1.0  0.31231  0.64483  0.41602  1.0000
  S   S167      1.0  0.41559  0.35002  0.35534  1.0000
  H   H620      1.0  0.30004  0.64245  0.44504  1.0000
  C   C386      1.0  0.40432  0.32852  0.31756  1.0000
  H   H621      1.0  0.21215  0.63573  0.40066  1.0000
  C   C387      1.0  0.00205  0.59227  0.36939  1.0000
  Fe  Fe82      1.0  0.27530  0.51409  0.42558  1.0000
  S   S168      1.0  0.25908  0.52499  0.44722  1.0000
  S   S169      1.0  0.26534  0.53705  0.40455  1.0000
  Fe  Fe83      1.0  0.31384  0.47187  0.43744  1.0000
  S   S170      1.0  0.30141  0.48002  0.45999  1.0000
  S   S171      1.0  0.34350  0.43765  0.43488  1.0000
  Fe  Fe84      1.0  0.26300  0.48421  0.45598  1.0000
  C   C388      1.0  0.09433  0.60208  0.32089  1.0000
  Fe  Fe85      1.0  0.29881  0.51994  0.44945  1.0000
  S   S172      1.0  0.30663  0.55049  0.45812  1.0000
  S   S173      1.0  0.27548  0.47362  0.43405  1.0000
  S   S174      1.0  0.31498  0.51154  0.42720  1.0000
  H   H622      1.0  0.47640  0.33614  0.38977  1.0000
  C   C389      1.0  0.33127  0.41152  0.33507  1.0000
  H   H623      1.0  0.11748  0.63924  0.29007  1.0000
  H   H624      1.0  0.34698  0.60365  0.43887  1.0000
  C   C390      1.0  0.19203  0.41580  0.46755  1.0000
  H   H625      1.0  0.05798  0.61659  0.30546  1.0000
  H   H626      1.0  0.24555  0.53389  0.32188  1.0000
  H   H627      1.0  0.29977  0.41412  0.23520  1.0000
  C   C391      1.0  0.20223  0.43266  0.45590  1.0000
  C   C392      1.0  0.21653  0.44804  0.45814  1.0000
  H   H628      1.0  0.30165  0.42491  0.45479  1.0000
  H   H629      1.0  0.22425  0.60130  0.23519  1.0000
  H   H630      1.0  0.19897  0.43390  0.44513  1.0000
  H   H631      1.0  0.22413  0.46119  0.44914  1.0000
  C   C393      1.0  0.34977  0.42629  0.41866  1.0000
  C   C394      1.0  0.36602  0.40353  0.41766  1.0000
  C   C395      1.0  0.37104  0.39372  0.40498  1.0000
  C   C396      1.0  0.35998  0.40673  0.39317  1.0000
  C   C397      1.0  0.34355  0.42940  0.39421  1.0000
  C   C398      1.0  0.33837  0.43914  0.40695  1.0000
  H   H632      1.0  0.37493  0.39353  0.42667  1.0000
  H   H633      1.0  0.38374  0.37627  0.40427  1.0000
  H   H634      1.0  0.33498  0.43958  0.38510  1.0000
  H   H635      1.0  0.32585  0.45672  0.40761  1.0000
  H   H636      1.0  0.41721  0.33027  0.32378  1.0000
  C   C399      1.0  0.36525  0.56822  0.46787  1.0000
  C   C400      1.0  0.34158  0.56885  0.46537  1.0000
  C   C401      1.0  0.33646  0.54862  0.46143  1.0000
  S   S175      1.0  0.38337  0.33298  0.24098  1.0000
  H   H637      1.0  0.32752  0.38960  0.44445  1.0000
  H   H638      1.0  0.17046  0.45984  0.23398  1.0000
  H   H639      1.0  0.32724  0.58513  0.46647  1.0000
  H   H640      1.0  0.31952  0.58367  0.43116  1.0000
  H   H641      1.0  0.16720  0.60196  0.39506  1.0000
  C   C402      1.0  0.18887  0.54991  0.39279  1.0000
  C   C403      1.0  0.19397  0.53315  0.40546  1.0000
  C   C404      1.0  0.21743  0.52884  0.40930  1.0000
  C   C405      1.0  0.23589  0.54106  0.40032  1.0000
  C   C406      1.0  0.23086  0.55745  0.38759  1.0000
  C   C407      1.0  0.20745  0.56192  0.38390  1.0000
  H   H642      1.0  0.17968  0.52372  0.41241  1.0000
  H   H643      1.0  0.22123  0.51613  0.41915  1.0000
  H   H644      1.0  0.24508  0.56700  0.38065  1.0000
  H   H645      1.0  0.20386  0.57480  0.37422  1.0000
  C   C408      1.0  0.04331  0.61560  0.35770  1.0000
  C   C409      1.0  0.02245  0.62211  0.35101  1.0000
  H   H646      1.0  0.36900  0.58402  0.47073  1.0000
  H   H647      1.0  0.46018  0.37638  0.24559  1.0000
  C   C410      1.0  0.02295  0.58573  0.37603  1.0000
  C   C411      1.0  0.04361  0.59716  0.37015  1.0000
  H   H648      1.0  0.29932  0.42107  0.43009  1.0000
  H   H649      1.0  0.19519  0.61372  0.38695  1.0000
  H   H650      1.0  0.02313  0.57179  0.38584  1.0000
  H   H651      1.0  0.05952  0.59205  0.37542  1.0000
  Fe  Fe86      1.0  0.20601  0.51811  0.23416  1.0000
  C   C412      1.0  0.35244  0.38856  0.31608  1.0000
  H   H652      1.0  0.37992  0.39298  0.33433  1.0000
  C   C413      1.0  0.37101  0.32410  0.30128  1.0000
  C   C414      1.0  0.16007  0.55688  0.29036  1.0000
  C   C415      1.0  0.15030  0.55497  0.30527  1.0000
  C   C416      1.0  0.15698  0.56893  0.31345  1.0000
  C   C417      1.0  0.17353  0.58485  0.30676  1.0000
  C   C418      1.0  0.18366  0.58642  0.29193  1.0000
  C   C419      1.0  0.17686  0.57258  0.28372  1.0000
  H   H653      1.0  0.13743  0.54271  0.31046  1.0000
  H   H654      1.0  0.14926  0.56733  0.32489  1.0000
  H   H655      1.0  0.19658  0.59861  0.28670  1.0000
  H   H656      1.0  0.18451  0.57416  0.27225  1.0000
  C   C420      1.0  0.25154  0.46356  0.23706  1.0000
  H   H657      1.0  0.05505  0.47162  0.23420  1.0000
  C   C421      1.0  0.28258  0.42548  0.23957  1.0000
  C   C422      1.0  0.26909  0.41701  0.25321  1.0000
  C   C423      1.0  0.24685  0.43194  0.25880  1.0000
  C   C424      1.0  0.23815  0.45527  0.25078  1.0000
  H   H658      1.0  0.43125  0.41341  0.23574  1.0000
  Fe  Fe87      1.0  0.14841  0.64321  0.36051  1.0000
  H   H659      1.0  0.23643  0.42546  0.26938  1.0000
  H   H660      1.0  0.22106  0.46672  0.25518  1.0000
  C   C425      1.0  0.37848  0.52655  0.46327  1.0000
  H   H661      1.0  0.08164  0.41971  0.45253  1.0000
  C   C426      1.0  0.31555  0.60058  0.42280  1.0000
  C   C427      1.0  0.36723  0.37958  0.33861  1.0000
  H   H662      1.0  0.39270  0.51003  0.46258  1.0000
  N   N42       1.0  0.34491  0.38710  0.33194  1.0000
  S   S176      1.0  0.14799  0.56987  0.23987  1.0000
  H   H663      1.0  0.21561  0.55221  0.31952  1.0000
  H   H664      1.0  0.36225  0.37810  0.35061  1.0000
  H   H665      1.0  0.42438  0.34493  0.29705  1.0000
  C   C428      1.0  0.32878  0.36869  0.33808  1.0000
  H   H666      1.0  0.28760  0.40519  0.47034  1.0000
  H   H667      1.0  0.35698  0.61821  0.42049  1.0000
  Fe  Fe88      1.0  0.39085  0.35735  0.37646  1.0000
  S   S177      1.0  0.39719  0.34563  0.27539  1.0000
  S   S178      1.0  0.13231  0.64469  0.34107  1.0000
  C   C429      1.0  0.02226  0.50416  0.24929  1.0000
  H   H668      1.0  0.36265  0.37037  0.31339  1.0000
  N   N43       1.0  0.02301  0.50129  0.23438  1.0000
  H   H669      1.0  0.12642  0.34711  0.45737  1.0000
  H   H670      1.0  0.32602  0.64325  0.40576  1.0000
  S   S179      1.0  0.37070  0.32670  0.37902  1.0000
  Fe  Fe89      1.0  0.31779  0.36810  0.25417  1.0000
  S   S180      1.0  0.36635  0.39517  0.37698  1.0000
  H   H671      1.0  0.34299  0.42580  0.33055  1.0000
  H   H672      1.0  0.18723  0.53020  0.34914  1.0000
  H   H673      1.0  0.33608  0.39421  0.31064  1.0000
  N   N44       1.0  0.22160  0.54342  0.34149  1.0000
  C   C430      1.0  0.19479  0.54712  0.34786  1.0000
  C   C431      1.0  0.10499  0.38480  0.47145  1.0000
  C   C432      1.0  0.23527  0.52318  0.35109  1.0000
  C   C433      1.0  0.23074  0.56639  0.33996  1.0000
  H   H674      1.0  0.37798  0.36124  0.33649  1.0000
  H   H675      1.0  0.45061  0.35751  0.26285  1.0000
  H   H676      1.0  0.35120  0.51174  0.45733  1.0000
  H   H677      1.0  0.25989  0.62000  0.23506  1.0000
  H   H678      1.0  0.31161  0.37381  0.33341  1.0000
  Fe  Fe90      1.0  0.36347  0.36908  0.23031  1.0000
  H   H679      1.0  0.25561  0.51995  0.34671  1.0000
  H   H680      1.0  0.12983  0.48908  0.22873  1.0000
  H   H681      1.0  0.10246  0.58390  0.31759  1.0000
  H   H682      1.0  0.19453  0.43291  0.23697  1.0000
  H   H683      1.0  0.02204  0.63642  0.34139  1.0000
  H   H684      1.0  0.25080  0.56438  0.33492  1.0000
  H   H685      1.0  0.32908  0.59773  0.41262  1.0000
  C   C434      1.0  0.31198  0.37939  0.44915  1.0000
  H   H686      1.0  0.07584  0.36974  0.44872  1.0000
  C   C435      1.0  0.07940  0.37141  0.45925  1.0000
  C   C436      1.0  0.39166  0.33468  0.29427  1.0000
  H   H687      1.0  0.43068  0.36691  0.24984  1.0000
  C   C437      1.0  0.29873  0.62613  0.44092  1.0000
  H   H688      1.0  0.18592  0.57915  0.41627  1.0000
  H   H689      1.0  0.08169  0.35254  0.46611  1.0000
  H   H690      1.0  0.26865  0.42822  0.45922  1.0000
  H   H691      1.0  0.22843  0.57164  0.35065  1.0000
  H   H692      1.0  0.22889  0.50554  0.35246  1.0000
  Fe  Fe91      1.0  0.36894  0.34731  0.26172  1.0000
  N   N45       1.0  0.18027  0.61855  0.40892  1.0000
  C   C438      1.0  0.48885  0.33176  0.24604  1.0000
  H   H693      1.0  0.01299  0.52320  0.25097  1.0000
  H   H694      1.0  0.22050  0.58220  0.33300  1.0000
  C   C439      1.0  0.17700  0.61710  0.39445  1.0000
  S   S181      1.0  0.16350  0.33103  0.47754  1.0000
  H   H695      1.0  0.12659  0.60642  0.29523  1.0000
  H   H696      1.0  0.23244  0.52746  0.36212  1.0000
  Fe  Fe92      1.0  0.42589  0.63348  0.45781  1.0000
  C   C440      1.0  0.28632  0.41443  0.45896  1.0000
  H   H697      1.0  0.44052  0.34963  0.22810  1.0000
  N   N46       1.0  0.09269  0.62241  0.30818  1.0000
  H   H698      1.0  0.24383  0.64706  0.37062  1.0000
  H   H699      1.0  0.18399  0.56224  0.34086  1.0000
  C   C441      1.0  0.40834  0.33678  0.30244  1.0000
  C   C442      1.0  0.28472  0.40982  0.43501  1.0000
  C   C443      1.0  0.22035  0.44682  0.47210  1.0000
  S   S182      1.0  0.32810  0.35588  0.23264  1.0000
  H   H700      1.0  0.14401  0.64100  0.41383  1.0000
  H   H701      1.0  0.20119  0.46313  0.23400  1.0000
  H   H702      1.0  0.30134  0.60956  0.44968  1.0000
  H   H703      1.0  0.12225  0.36417  0.43965  1.0000
  C   C444      1.0  0.27373  0.44863  0.23149  1.0000
  S   S183      1.0  0.35149  0.38475  0.25068  1.0000
  Fe  Fe93      1.0  0.34721  0.32057  0.24484  1.0000
  H   H704      1.0  0.02561  0.46185  0.24039  1.0000
  C   C445      1.0  0.19052  0.45205  0.23064  1.0000
  H   H705      1.0  0.32571  0.41101  0.34699  1.0000
  H   H706      1.0  0.07535  0.63277  0.28949  1.0000
  H   H707      1.0  0.28631  0.39687  0.42767  1.0000
  C   C446      1.0  0.34249  0.62022  0.43040  1.0000
  S   S184      1.0  0.41851  0.33451  0.39021  1.0000
  C   C447      1.0  0.35499  0.52746  0.46034  1.0000
  H   H708      1.0  0.33850  0.35011  0.33577  1.0000
  H   H709      1.0  0.42980  0.32223  0.25215  1.0000
  C   C448      1.0  0.19510  0.59494  0.41523  1.0000
  N   N47       1.0  0.31728  0.62294  0.42753  1.0000
  N   N48       1.0  0.10157  0.38232  0.45723  1.0000
  H   H710      1.0  0.13040  0.62633  0.30615  1.0000
  C   C449      1.0  0.12379  0.36603  0.45058  1.0000
  H   H711      1.0  0.32330  0.36662  0.35008  1.0000
  N   N49       1.0  0.46233  0.33836  0.24490  1.0000
  H   H712      1.0  0.21843  0.52008  0.32766  1.0000
  H   H713      1.0  0.10609  0.60494  0.32787  1.0000
  H   H714      1.0  0.36496  0.40198  0.31107  1.0000
  C   C450      1.0  0.07707  0.61778  0.29918  1.0000
  H   H715      1.0  0.08509  0.60004  0.29526  1.0000
  S   S185      1.0  0.17431  0.39657  0.46455  1.0000
  H   H716      1.0  0.31416  0.41777  0.33031  1.0000
  S   S186      1.0  0.06812  0.63157  0.35032  1.0000
  H   H717      1.0  0.34435  0.63653  0.43428  1.0000
  H   H718      1.0  0.07569  0.60085  0.32783  1.0000
  C   C451      1.0  0.09821  0.40698  0.44775  1.0000
  H   H719      1.0  0.01183  0.49106  0.25748  1.0000
  H   H720      1.0  0.21386  0.59087  0.40834  1.0000
  S   S187      1.0  0.33434  0.33143  0.26677  1.0000
  Fe  Fe94      1.0  0.47166  0.60095  0.46950  1.0000
  H   H721      1.0  0.16575  0.63455  0.38940  1.0000
  H   H722      1.0  0.09564  0.40588  0.43687  1.0000
  H   H723      1.0  0.11467  0.41563  0.44613  1.0000
  H   H724      1.0  0.14100  0.37327  0.44943  1.0000
  C   C452      1.0  0.11787  0.62368  0.29953  1.0000
  C   C453      1.0  0.45050  0.36078  0.25105  1.0000
  C   C454      1.0  0.00198  0.61035  0.35674  1.0000
  H   H725      1.0  0.26635  0.42261  0.43505  1.0000
  H   H726      1.0  0.06239  0.38271  0.46476  1.0000
  H   H727      1.0  0.35812  0.32232  0.29507  1.0000
  H   H728      1.0  0.31492  0.36906  0.46011  1.0000
  H   H729      1.0  0.26759  0.36893  0.44944  1.0000
  H   H730      1.0  0.24881  0.39501  0.45690  1.0000
  S   S188      1.0  0.23822  0.46568  0.47532  1.0000
  S   S189      1.0  0.41287  0.54480  0.47134  1.0000
  C   C455      1.0  0.26741  0.38247  0.45613  1.0000
  Fe  Fe95      1.0  0.42503  0.57992  0.47149  1.0000
  H   H731      1.0  0.26902  0.37210  0.46729  1.0000
  H   H732      1.0  0.08851  0.39666  0.47697  1.0000
  H   H733      1.0  0.29664  0.60174  0.42080  1.0000
  S   S190      1.0  0.39890  0.61520  0.47558  1.0000
  S   S191      1.0  0.44886  0.63816  0.47288  1.0000
  H   H734      1.0  0.15723  0.62450  0.42943  1.0000
  C   C456      1.0  0.19330  0.63890  0.40756  1.0000
  H   H735      1.0  0.14523  0.60832  0.41953  1.0000
  H   H736      1.0  0.06255  0.64569  0.31982  1.0000
  H   H737      1.0  0.27946  0.62905  0.43904  1.0000
  C   C457      1.0  0.99736  0.50614  0.23174  1.0000
  H   H738      1.0  0.49108  0.32805  0.25754  1.0000
  H   H739      1.0  0.29345  0.64746  0.41353  1.0000
  H   H740      1.0  0.19788  0.59525  0.42620  1.0000
  H   H741      1.0  0.39391  0.40211  0.23202  1.0000
  C   C458      1.0  0.08151  0.64604  0.31315  1.0000
  H   H742      1.0  0.09278  0.64992  0.32009  1.0000
  C   C459      1.0  0.46024  0.34316  0.22947  1.0000
  H   H743      1.0  0.19569  0.64093  0.41829  1.0000
  C   C460      1.0  0.15559  0.62329  0.41838  1.0000
  Fe  Fe96      1.0  0.18651  0.57384  0.22814  1.0000
  S   S192      1.0  0.48382  0.31883  0.36249  1.0000
  S   S193      1.0  0.40894  0.62806  0.51198  1.0000
  Fe  Fe97      1.0  0.16058  0.34393  0.51548  1.0000
  S   S194      1.0  0.13357  0.36689  0.50134  1.0000
  S   S195      1.0  0.16082  0.34592  0.53850  1.0000
  H   H744      1.0  0.48260  0.57825  0.51570  1.0000
  Fe  Fe98      1.0  0.13141  0.33074  0.49643  1.0000
  C   C461      1.0  0.08462  0.34477  0.70819  1.0000
  S   S196      1.0  0.19446  0.34588  0.49797  1.0000
  C   C462      1.0  0.03619  0.37099  0.49932  1.0000
  Fe  Fe99      1.0  0.24375  0.39779  0.57197  1.0000
  S   S197      1.0  0.28251  0.39687  0.57429  1.0000
  S   S198      1.0  0.23620  0.40313  0.54929  1.0000
  Fe  Fe100     1.0  0.22446  0.39569  0.60423  1.0000
  S   S199      1.0  0.26146  0.39534  0.60921  1.0000
  S   S200      1.0  0.19099  0.38904  0.62140  1.0000
  Fe  Fe101     1.0  0.26516  0.42423  0.58890  1.0000
  S   S201      1.0  0.28390  0.45705  0.58367  1.0000
  Fe  Fe102     1.0  0.27577  0.36804  0.59433  1.0000
  H   H745      1.0  0.44703  0.61719  0.53213  1.0000
  S   S202      1.0  0.22651  0.42729  0.58523  1.0000
  S   S203      1.0  0.23857  0.36628  0.59065  1.0000
  S   S204      1.0  0.09501  0.44826  0.68561  1.0000
  H   H746      1.0  0.13432  0.43725  0.57107  1.0000
  C   C463      1.0  0.15477  0.43766  0.59347  1.0000
  C   C464      1.0  0.29300  0.64715  0.68372  1.0000
  Fe  Fe103     1.0  0.08765  0.46876  0.66371  1.0000
  S   S205      1.0  0.11906  0.47955  0.64591  1.0000
  Fe  Fe104     1.0  0.03174  0.47530  0.67296  1.0000
  S   S206      1.0  0.36274  0.54354  0.63036  1.0000
  Fe  Fe105     1.0  0.37922  0.54759  0.58846  1.0000
  S   S207      1.0  0.39178  0.51365  0.60421  1.0000
  S   S208      1.0  0.39172  0.54146  0.56545  1.0000
  Fe  Fe106     1.0  0.35329  0.52054  0.61709  1.0000
  S   S209      1.0  0.33447  0.48780  0.62719  1.0000
  Fe  Fe107     1.0  0.40039  0.53935  0.61586  1.0000
  S   S210      1.0  0.43805  0.52684  0.62226  1.0000
  S   S211      1.0  0.33976  0.55284  0.60055  1.0000
  C   C465      1.0  0.22828  0.46410  0.51778  1.0000
  H   H747      1.0  0.15315  0.50612  0.65184  1.0000
  H   H748      1.0  0.15612  0.38405  0.58320  1.0000
  H   H749      1.0  0.28845  0.43552  0.50904  1.0000
  H   H750      1.0  0.36186  0.56386  0.53394  1.0000
  S   S212      1.0  0.45901  0.53647  0.68193  1.0000
  C   C466      1.0  0.47916  0.59795  0.51016  1.0000
  H   H751      1.0  0.11613  0.55366  0.65667  1.0000
  H   H752      1.0  0.14428  0.48834  0.68521  1.0000
  H   H753      1.0  0.25854  0.48310  0.49400  1.0000
  C   C467      1.0  0.44296  0.52941  0.63906  1.0000
  C   C468      1.0  0.42503  0.54326  0.64824  1.0000
  C   C469      1.0  0.42981  0.54472  0.66163  1.0000
  C   C470      1.0  0.45262  0.53269  0.66572  1.0000
  C   C471      1.0  0.47032  0.51862  0.65659  1.0000
  C   C472      1.0  0.46553  0.51708  0.64328  1.0000
  H   H754      1.0  0.40762  0.55296  0.64500  1.0000
  H   H755      1.0  0.41604  0.55564  0.66868  1.0000
  H   H756      1.0  0.17754  0.39050  0.59224  1.0000
  H   H757      1.0  0.45550  0.58530  0.65826  1.0000
  C   C473      1.0  0.07642  0.52074  0.71095  1.0000
  C   C474      1.0  0.06891  0.53960  0.69974  1.0000
  C   C475      1.0  0.07411  0.56322  0.69806  1.0000
  C   C476      1.0  0.08686  0.56816  0.70757  1.0000
  C   C477      1.0  0.35815  0.36099  0.60677  1.0000
  H   H758      1.0  0.05896  0.53601  0.69241  1.0000
  H   H759      1.0  0.06837  0.57771  0.68931  1.0000
  C   C478      1.0  0.29764  0.46501  0.59613  1.0000
  C   C479      1.0  0.29371  0.45437  0.61090  1.0000
  C   C480      1.0  0.30508  0.46137  0.62041  1.0000
  C   C481      1.0  0.32034  0.47906  0.61519  1.0000
  C   C482      1.0  0.32435  0.48945  0.60042  1.0000
  C   C483      1.0  0.31300  0.48250  0.59095  1.0000
  H   H760      1.0  0.28152  0.44121  0.61503  1.0000
  H   H761      1.0  0.30174  0.45340  0.63186  1.0000
  H   H762      1.0  0.33622  0.50291  0.59624  1.0000
  H   H763      1.0  0.31612  0.49082  0.57956  1.0000
  C   C484      1.0  0.17276  0.41398  0.62924  1.0000
  C   C485      1.0  0.17833  0.43762  0.62461  1.0000
  C   C486      1.0  0.16183  0.45774  0.62986  1.0000
  C   C487      1.0  0.14002  0.45414  0.63991  1.0000
  C   C488      1.0  0.13488  0.43039  0.64487  1.0000
  C   C489      1.0  0.15120  0.41035  0.63949  1.0000
  H   H764      1.0  0.19504  0.44049  0.61676  1.0000
  H   H765      1.0  0.16588  0.47612  0.62607  1.0000
  H   H766      1.0  0.11817  0.42748  0.65271  1.0000
  H   H767      1.0  0.14692  0.39204  0.64315  1.0000
  H   H768      1.0  0.17288  0.50695  0.66373  1.0000
  H   H769      1.0  0.01359  0.41537  0.69123  1.0000
  H   H770      1.0  0.49145  0.59933  0.49928  1.0000
  H   H771      1.0  0.17395  0.40766  0.57445  1.0000
  S   S213      1.0  0.03450  0.45644  0.69591  1.0000
  H   H772      1.0  0.37032  0.53039  0.49732  1.0000
  S   S214      1.0  0.19573  0.63329  0.70489  1.0000
  C   C490      1.0  0.13907  0.53746  0.67961  1.0000
  H   H773      1.0  0.37508  0.62617  0.64943  1.0000
  H   H774      1.0  0.32773  0.37346  0.63088  1.0000
  Fe  Fe108     1.0  0.16733  0.36558  0.48343  1.0000
  C   C491      1.0  0.46314  0.59344  0.64687  1.0000
  H   H775      1.0  0.33670  0.58396  0.51458  1.0000
  N   N50       1.0  0.99902  0.39732  0.67881  1.0000
  H   H776      1.0  0.49091  0.62278  0.62699  1.0000
  C   C492      1.0  0.35419  0.40288  0.60990  1.0000
  H   H777      1.0  0.28398  0.48105  0.50259  1.0000
  H   H778      1.0  0.32065  0.38088  0.59271  1.0000
  S   S215      1.0  0.39093  0.57306  0.59901  1.0000
  H   H779      1.0  0.30908  0.60219  0.69863  1.0000
  C   C493      1.0  0.18149  0.36229  0.54133  1.0000
  C   C494      1.0  0.18620  0.35917  0.55533  1.0000
  C   C495      1.0  0.20335  0.37122  0.55783  1.0000
  C   C496      1.0  0.21539  0.38696  0.54641  1.0000
  C   C497      1.0  0.21062  0.39016  0.53240  1.0000
  C   C498      1.0  0.19380  0.37775  0.52985  1.0000
  H   H780      1.0  0.17686  0.34706  0.56422  1.0000
  H   H781      1.0  0.20724  0.36835  0.56860  1.0000
  H   H782      1.0  0.21987  0.40230  0.52350  1.0000
  H   H783      1.0  0.19014  0.38039  0.51904  1.0000
  C   C499      1.0  0.40560  0.60433  0.52732  1.0000
  C   C500      1.0  0.39067  0.60977  0.54043  1.0000
  C   C501      1.0  0.38708  0.59073  0.55256  1.0000
  C   C502      1.0  0.39849  0.56630  0.55153  1.0000
  C   C503      1.0  0.41421  0.56110  0.53863  1.0000
  C   C504      1.0  0.41783  0.58005  0.52661  1.0000
  H   H784      1.0  0.03852  0.39345  0.67122  1.0000
  H   H785      1.0  0.37486  0.59481  0.56252  1.0000
  H   H786      1.0  0.42986  0.57564  0.51678  1.0000
  N   N51       1.0  0.14375  0.41776  0.59160  1.0000
  H   H787      1.0  0.10386  0.55306  0.72632  1.0000
  N   N52       1.0  0.48343  0.61442  0.51869  1.0000
  H   H788      1.0  0.14076  0.45114  0.59939  1.0000
  H   H789      1.0  0.06653  0.33979  0.71083  1.0000
  H   H790      1.0  0.11672  0.41379  0.58037  1.0000
  H   H791      1.0  0.34164  0.42116  0.61058  1.0000
  H   H792      1.0  0.40349  0.55431  0.50811  1.0000
  C   C505      1.0  0.99787  0.44821  0.63631  1.0000
  H   H793      1.0  0.34844  0.34696  0.60542  1.0000
  H   H794      1.0  0.47021  0.62314  0.54001  1.0000
  Fe  Fe109     1.0  0.42391  0.61648  0.49023  1.0000
  H   H795      1.0  0.25327  0.47905  0.53357  1.0000
  S   S216      1.0  0.06163  0.38902  0.69464  1.0000
  C   C506      1.0  0.26349  0.48248  0.50458  1.0000
  S   S217      1.0  0.32697  0.61143  0.61711  1.0000
  C   C507      1.0  0.19614  0.41439  0.48146  1.0000
  H   H796      1.0  0.21303  0.42895  0.49456  1.0000
  H   H797      1.0  0.10789  0.36644  0.47873  1.0000
  H   H798      1.0  0.38135  0.62860  0.54110  1.0000
  C   C508      1.0  0.11273  0.53572  0.66363  1.0000
  N   N53       1.0  0.13425  0.52232  0.67044  1.0000
  H   H799      1.0  0.29670  0.65105  0.63044  1.0000
  C   C509      1.0  0.15635  0.51737  0.65900  1.0000
  H   H800      1.0  0.36646  0.35319  0.61664  1.0000
  C   C510      1.0  0.12833  0.33403  0.70952  1.0000
  C   C511      1.0  0.08873  0.52579  0.72065  1.0000
  H   H801      1.0  0.45975  0.60290  0.50835  1.0000
  H   H802      1.0  0.00286  0.35782  0.68413  1.0000
  H   H803      1.0  0.00530  0.37518  0.52662  1.0000
  H   H804      1.0  0.02018  0.41423  0.65903  1.0000
  H   H805      1.0  0.00450  0.39044  0.54106  1.0000
  C   C512      1.0  0.12545  0.42832  0.58198  1.0000
  H   H806      1.0  0.48795  0.59717  0.66622  1.0000
  H   H807      1.0  0.14462  0.39703  0.61324  1.0000
  H   H808      1.0  0.42329  0.54223  0.53788  1.0000
  C   C513      1.0  0.00139  0.37373  0.68935  1.0000
  C   C514      1.0  0.16367  0.39918  0.58507  1.0000
  H   H809      1.0  0.35576  0.51620  0.51494  1.0000
  Fe  Fe110     1.0  0.06486  0.42875  0.68579  1.0000
  C   C515      1.0  0.01752  0.35985  0.49776  1.0000
  H   H810      1.0  0.12587  0.48648  0.67286  1.0000
  H   H811      1.0  0.26227  0.42195  0.51900  1.0000
  S   S218      1.0  0.30557  0.33422  0.59863  1.0000
  C   C516      1.0  0.13122  0.40589  0.60587  1.0000
  H   H812      1.0  0.25449  0.50053  0.50787  1.0000
  C   C517      1.0  0.32441  0.64397  0.69756  1.0000
  Fe  Fe111     1.0  0.35239  0.57554  0.61266  1.0000
  H   H813      1.0  0.28281  0.45961  0.52837  1.0000
  H   H814      1.0  0.14211  0.55596  0.67332  1.0000
  H   H815      1.0  0.15568  0.52831  0.68455  1.0000
  N   N54       1.0  0.36509  0.55113  0.51414  1.0000
  C   C518      1.0  0.38483  0.56501  0.50631  1.0000
  C   C519      1.0  0.34084  0.56583  0.51107  1.0000
  H   H816      1.0  0.11028  0.44254  0.58659  1.0000
  H   H817      1.0  0.38186  0.58304  0.50976  1.0000
  H   H818      1.0  0.38545  0.56902  0.49443  1.0000
  H   H819      1.0  0.14957  0.36230  0.69875  1.0000
  H   H820      1.0  0.32543  0.55599  0.51681  1.0000
  H   H821      1.0  0.34058  0.56970  0.49924  1.0000
  H   H822      1.0  0.48775  0.50894  0.65975  1.0000
  C   C520      1.0  0.33029  0.39435  0.59466  1.0000
  H   H823      1.0  0.27689  0.61280  0.70590  1.0000
  C   C521      1.0  0.08760  0.36824  0.70021  1.0000
  H   H824      1.0  0.27300  0.34433  0.62563  1.0000
  H   H825      1.0  0.26290  0.43745  0.50043  1.0000
  C   C522      1.0  0.32052  0.38098  0.62062  1.0000
  H   H826      1.0  0.03152  0.38985  0.50103  1.0000
  H   H827      1.0  0.47940  0.50625  0.63622  1.0000
  H   H828      1.0  0.36201  0.39655  0.62000  1.0000
  Fe  Fe112     1.0  0.15831  0.62994  0.71914  1.0000
  H   H829      1.0  0.02337  0.46155  0.64462  1.0000
  C   C523      1.0  0.00415  0.46104  0.64527  1.0000
  S   S219      1.0  0.07135  0.49056  0.71288  1.0000
  C   C524      1.0  0.31384  0.64566  0.63457  1.0000
  C   C525      1.0  0.37008  0.52740  0.50917  1.0000
  C   C526      1.0  0.06081  0.35787  0.49880  1.0000
  C   C527      1.0  0.06714  0.33379  0.49613  1.0000
  N   N55       1.0  0.25551  0.46159  0.51568  1.0000
  H   H830      1.0  0.45318  0.61297  0.64465  1.0000
  C   C528      1.0  0.35792  0.63160  0.64534  1.0000
  H   H831      1.0  0.31652  0.41190  0.59537  1.0000
  N   N56       1.0  0.39497  0.47362  0.65483  1.0000
  C   C529      1.0  0.36825  0.47510  0.65545  1.0000
  C   C530      1.0  0.40784  0.47776  0.63953  1.0000
  C   C531      1.0  0.40586  0.44893  0.66232  1.0000
  C   C532      1.0  0.39799  0.49274  0.66198  1.0000
  H   H832      1.0  0.35946  0.49354  0.64990  1.0000
  H   H833      1.0  0.35784  0.47199  0.66682  1.0000
  H   H834      1.0  0.36523  0.46123  0.64993  1.0000
  H   H835      1.0  0.42811  0.47676  0.63855  1.0000
  H   H836      1.0  0.40556  0.46411  0.63361  1.0000
  H   H837      1.0  0.40035  0.49638  0.63369  1.0000
  H   H838      1.0  0.39660  0.44518  0.67391  1.0000
  H   H839      1.0  0.42604  0.44730  0.66201  1.0000
  H   H840      1.0  0.40395  0.43410  0.65714  1.0000
  H   H841      1.0  0.41798  0.49235  0.66156  1.0000
  H   H842      1.0  0.38863  0.49023  0.67357  1.0000
  H   H843      1.0  0.38992  0.51159  0.65657  1.0000
  H   H844      1.0  0.22171  0.44857  0.52609  1.0000
  H   H845      1.0  0.34493  0.39808  0.58493  1.0000
  H   H846      1.0  0.11348  0.39258  0.69050  1.0000
  H   H847      1.0  0.07488  0.36645  0.50034  1.0000
  S   S220      1.0  0.44784  0.57957  0.48766  1.0000
  H   H848      1.0  0.22252  0.46408  0.50751  1.0000
  N   N57       1.0  0.34082  0.38481  0.60800  1.0000
  C   C533      1.0  0.11103  0.37458  0.69680  1.0000
  C   C534      1.0  0.35389  0.61859  0.63567  1.0000
  C   C535      1.0  0.28549  0.32682  0.62788  1.0000
  C   C536      1.0  0.26237  0.46164  0.52952  1.0000
  H   H849      1.0  0.11675  0.41953  0.61142  1.0000
  Fe  Fe113     1.0  0.06428  0.47771  0.69398  1.0000
  H   H850      1.0  0.45811  0.64573  0.50947  1.0000
  S   S221      1.0  0.06045  0.44622  0.66292  1.0000
  H   H851      1.0  0.00945  0.32676  0.49433  1.0000
  H   H852      1.0  0.09571  0.53973  0.67191  1.0000
  S   S222      1.0  0.05868  0.49957  0.67198  1.0000
  H   H853      1.0  0.27171  0.32159  0.65097  1.0000
  H   H854      1.0  0.37354  0.36302  0.59724  1.0000
  C   C537      1.0  0.36470  0.54636  0.52990  1.0000
  H   H855      1.0  0.16107  0.53483  0.65199  1.0000
  C   C538      1.0  0.46696  0.61154  0.53310  1.0000
  H   H856      1.0  0.16988  0.42999  0.59978  1.0000
  H   H857      1.0  0.30020  0.61033  0.71630  1.0000
  H   H858      1.0  0.16314  0.44797  0.58286  1.0000
  C   C539      1.0  0.33194  0.62582  0.63013  1.0000
  H   H859      1.0  0.21825  0.48163  0.52143  1.0000
  H   H860      1.0  0.38856  0.51615  0.51098  1.0000
  N   N58       1.0  0.49029  0.59166  0.64465  1.0000
  C   C540      1.0  0.26787  0.43807  0.51081  1.0000
  H   H861      1.0  0.30632  0.63516  0.67655  1.0000
  H   H862      1.0  0.12314  0.54060  0.68870  1.0000
  C   C541      1.0  0.12883  0.49865  0.67951  1.0000
  S   S223      1.0  0.09476  0.59748  0.70420  1.0000
  H   H863      1.0  0.34959  0.53651  0.53624  1.0000
  H   H864      1.0  0.36791  0.60326  0.63230  1.0000
  H   H865      1.0  0.30996  0.36761  0.61939  1.0000
  H   H866      1.0  0.10846  0.52471  0.65672  1.0000
  H   H867      1.0  0.01834  0.37034  0.69413  1.0000
  H   H868      1.0  0.25666  0.44612  0.53816  1.0000
  C   C542      1.0  0.04847  0.32264  0.49458  1.0000
  C   C543      1.0  0.13145  0.35739  0.70139  1.0000
  N   N59       1.0  0.29868  0.64120  0.69847  1.0000
  H   H869      1.0  0.30706  0.39855  0.62194  1.0000
  H   H870      1.0  0.36977  0.40604  0.60062  1.0000
  H   H871      1.0  0.38250  0.53476  0.53266  1.0000
  C   C544      1.0  0.09403  0.54942  0.71895  1.0000
  H   H872      1.0  0.18810  0.40165  0.49053  1.0000
  H   H873      1.0  0.12219  0.39118  0.60483  1.0000
  C   C545      1.0  0.02367  0.33550  0.49557  1.0000
  H   H874      1.0  0.11172  0.50157  0.68792  1.0000
  C   C546      1.0  0.02110  0.39656  0.66700  1.0000
  H   H875      1.0  0.27403  0.64457  0.68390  1.0000
  C   C547      1.0  0.47780  0.64033  0.51101  1.0000
  S   S224      1.0  0.12513  0.64621  0.70876  1.0000
  H   H876      1.0  0.33807  0.63191  0.69055  1.0000
  H   H877      1.0  0.01241  0.43861  0.62895  1.0000
  H   H878      1.0  0.00944  0.35724  0.54412  1.0000
  H   H879      1.0  0.32959  0.63928  0.70844  1.0000
  C   C548      1.0  0.99900  0.37465  0.53849  1.0000
  C   C549      1.0  0.10492  0.32772  0.71290  1.0000
  Fe  Fe114     1.0  0.11213  0.61061  0.71919  1.0000
  C   C550      1.0  0.29613  0.61547  0.70513  1.0000
  H   H880      1.0  0.02288  0.38158  0.66099  1.0000
  H   H881      1.0  0.99601  0.43587  0.67853  1.0000
  C   C551      1.0  0.99713  0.41786  0.68622  1.0000
  C   C552      1.0  0.21016  0.42996  0.48374  1.0000
  H   H882      1.0  0.46983  0.59200  0.53898  1.0000
  H   H883      1.0  0.45838  0.58323  0.63970  1.0000
  H   H884      1.0  0.48975  0.64315  0.50007  1.0000
  H   H885      1.0  0.22600  0.32851  0.53008  1.0000
  H   H886      1.0  0.48762  0.62476  0.65259  1.0000
  C   C553      1.0  0.34008  0.65188  0.64945  1.0000
  H   H887      1.0  0.14351  0.37761  0.72754  1.0000
  Fe  Fe115     1.0  0.14379  0.33723  0.85863  1.0000
  S   S225      1.0  0.19637  0.33413  0.80926  1.0000
  H   H888      1.0  0.42749  0.54266  0.95929  1.0000
  Fe  Fe116     1.0  0.17215  0.37920  0.85243  1.0000
  S   S226      1.0  0.20844  0.35571  0.84337  1.0000
  S   S227      1.0  0.15769  0.41926  0.85521  1.0000
  Fe  Fe117     1.0  0.18509  0.34182  0.83211  1.0000
  H   H889      1.0  0.09445  0.51130  0.72940  1.0000
  H   H890      1.0  0.08373  0.63082  0.78353  1.0000
  C   C554      1.0  0.03161  0.62895  0.96230  1.0000
  S   S228      1.0  0.15010  0.36758  0.83951  1.0000
  S   S229      1.0  0.16349  0.35003  0.87214  1.0000
  H   H891      1.0  0.19826  0.48417  0.80924  1.0000
  H   H892      1.0  0.05740  0.39380  0.89210  1.0000
  C   C555      1.0  0.37907  0.54478  0.96068  1.0000
  Fe  Fe118     1.0  0.45688  0.58799  0.96510  1.0000
  S   S230      1.0  0.47080  0.59570  0.94096  1.0000
  S   S231      1.0  0.14693  0.59308  0.72818  1.0000
  Fe  Fe119     1.0  0.16694  0.58677  0.86197  1.0000
  S   S232      1.0  0.19030  0.61427  0.84892  1.0000
  S   S233      1.0  0.13108  0.60045  0.87628  1.0000
  Fe  Fe120     1.0  0.20248  0.54271  0.85097  1.0000
  S   S234      1.0  0.22817  0.56726  0.83702  1.0000
  S   S235      1.0  0.21913  0.50239  0.84992  1.0000
  Fe  Fe121     1.0  0.22210  0.58535  0.85619  1.0000
  S   S236      1.0  0.25668  0.58796  0.86342  1.0000
  Fe  Fe122     1.0  0.19400  0.59349  0.83110  1.0000
  S   S237      1.0  0.19536  0.61144  0.80745  1.0000
  S   S238      1.0  0.19836  0.55920  0.87057  1.0000
  S   S239      1.0  0.16851  0.56776  0.84365  1.0000
  C   C556      1.0  0.40352  0.63271  0.93126  1.0000
  Fe  Fe123     1.0  0.48796  0.33388  0.97619  1.0000
  H   H893      1.0  0.38341  0.57408  0.93429  1.0000
  C   C557      1.0  0.08374  0.42824  0.87617  1.0000
  C   C558      1.0  0.00771  0.62642  0.97005  1.0000
  H   H894      1.0  0.12732  0.39210  0.75786  1.0000
  H   H895      1.0  0.27179  0.50996  0.85500  1.0000
  S   S240      1.0  0.40303  0.34876  0.96701  1.0000
  H   H896      1.0  0.27394  0.54112  0.88433  1.0000
  C   C559      1.0  0.11383  0.38687  0.75295  1.0000
  H   H897      1.0  0.04841  0.40467  0.87466  1.0000
  H   H898      1.0  0.29679  0.59915  0.87257  1.0000
  H   H899      1.0  0.13660  0.32492  0.75822  1.0000
  C   C560      1.0  0.39263  0.32211  0.96633  1.0000
  H   H900      1.0  0.41603  0.56316  0.92857  1.0000
  C   C561      1.0  0.18002  0.61283  0.78241  1.0000
  H   H901      1.0  0.09457  0.64322  0.76494  1.0000
  S   S241      1.0  0.12454  0.59157  0.77120  1.0000
  H   H902      1.0  0.30442  0.50418  0.87745  1.0000
  H   H903      1.0  0.25039  0.53649  0.86028  1.0000
  H   H904      1.0  0.14287  0.34741  0.76642  1.0000
  C   C562      1.0  0.40336  0.62424  0.91880  1.0000
  H   H905      1.0  0.12460  0.39302  0.87800  1.0000
  C   C563      1.0  0.10521  0.35653  0.74207  1.0000
  H   H906      1.0  0.11228  0.33851  0.73849  1.0000
  H   H907      1.0  0.16175  0.51257  0.81920  1.0000
  H   H908      1.0  0.42489  0.60282  0.90282  1.0000
  H   H909      1.0  0.46661  0.35867  0.92633  1.0000
  H   H910      1.0  0.10967  0.40182  0.74354  1.0000
  H   H911      1.0  0.17861  0.52040  0.83049  1.0000
  H   H912      1.0  0.42516  0.32921  0.93709  1.0000
  H   H913      1.0  0.40911  0.52095  0.93068  1.0000
  N   N60       1.0  0.39934  0.54116  0.94808  1.0000
  C   C564      1.0  0.04024  0.65079  0.96086  1.0000
  H   H914      1.0  0.33451  0.65085  0.96436  1.0000
  C   C565      1.0  0.13590  0.61415  0.88963  1.0000
  H   H915      1.0  0.16294  0.54428  0.81813  1.0000
  H   H916      1.0  0.20656  0.52870  0.78489  1.0000
  C   C566      1.0  0.25814  0.61271  0.87124  1.0000
  N   N61       1.0  0.19672  0.52279  0.80818  1.0000
  C   C567      1.0  0.28069  0.61350  0.87475  1.0000
  H   H917      1.0  0.07821  0.42981  0.88780  1.0000
  C   C568      1.0  0.16468  0.60831  0.77419  1.0000
  H   H918      1.0  0.18245  0.62465  0.90284  1.0000
  H   H919      1.0  0.21895  0.53278  0.82029  1.0000
  H   H920      1.0  0.22731  0.49425  0.80167  1.0000
  H   H921      1.0  0.19584  0.62131  0.77698  1.0000
  C   C569      1.0  0.21006  0.49677  0.81002  1.0000
  C   C570      1.0  0.17521  0.60616  0.79759  1.0000
  C   C571      1.0  0.15474  0.59523  0.80453  1.0000
  C   C572      1.0  0.13943  0.59063  0.79632  1.0000
  C   C573      1.0  0.14435  0.59718  0.78113  1.0000
  H   H922      1.0  0.09686  0.62694  0.89717  1.0000
  H   H923      1.0  0.10137  0.43535  0.87174  1.0000
  H   H924      1.0  0.15056  0.59056  0.81623  1.0000
  H   H925      1.0  0.12360  0.58217  0.80175  1.0000
  H   H926      1.0  0.39261  0.50583  0.94739  1.0000
  C   C574      1.0  0.44581  0.60924  0.93174  1.0000
  C   C575      1.0  0.42476  0.62521  0.93773  1.0000
  H   H927      1.0  0.10076  0.37058  0.73236  1.0000
  S   S242      1.0  0.37558  0.62701  0.91269  1.0000
  H   H928      1.0  0.11401  0.31970  0.80916  1.0000
  C   C576      1.0  0.44613  0.60227  0.91875  1.0000
  H   H929      1.0  0.04362  0.61383  0.95750  1.0000
  H   H930      1.0  0.16118  0.36908  0.74188  1.0000
  H   H931      1.0  0.24250  0.48718  0.89295  1.0000
  H   H932      1.0  0.48155  0.34650  0.94171  1.0000
  C   C577      1.0  0.11927  0.63854  0.90861  1.0000
  H   H933      1.0  0.37735  0.52700  0.96839  1.0000
  H   H934      1.0  0.10157  0.38712  0.89401  1.0000
  C   C578      1.0  0.17531  0.44183  0.85395  1.0000
  C   C579      1.0  0.20126  0.43696  0.85047  1.0000
  C   C580      1.0  0.21443  0.45564  0.84948  1.0000
  C   C581      1.0  0.20179  0.47927  0.85192  1.0000
  C   C582      1.0  0.17585  0.48409  0.85547  1.0000
  C   C583      1.0  0.16269  0.46546  0.85642  1.0000
  H   H935      1.0  0.21116  0.41883  0.84857  1.0000
  H   H936      1.0  0.23451  0.45173  0.84675  1.0000
  H   H937      1.0  0.16590  0.50213  0.85751  1.0000
  H   H938      1.0  0.14261  0.46934  0.85916  1.0000
  Fe  Fe124     1.0  0.12706  0.61030  0.74761  1.0000
  H   H939      1.0  0.37373  0.34072  0.94862  1.0000
  C   C584      1.0  0.23745  0.63141  0.87408  1.0000
  C   C585      1.0  0.18989  0.53065  0.79369  1.0000
  N   N62       1.0  0.12374  0.36270  0.74846  1.0000
  C   C586      1.0  0.28268  0.63291  0.88092  1.0000
  H   H940      1.0  0.18037  0.55040  0.79184  1.0000
  S   S243      1.0  0.10471  0.33022  0.86614  1.0000
  H   H941      1.0  0.08755  0.35507  0.75000  1.0000
  H   H942      1.0  0.46228  0.59012  0.91398  1.0000
  H   H943      1.0  0.30020  0.63342  0.88345  1.0000
  C   C587      1.0  0.40106  0.56521  0.93827  1.0000
  C   C588      1.0  0.24505  0.49683  0.88142  1.0000
  C   C589      1.0  0.25929  0.52978  0.88701  1.0000
  H   H944      1.0  0.28758  0.48430  0.89166  1.0000
  H   H945      1.0  0.08034  0.41293  0.85253  1.0000
  H   H946      1.0  0.24162  0.54299  0.88543  1.0000
  H   H947      1.0  0.20323  0.55829  0.80879  1.0000
  C   C590      1.0  0.11553  0.62651  0.89839  1.0000
  C   C591      1.0  0.26778  0.52341  0.86236  1.0000
  C   C592      1.0  0.14341  0.63807  0.91014  1.0000
  H   H948      1.0  0.29385  0.47969  0.87327  1.0000
  H   H949      1.0  0.36084  0.55285  0.95730  1.0000
  H   H950      1.0  0.24879  0.48269  0.87450  1.0000
  H   H951      1.0  0.42261  0.51221  0.96044  1.0000
  H   H952      1.0  0.06923  0.44071  0.87036  1.0000
  C   C593      1.0  0.15004  0.32601  0.80940  1.0000
  S   S244      1.0  0.46152  0.36840  0.96887  1.0000
  H   H953      1.0  0.11758  0.64312  0.79077  1.0000
  C   C594      1.0  0.42315  0.53051  0.95311  1.0000
  H   H954      1.0  0.23000  0.53797  0.80104  1.0000
  H   H955      1.0  0.11234  0.40786  0.85395  1.0000
  C   C595      1.0  0.42493  0.60952  0.91241  1.0000
  H   H956      1.0  0.37634  0.53172  0.93622  1.0000
  S   S245      1.0  0.09109  0.62474  0.73938  1.0000
  N   N63       1.0  0.08709  0.40243  0.87438  1.0000
  S   S246      1.0  0.14124  0.64571  0.73924  1.0000
  C   C596      1.0  0.28884  0.49402  0.88015  1.0000
  H   H957      1.0  0.06582  0.37385  0.87909  1.0000
  H   H958      1.0  0.10967  0.36712  0.88109  1.0000
  N   N64       1.0  0.26523  0.51100  0.87775  1.0000
  H   H959      1.0  0.38249  0.55744  0.96689  1.0000
  H   H960      1.0  0.16876  0.61323  0.76249  1.0000
  H   H961      1.0  0.22698  0.50905  0.87963  1.0000
  C   C597      1.0  0.16000  0.61339  0.89134  1.0000
  H   H962      1.0  0.25728  0.52120  0.89872  1.0000
  H   H963      1.0  0.17582  0.60391  0.88464  1.0000
  H   H964      1.0  0.09747  0.38210  0.85701  1.0000
  C   C598      1.0  0.09459  0.40131  0.85879  1.0000
  H   H965      1.0  0.21995  0.63090  0.87153  1.0000
  H   H966      1.0  0.28274  0.53444  0.85916  1.0000
  C   C599      1.0  0.46529  0.34618  0.93713  1.0000
  S   S247      1.0  0.99841  0.59809  0.97234  1.0000
  C   C600      1.0  0.06359  0.39336  0.88033  1.0000
  H   H967      1.0  0.42463  0.63128  0.94754  1.0000
  C   C601      1.0  0.39411  0.52415  0.94024  1.0000
  H   H968      1.0  0.17706  0.51956  0.79237  1.0000
  H   H969      1.0  0.21560  0.49043  0.82083  1.0000
  C   C602      1.0  0.12901  0.34342  0.76122  1.0000
  Fe  Fe125     1.0  0.19781  0.32570  0.86227  1.0000
  C   C603      1.0  0.10657  0.38674  0.88222  1.0000
  C   C604      1.0  0.21295  0.53863  0.80962  1.0000
  C   C605      1.0  0.08241  0.64807  0.77513  1.0000
  C   C606      1.0  0.17398  0.52510  0.81948  1.0000
  H   H970      1.0  0.43895  0.52792  0.94387  1.0000
  S   S248      1.0  0.41578  0.59044  0.97117  1.0000
  C   C607      1.0  0.16372  0.62511  0.90168  1.0000
  H   H971      1.0  0.44820  0.35429  0.94427  1.0000
  H   H972      1.0  0.40528  0.57841  0.94378  1.0000
  C   C608      1.0  0.14692  0.36391  0.73756  1.0000
  H   H973      1.0  0.09630  0.38654  0.76114  1.0000
  H   H974      1.0  0.11192  0.34167  0.76964  1.0000
  C   C609      1.0  0.26208  0.65172  0.88363  1.0000
  H   H975      1.0  0.44330  0.33281  0.91907  1.0000
  H   H976      1.0  0.14326  0.33611  0.81820  1.0000
  H   H977      1.0  0.15518  0.34573  0.73426  1.0000
  H   H978      1.0  0.38686  0.64380  0.93635  1.0000
  C   C610      1.0  0.37848  0.32339  0.95590  1.0000
  H   H979      1.0  0.24997  0.33390  0.87032  1.0000
  C   C611      1.0  0.23944  0.65082  0.88025  1.0000
  H   H980      1.0  0.28552  0.33620  0.88075  1.0000
  H   H981      1.0  0.10351  0.64821  0.91526  1.0000
  H   H982      1.0  0.49239  0.35441  0.75649  1.0000
  H   H983      1.0  0.48934  0.32221  0.91536  1.0000
  C   C612      1.0  0.27544  0.32133  0.88536  1.0000
  C   C613      1.0  0.44263  0.32129  0.93014  1.0000
  C   C614      1.0  0.17525  0.32257  0.80300  1.0000
  N   N65       1.0  0.46463  0.32081  0.93608  1.0000
  C   C615      1.0  0.25532  0.32008  0.87945  1.0000
  S   S249      1.0  0.20922  0.83820  0.01996  1.0000
  H   H984      1.0  0.13490  0.77948  0.03282  1.0000
  H   H985      1.0  0.23435  0.95200  0.99904  1.0000
  H   H986      1.0  0.18391  0.66439  0.21906  1.0000
  C   C616      1.0  0.44126  0.70944  0.97920  1.0000
  S   S250      1.0  0.28352  0.65682  0.21409  1.0000
  H   H987      1.0  0.07074  0.71369  0.08417  1.0000
  H   H988      1.0  0.42779  0.69349  0.11932  1.0000
  H   H989      1.0  0.38236  0.73919  0.21715  1.0000
  H   H990      1.0  0.48657  0.83447  0.18718  1.0000
  S   S251      1.0  0.13328  0.93530  0.18502  1.0000
  H   H991      1.0  0.48626  0.68675  0.99946  1.0000
  C   C617      1.0  0.41883  0.71076  0.98925  1.0000
  S   S252      1.0  0.07912  0.93011  0.20562  1.0000
  N   N66       1.0  0.44922  0.69282  0.13513  1.0000
  Fe  Fe126     1.0  0.11018  0.94889  0.20487  1.0000
  H   H992      1.0  0.44737  0.65575  0.13453  1.0000
  Fe  Fe127     1.0  0.10055  0.91990  0.18441  1.0000
  S   S253      1.0  0.10295  0.88077  0.18178  1.0000
  H   H993      1.0  0.07954  0.97680  0.22515  1.0000
  S   S254      1.0  0.08259  0.95419  0.17070  1.0000
  Fe  Fe128     1.0  0.11690  0.79783  0.08903  1.0000
  S   S255      1.0  0.08150  0.80988  0.10416  1.0000
  S   S256      1.0  0.11568  0.80704  0.06508  1.0000
  Fe  Fe129     1.0  0.14443  0.77332  0.11400  1.0000
  S   S257      1.0  0.11111  0.78331  0.13110  1.0000
  S   S258      1.0  0.18309  0.75359  0.11751  1.0000
  Fe  Fe130     1.0  0.08991  0.77180  0.11746  1.0000
  S   S259      1.0  0.05919  0.74992  0.12741  1.0000
  Fe  Fe131     1.0  0.10563  0.82039  0.11624  1.0000
  S   S260      1.0  0.09757  0.85890  0.12135  1.0000
  S   S261      1.0  0.12379  0.75892  0.10153  1.0000
  S   S262      1.0  0.14049  0.81125  0.09999  1.0000
  H   H994      1.0  0.17420  0.76721  0.00583  1.0000
  H   H995      1.0  0.15037  0.71289  0.22642  1.0000
  H   H996      1.0  0.45091  0.65420  0.04141  1.0000
  H   H997      1.0  0.13661  0.90242  0.02996  1.0000
  H   H998      1.0  0.14533  0.74166  0.00446  1.0000
  C   C618      1.0  0.06621  0.72946  0.10309  1.0000
  H   H999      1.0  0.47364  0.67223  0.03999  1.0000
  H   H1000     1.0  0.08068  0.74003  0.09831  1.0000
  C   C619      1.0  0.19235  0.74985  0.13420  1.0000
  C   C620      1.0  0.17516  0.75533  0.14659  1.0000
  C   C621      1.0  0.18340  0.75441  0.15936  1.0000
  C   C622      1.0  0.20881  0.74750  0.15991  1.0000
  C   C623      1.0  0.22593  0.74119  0.14770  1.0000
  C   C624      1.0  0.21769  0.74241  0.13487  1.0000
  H   H1001     1.0  0.15556  0.76060  0.14625  1.0000
  H   H1002     1.0  0.17006  0.75937  0.16876  1.0000
  C   C625      1.0  0.15663  0.89452  0.02656  1.0000
  H   H1003     1.0  0.23107  0.73801  0.12533  1.0000
  Fe  Fe132     1.0  0.20584  0.84648  0.99649  1.0000
  H   H1004     1.0  0.20078  0.89246  0.00780  1.0000
  C   C626      1.0  0.16924  0.92785  0.03270  1.0000
  H   H1005     1.0  0.47414  0.69847  0.14728  1.0000
  S   S263      1.0  0.32325  0.70626  0.18979  1.0000
  C   C627      1.0  0.10204  0.87479  0.16486  1.0000
  C   C628      1.0  0.10117  0.89366  0.15263  1.0000
  C   C629      1.0  0.09945  0.88854  0.13942  1.0000
  C   C630      1.0  0.09905  0.86447  0.13827  1.0000
  C   C631      1.0  0.10022  0.84552  0.15046  1.0000
  C   C632      1.0  0.10166  0.85070  0.16373  1.0000
  H   H1006     1.0  0.10173  0.91222  0.15335  1.0000
  H   H1007     1.0  0.09866  0.90325  0.12999  1.0000
  H   H1008     1.0  0.09969  0.82695  0.14970  1.0000
  H   H1009     1.0  0.10230  0.83603  0.17318  1.0000
  C   C633      1.0  0.17530  0.67844  0.21055  1.0000
  C   C634      1.0  0.01160  0.93908  0.17873  1.0000
  H   H1010     1.0  0.05433  0.91467  0.18742  1.0000
  S   S264      1.0  0.20584  0.81792  0.98393  1.0000
  C   C635      1.0  0.17088  0.71132  0.22343  1.0000
  C   C636      1.0  0.19238  0.92581  0.21942  1.0000
  S   S265      1.0  0.12521  0.94400  0.22523  1.0000
  H   H1011     1.0  0.02436  0.71758  0.13419  1.0000
  H   H1012     1.0  0.17577  0.91548  0.04243  1.0000
  C   C637      1.0  0.41181  0.67359  0.98394  1.0000
  C   C638      1.0  0.44903  0.66279  0.01332  1.0000
  H   H1013     1.0  0.34429  0.66168  0.98527  1.0000
  H   H1014     1.0  0.14956  0.93680  0.03619  1.0000
  H   H1015     1.0  0.20497  0.88845  0.02604  1.0000
  C   C639      1.0  0.44156  0.70321  0.12095  1.0000
  C   C640      1.0  0.20816  0.70131  0.20596  1.0000
  S   S266      1.0  0.23406  0.86474  0.97957  1.0000
  H   H1016     1.0  0.18040  0.94270  0.02895  1.0000
  H   H1017     1.0  0.05196  0.91782  0.16195  1.0000
  H   H1018     1.0  0.45931  0.72617  0.13667  1.0000
  H   H1019     1.0  0.16234  0.79694  0.01075  1.0000
  H   H1020     1.0  0.16295  0.88110  0.03605  1.0000
  C   C641      1.0  0.06050  0.71455  0.09507  1.0000
  C   C642      1.0  0.36660  0.66446  0.15739  1.0000
  C   C643      1.0  0.18329  0.82938  0.03248  1.0000
  C   C644      1.0  0.16097  0.83131  0.02801  1.0000
  C   C645      1.0  0.14023  0.82487  0.03820  1.0000
  C   C646      1.0  0.14178  0.81606  0.05285  1.0000
  C   C647      1.0  0.16405  0.81425  0.05734  1.0000
  C   C648      1.0  0.18473  0.82105  0.04717  1.0000
  H   H1021     1.0  0.15961  0.83797  0.01674  1.0000
  H   H1022     1.0  0.12285  0.82675  0.03481  1.0000
  H   H1023     1.0  0.16543  0.80732  0.06860  1.0000
  H   H1024     1.0  0.20197  0.81953  0.05067  1.0000
  S   S267      1.0  0.28120  0.69606  0.17382  1.0000
  H   H1025     1.0  0.41341  0.72489  0.99582  1.0000
  H   H1026     1.0  0.16580  0.92153  0.99913  1.0000
  H   H1027     1.0  0.21019  0.91628  0.01334  1.0000
  S   S268      1.0  0.03390  0.68385  0.09019  1.0000
  H   H1028     1.0  0.04669  0.88474  0.19244  1.0000
  Fe  Fe133     1.0  0.28848  0.69022  0.19636  1.0000
  C   C649      1.0  0.36369  0.77168  0.22604  1.0000
  H   H1029     1.0  0.48406  0.70501  0.12801  1.0000
  C   C650      1.0  0.37749  0.67996  0.13165  1.0000
  H   H1030     1.0  0.02904  0.94510  0.22130  1.0000
  H   H1031     1.0  0.34930  0.70305  0.22549  1.0000
  H   H1032     1.0  0.46695  0.65782  0.14618  1.0000
  C   C651      1.0  0.34677  0.75394  0.21066  1.0000
  N   N67       1.0  0.02215  0.91233  0.18013  1.0000
  C   C652      1.0  0.23234  0.91047  0.22659  1.0000
  N   N68       1.0  0.21673  0.93182  0.21876  1.0000
  C   C653      1.0  0.04134  0.70120  0.10096  1.0000
  H   H1033     1.0  0.11441  0.80724  0.99745  1.0000
  C   C654      1.0  0.22226  0.95885  0.99119  1.0000
  C   C655      1.0  0.32326  0.79056  0.21977  1.0000
  H   H1034     1.0  0.02646  0.95024  0.17512  1.0000
  H   H1035     1.0  0.02839  0.90919  0.20170  1.0000
  S   S269      1.0  0.29973  0.77211  0.20420  1.0000
  C   C656      1.0  0.21772  0.94243  0.98368  1.0000
  H   H1036     1.0  0.21298  0.71946  0.20531  1.0000
  H   H1037     1.0  0.01376  0.69183  0.11981  1.0000
  C   C657      1.0  0.48384  0.88554  0.21475  1.0000
  S   S270      1.0  0.17298  0.87288  0.98899  1.0000
  H   H1038     1.0  0.17306  0.94665  0.00451  1.0000
  C   C658      1.0  0.16293  0.93105  0.00842  1.0000
  H   H1039     1.0  0.14738  0.74940  0.02846  1.0000
  H   H1040     1.0  0.21795  0.95363  0.19725  1.0000
  H   H1041     1.0  0.15810  0.88371  0.01810  1.0000
  H   H1042     1.0  0.17336  0.73964  0.19686  1.0000
  H   H1043     1.0  0.34863  0.74003  0.20433  1.0000
  H   H1044     1.0  0.31802  0.68678  0.98616  1.0000
  C   C659      1.0  0.36314  0.68318  0.14529  1.0000
  C   C660      1.0  0.16960  0.72086  0.19787  1.0000
  H   H1045     1.0  0.13243  0.76647  0.99137  1.0000
  H   H1046     1.0  0.00200  0.76854  0.08181  1.0000
  H   H1047     1.0  0.45560  0.66101  0.00173  1.0000
  H   H1048     1.0  0.14912  0.72239  0.19994  1.0000
  H   H1049     1.0  0.20099  0.96992  0.22011  1.0000
  H   H1050     1.0  0.02503  0.91195  0.15755  1.0000
  H   H1051     1.0  0.43242  0.68810  0.15779  1.0000
  Fe  Fe134     1.0  0.31401  0.71495  0.16746  1.0000
  C   C661      1.0  0.45895  0.67021  0.03468  1.0000
  H   H1052     1.0  0.17498  0.72977  0.22294  1.0000
  H   H1053     1.0  0.24769  0.94216  0.20258  1.0000
  H   H1054     1.0  0.18256  0.67169  0.20015  1.0000
  Fe  Fe135     1.0  0.06336  0.96547  0.19202  1.0000
  H   H1055     1.0  0.00611  0.65408  0.00502  1.0000
  H   H1056     1.0  0.41344  0.68494  0.14620  1.0000
  H   H1057     1.0  0.15496  0.67887  0.21332  1.0000
  H   H1058     1.0  0.01522  0.75201  0.09729  1.0000
  C   C662      1.0  0.32523  0.77223  0.21180  1.0000
  C   C663      1.0  0.03435  0.71690  0.12322  1.0000
  C   C664      1.0  0.42725  0.69537  0.14694  1.0000
  H   H1059     1.0  0.25107  0.91422  0.22599  1.0000
  H   H1060     1.0  0.11240  0.75368  0.00730  1.0000
  C   C665      1.0  0.47266  0.86700  0.22456  1.0000
  H   H1061     1.0  0.32280  0.67484  0.22375  1.0000
  H   H1062     1.0  0.47244  0.90128  0.20907  1.0000
  H   H1063     1.0  0.04573  0.88718  0.16671  1.0000
  S   S271      1.0  0.26396  0.72573  0.20098  1.0000
  H   H1064     1.0  0.44389  0.68689  0.03521  1.0000
  H   H1065     1.0  0.47705  0.66383  0.12681  1.0000
  C   C666      1.0  0.46744  0.70623  0.13686  1.0000
  H   H1066     1.0  0.45271  0.86856  0.22647  1.0000
  H   H1067     1.0  0.16047  0.79259  0.99333  1.0000
  N   N69       1.0  0.17743  0.82924  0.13199  1.0000
  C   C667      1.0  0.16735  0.85059  0.13936  1.0000
  C   C668      1.0  0.19792  0.81267  0.13869  1.0000
  C   C669      1.0  0.18676  0.83799  0.11643  1.0000
  C   C670      1.0  0.15752  0.81562  0.13341  1.0000
  H   H1068     1.0  0.15210  0.86360  0.13437  1.0000
  H   H1069     1.0  0.18192  0.86112  0.13876  1.0000
  H   H1070     1.0  0.15946  0.84461  0.15104  1.0000
  H   H1071     1.0  0.21331  0.82230  0.13788  1.0000
  H   H1072     1.0  0.19146  0.80540  0.15040  1.0000
  H   H1073     1.0  0.20593  0.79640  0.13333  1.0000
  H   H1074     1.0  0.19434  0.82219  0.11061  1.0000
  H   H1075     1.0  0.20182  0.84843  0.11484  1.0000
  H   H1076     1.0  0.17160  0.85029  0.11104  1.0000
  H   H1077     1.0  0.16429  0.79981  0.12765  1.0000
  H   H1078     1.0  0.14174  0.82760  0.12857  1.0000
  H   H1079     1.0  0.15012  0.80831  0.14496  1.0000
  C   C671      1.0  0.22924  0.93755  0.20345  1.0000
  C   C672      1.0  0.02830  0.70234  0.11510  1.0000
  C   C673      1.0  0.34248  0.79040  0.22679  1.0000
  H   H1080     1.0  0.99903  0.94546  0.17073  1.0000
  H   H1081     1.0  0.14279  0.93919  0.01102  1.0000
  C   C674      1.0  0.19806  0.90236  0.01689  1.0000
  N   N70       1.0  0.17170  0.91395  0.02113  1.0000
  H   H1082     1.0  0.00077  0.94383  0.18929  1.0000
  S   S272      1.0  0.29072  0.75270  0.16964  1.0000
  H   H1083     1.0  0.43287  0.67845  0.01383  1.0000
  C   C675      1.0  0.36585  0.75357  0.21787  1.0000
  H   H1084     1.0  0.21760  0.68760  0.21425  1.0000
  Fe  Fe136     1.0  0.11357  0.97065  0.17300  1.0000
  C   C676      1.0  0.05313  0.73072  0.11720  1.0000
  H   H1085     1.0  0.35557  0.66678  0.16795  1.0000
  C   C677      1.0  0.03850  0.90487  0.19094  1.0000
  C   C678      1.0  0.11463  0.79938  0.00913  1.0000
  H   H1086     1.0  0.18038  0.94130  0.21330  1.0000
  H   H1087     1.0  0.41756  0.71500  0.14656  1.0000
  S   S273      1.0  0.46216  0.72751  0.97988  1.0000
  S   S274      1.0  0.34247  0.71151  0.14686  1.0000
  C   C679      1.0  0.40401  0.69315  0.99146  1.0000
  H   H1088     1.0  0.11748  0.81415  0.01398  1.0000
  Fe  Fe137     1.0  0.29773  0.74268  0.19244  1.0000
  C   C680      1.0  0.46068  0.66641  0.13572  1.0000
  C   C681      1.0  0.13266  0.76616  0.02662  1.0000
  H   H1089     1.0  0.11436  0.76078  0.03156  1.0000
  H   H1090     1.0  0.30805  0.72000  0.21887  1.0000
  H   H1091     1.0  0.25557  0.66026  0.19188  1.0000
  H   H1092     1.0  0.09586  0.79533  0.01425  1.0000
  H   H1093     1.0  0.24555  0.73578  0.14805  1.0000
  S   S275      1.0  0.21843  0.74776  0.17590  1.0000
  H   H1094     1.0  0.38721  0.69389  0.99967  1.0000
  H   H1095     1.0  0.17742  0.71544  0.18710  1.0000
  H   H1096     1.0  0.34881  0.69214  0.98447  1.0000
  N   N71       1.0  0.18096  0.70297  0.20946  1.0000
  H   H1097     1.0  0.37469  0.69428  0.12223  1.0000
  H   H1098     1.0  0.30669  0.80484  0.22061  1.0000
  C   C682      1.0  0.13095  0.75888  0.00322  1.0000
  H   H1099     1.0  0.23234  0.92158  0.19798  1.0000
  Fe  Fe138     1.0  0.25874  0.73294  0.17797  1.0000
  N   N72       1.0  0.13428  0.77701  0.01100  1.0000
  C   C683      1.0  0.15890  0.78369  0.00498  1.0000
  N   N73       1.0  0.46895  0.66671  0.01957  1.0000
  C   C684      1.0  0.13662  0.96888  0.22730  1.0000
  C   C685      1.0  0.99891  0.75486  0.09207  1.0000
  H   H1100     1.0  0.43279  0.72313  0.12005  1.0000
  C   C686      1.0  0.33781  0.68159  0.98090  1.0000
  H   H1101     1.0  0.21640  0.69584  0.19524  1.0000
  H   H1102     1.0  0.45773  0.70135  0.11180  1.0000
  C   C687      1.0  0.03678  0.90709  0.16597  1.0000
  C   C688      1.0  0.21301  0.95350  0.22556  1.0000
  H   H1103     1.0  0.99907  0.73699  0.08912  1.0000
  H   H1104     1.0  0.19440  0.90921  0.21470  1.0000
  H   H1105     1.0  0.22638  0.92308  0.98566  1.0000
  H   H1106     1.0  0.40617  0.65604  0.11954  1.0000
  H   H1107     1.0  0.49149  0.86370  0.01229  1.0000
  C   C689      1.0  0.00182  0.89829  0.18493  1.0000
  C   C690      1.0  0.01353  0.95948  0.22426  1.0000
  C   C691      1.0  0.47827  0.68891  0.01089  1.0000
  H   H1108     1.0  0.23508  0.89357  0.22202  1.0000
  H   H1109     1.0  0.23104  0.95862  0.22512  1.0000
  H   H1110     1.0  0.46308  0.70559  0.01048  1.0000
  H   H1111     1.0  0.00921  0.87803  0.18606  1.0000
  C   C692      1.0  0.00607  0.97974  0.21372  1.0000
  C   C693      1.0  0.21124  0.98407  0.98861  1.0000
  H   H1112     1.0  0.49299  0.69283  0.01540  1.0000
  C   C694      1.0  0.39547  0.65837  0.13012  1.0000
  Fe  Fe139     1.0  0.99580  0.67446  0.09432  1.0000
  S   S276      1.0  0.02262  0.98302  0.19569  1.0000
  Fe  Fe140     1.0  0.38295  0.85849  0.23989  1.0000
  S   S277      1.0  0.36076  0.83064  0.25384  1.0000
  H   H1113     1.0  0.02353  0.97905  0.25491  1.0000
  C   C695      1.0  0.31725  0.92660  0.41003  1.0000
  C   C696      1.0  0.22740  0.66121  0.37251  1.0000
  C   C697      1.0  0.37305  0.68223  0.42559  1.0000
  H   H1114     1.0  0.43612  0.84801  0.30074  1.0000
  S   S278      1.0  0.25243  0.93352  0.25140  1.0000
  H   H1115     1.0  0.37107  0.73050  0.40273  1.0000
  H   H1116     1.0  0.34289  0.80016  0.41607  1.0000
  H   H1117     1.0  0.33308  0.88080  0.26704  1.0000
  S   S279      1.0  0.46815  0.90280  0.34763  1.0000
  C   C698      1.0  0.12718  0.84863  0.44152  1.0000
  C   C699      1.0  0.07159  0.97777  0.25367  1.0000
  H   H1118     1.0  0.35823  0.88330  0.27458  1.0000
  C   C700      1.0  0.31244  0.88871  0.40473  1.0000
  H   H1119     1.0  0.40628  0.93668  0.44894  1.0000
  H   H1120     1.0  0.43660  0.87855  0.29028  1.0000
  H   H1121     1.0  0.09609  0.82184  0.46105  1.0000
  H   H1122     1.0  0.32089  0.93189  0.29532  1.0000
  S   S280      1.0  0.13390  0.90398  0.46374  1.0000
  Fe  Fe141     1.0  0.38891  0.86392  0.36791  1.0000
  S   S281      1.0  0.40511  0.82426  0.37566  1.0000
  S   S282      1.0  0.34690  0.87050  0.37303  1.0000
  Fe  Fe142     1.0  0.42994  0.83930  0.38480  1.0000
  S   S283      1.0  0.43238  0.82856  0.40853  1.0000
  S   S284      1.0  0.41230  0.87891  0.37823  1.0000
  Fe  Fe143     1.0  0.17132  0.88509  0.45310  1.0000
  H   H1123     1.0  0.18292  0.65693  0.40249  1.0000
  S   S285      1.0  0.18391  0.88966  0.42893  1.0000
  C   C701      1.0  0.29961  0.71849  0.23058  1.0000
  C   C702      1.0  0.46644  0.82393  0.28018  1.0000
  H   H1124     1.0  0.36615  0.75843  0.38944  1.0000
  H   H1125     1.0  0.28598  0.92756  0.28526  1.0000
  Fe  Fe144     1.0  0.39113  0.80287  0.24346  1.0000
  H   H1126     1.0  0.00985  0.93531  0.42482  1.0000
  S   S286      1.0  0.41519  0.86785  0.34638  1.0000
  Fe  Fe145     1.0  0.29183  0.75191  0.38877  1.0000
  S   S287      1.0  0.27796  0.76037  0.41115  1.0000
  S   S288      1.0  0.32249  0.76767  0.37241  1.0000
  Fe  Fe146     1.0  0.26071  0.71210  0.39387  1.0000
  S   S289      1.0  0.24429  0.71753  0.41667  1.0000
  S   S290      1.0  0.25584  0.68040  0.38482  1.0000
  Fe  Fe147     1.0  0.24078  0.75822  0.40737  1.0000
  S   S291      1.0  0.20446  0.78448  0.41307  1.0000
  Fe  Fe148     1.0  0.28288  0.71912  0.41835  1.0000
  S   S292      1.0  0.29786  0.69786  0.43842  1.0000
  S   S293      1.0  0.25440  0.75270  0.38425  1.0000
  S   S294      1.0  0.29972  0.71076  0.39630  1.0000
  H   H1127     1.0  0.29838  0.73674  0.23338  1.0000
  H   H1128     1.0  0.14550  0.95037  0.24816  1.0000
  H   H1129     1.0  0.01256  0.85502  0.47705  1.0000
  S   S295      1.0  0.41418  0.79627  0.26067  1.0000
  S   S296      1.0  0.38033  0.92982  0.42827  1.0000
  H   H1130     1.0  0.15569  0.93621  0.43593  1.0000
  H   H1131     1.0  0.32415  0.78737  0.40821  1.0000
  H   H1132     1.0  0.38664  0.68442  0.41563  1.0000
  S   S297      1.0  0.31016  0.93039  0.45139  1.0000
  C   C703      1.0  0.48437  0.90015  0.37276  1.0000
  C   C704      1.0  0.35916  0.74919  0.40070  1.0000
  H   H1133     1.0  0.35095  0.79872  0.39715  1.0000
  N   N74       1.0  0.46418  0.84988  0.28136  1.0000
  H   H1134     1.0  0.33006  0.74804  0.42686  1.0000
  S   S298      1.0  0.44079  0.80250  0.33858  1.0000
  H   H1135     1.0  0.34007  0.74667  0.40098  1.0000
  C   C705      1.0  0.13256  0.81631  0.42807  1.0000
  S   S299      1.0  0.33755  0.97704  0.44776  1.0000
  H   H1136     1.0  0.36099  0.73291  0.42930  1.0000
  H   H1137     1.0  0.23954  0.87411  0.47095  1.0000
  H   H1138     1.0  0.17920  0.69819  0.23237  1.0000
  C   C706      1.0  0.38430  0.83453  0.31674  1.0000
  C   C707      1.0  0.34753  0.69035  0.42527  1.0000
  C   C708      1.0  0.32998  0.68772  0.43817  1.0000
  H   H1139     1.0  0.34627  0.90807  0.26108  1.0000
  H   H1140     1.0  0.32455  0.67433  0.46126  1.0000
  C   C709      1.0  0.39016  0.82242  0.30500  1.0000
  H   H1141     1.0  0.34145  0.69870  0.41511  1.0000
  Fe  Fe149     1.0  0.38574  0.82662  0.26958  1.0000
  H   H1142     1.0  0.35135  0.91348  0.29078  1.0000
  H   H1143     1.0  0.31040  0.89794  0.39342  1.0000
  H   H1144     1.0  0.48464  0.81690  0.27353  1.0000
  S   S300      1.0  0.36940  0.82982  0.29289  1.0000
  C   C710      1.0  0.18403  0.67813  0.37093  1.0000
  H   H1145     1.0  0.33957  0.86782  0.42584  1.0000
  H   H1146     1.0  0.41608  0.79423  0.29465  1.0000
  C   C711      1.0  0.22824  0.68051  0.37909  1.0000
  C   C712      1.0  0.20697  0.69881  0.38139  1.0000
  C   C713      1.0  0.18500  0.69763  0.37730  1.0000
  H   H1147     1.0  0.36769  0.84870  0.31800  1.0000
  Fe  Fe150     1.0  0.43239  0.82667  0.24608  1.0000
  H   H1148     1.0  0.20739  0.71380  0.38642  1.0000
  H   H1149     1.0  0.16858  0.71180  0.37919  1.0000
  C   C714      1.0  0.19445  0.86088  0.42334  1.0000
  C   C715      1.0  0.20586  0.84009  0.43225  1.0000
  C   C716      1.0  0.21122  0.81664  0.42846  1.0000
  C   C717      1.0  0.20506  0.81392  0.41578  1.0000
  C   C718      1.0  0.19456  0.83489  0.40663  1.0000
  C   C719      1.0  0.18955  0.85831  0.41030  1.0000
  H   H1150     1.0  0.21027  0.84198  0.44217  1.0000
  H   H1151     1.0  0.21895  0.80050  0.43571  1.0000
  H   H1152     1.0  0.18938  0.83288  0.39694  1.0000
  H   H1153     1.0  0.18078  0.87425  0.40335  1.0000
  H   H1154     1.0  0.39377  0.96172  0.45853  1.0000
  C   C720      1.0  0.16287  0.96474  0.45255  1.0000
  H   H1155     1.0  0.42431  0.85717  0.28419  1.0000
  H   H1156     1.0  0.46308  0.95984  0.42873  1.0000
  H   H1157     1.0  0.27853  0.96793  0.42727  1.0000
  C   C721      1.0  0.42072  0.85555  0.41598  1.0000
  C   C722      1.0  0.40236  0.85588  0.42863  1.0000
  C   C723      1.0  0.39061  0.87843  0.43317  1.0000
  C   C724      1.0  0.39709  0.90060  0.42493  1.0000
  C   C725      1.0  0.41645  0.89993  0.41285  1.0000
  C   C726      1.0  0.42837  0.87750  0.40850  1.0000
  H   H1158     1.0  0.39658  0.83888  0.43459  1.0000
  H   H1159     1.0  0.37607  0.87870  0.44272  1.0000
  H   H1160     1.0  0.42174  0.91693  0.40647  1.0000
  H   H1161     1.0  0.44294  0.87733  0.39897  1.0000
  C   C727      1.0  0.33798  0.84322  0.37222  1.0000
  C   C728      1.0  0.31560  0.83671  0.38039  1.0000
  C   C729      1.0  0.31023  0.81361  0.38049  1.0000
  C   C730      1.0  0.32726  0.79719  0.37239  1.0000
  C   C731      1.0  0.34917  0.80414  0.36401  1.0000
  C   C732      1.0  0.35432  0.82703  0.36387  1.0000
  H   H1162     1.0  0.30263  0.84924  0.38679  1.0000
  H   H1163     1.0  0.29306  0.80852  0.38686  1.0000
  H   H1164     1.0  0.36256  0.79171  0.35774  1.0000
  H   H1165     1.0  0.37123  0.83212  0.35736  1.0000
  S   S301      1.0  0.40568  0.85648  0.25641  1.0000
  H   H1166     1.0  0.32060  0.86888  0.40446  1.0000
  C   C733      1.0  0.14444  0.80655  0.45148  1.0000
  H   H1167     1.0  0.12272  0.85375  0.45240  1.0000
  C   C734      1.0  0.02971  0.88304  0.46164  1.0000
  H   H1168     1.0  0.35262  0.90669  0.38953  1.0000
  H   H1169     1.0  0.32678  0.65879  0.24169  1.0000
  C   C735      1.0  0.42112  0.80999  0.32575  1.0000
  Fe  Fe151     1.0  0.44109  0.87719  0.35785  1.0000
  N   N75       1.0  0.35918  0.76384  0.41146  1.0000
  H   H1170     1.0  0.44317  0.78296  0.31313  1.0000
  H   H1171     1.0  0.48257  0.80543  0.41193  1.0000
  C   C736      1.0  0.34091  0.89391  0.27076  1.0000
  C   C737      1.0  0.29951  0.94095  0.23825  1.0000
  H   H1172     1.0  0.14463  0.78662  0.45239  1.0000
  H   H1173     1.0  0.31552  0.93665  0.39882  1.0000
  H   H1174     1.0  0.29346  0.88982  0.41152  1.0000
  C   C738      1.0  0.41433  0.98013  0.43166  1.0000
  H   H1175     1.0  0.46075  0.93743  0.44533  1.0000
  N   N76       1.0  0.17017  0.96753  0.43659  1.0000
  N   N77       1.0  0.31444  0.69823  0.23955  1.0000
  H   H1176     1.0  0.11360  0.86122  0.43509  1.0000
  C   C739      1.0  0.07232  0.88291  0.46333  1.0000
  H   H1177     1.0  0.31357  0.68223  0.26211  1.0000
  C   C740      1.0  0.31688  0.88577  0.29495  1.0000
  C   C741      1.0  0.05144  0.89291  0.45672  1.0000
  H   H1178     1.0  0.40860  0.96809  0.42597  1.0000
  S   S302      1.0  0.45971  0.83799  0.36475  1.0000
  Fe  Fe152     1.0  0.33865  0.96631  0.47137  1.0000
  H   H1179     1.0  0.00582  0.93361  0.40714  1.0000
  C   C742      1.0  0.36348  0.66819  0.45154  1.0000
  C   C743      1.0  0.28382  0.92393  0.24398  1.0000
  C   C744      1.0  0.42684  0.79750  0.31409  1.0000
  C   C745      1.0  0.19636  0.95511  0.43270  1.0000
  H   H1180     1.0  0.13419  0.96517  0.43374  1.0000
  H   H1181     1.0  0.28133  0.88546  0.24880  1.0000
  H   H1182     1.0  0.45404  0.86435  0.26043  1.0000
  H   H1183     1.0  0.09167  0.97414  0.24865  1.0000
  N   N78       1.0  0.34473  0.76903  0.32814  1.0000
  C   C746      1.0  0.35285  0.76886  0.31246  1.0000
  C   C747      1.0  0.32661  0.75262  0.33454  1.0000
  C   C748      1.0  0.33292  0.79445  0.33029  1.0000
  C   C749      1.0  0.36655  0.76022  0.33529  1.0000
  H   H1184     1.0  0.36734  0.78018  0.30746  1.0000
  H   H1185     1.0  0.33715  0.77659  0.30654  1.0000
  H   H1186     1.0  0.36095  0.74984  0.31039  1.0000
  H   H1187     1.0  0.30999  0.75863  0.32932  1.0000
  H   H1188     1.0  0.33494  0.73317  0.33337  1.0000
  H   H1189     1.0  0.31985  0.75260  0.34635  1.0000
  H   H1190     1.0  0.31653  0.80181  0.32493  1.0000
  H   H1191     1.0  0.34609  0.80732  0.32574  1.0000
  H   H1192     1.0  0.32640  0.79520  0.34202  1.0000
  H   H1193     1.0  0.36092  0.75879  0.34725  1.0000
  H   H1194     1.0  0.37996  0.77301  0.33132  1.0000
  H   H1195     1.0  0.37666  0.74160  0.33329  1.0000
  C   C750      1.0  0.38112  0.67119  0.43874  1.0000
  H   H1196     1.0  0.14596  0.85251  0.43621  1.0000
  C   C751      1.0  0.32496  0.93259  0.23334  1.0000
  H   H1197     1.0  0.33375  0.87553  0.29941  1.0000
  N   N79       1.0  0.12629  0.82242  0.44271  1.0000
  C   C752      1.0  0.38491  0.76635  0.41084  1.0000
  H   H1198     1.0  0.15939  0.95771  0.41913  1.0000
  H   H1199     1.0  0.45175  0.82192  0.27485  1.0000
  C   C753      1.0  0.34359  0.78862  0.40810  1.0000
  H   H1200     1.0  0.42054  0.93924  0.46313  1.0000
  H   H1201     1.0  0.48658  0.85896  0.26022  1.0000
  N   N80       1.0  0.32293  0.90530  0.28230  1.0000
  H   H1202     1.0  0.16366  0.80957  0.44654  1.0000
  S   S303      1.0  0.00413  0.89630  0.45274  1.0000
  C   C754      1.0  0.25141  0.98279  0.41335  1.0000
  C   C755      1.0  0.30000  0.91862  0.27687  1.0000
  H   H1203     1.0  0.34064  0.80445  0.23303  1.0000
  H   H1204     1.0  0.05206  0.90852  0.44780  1.0000
  H   H1205     1.0  0.05522  0.96080  0.23502  1.0000
  C   C756      1.0  0.10102  0.81819  0.44979  1.0000
  C   C757      1.0  0.29346  0.89867  0.24445  1.0000
  S   S304      1.0  0.36704  0.89714  0.22949  1.0000
  C   C758      1.0  0.33804  0.67643  0.45125  1.0000
  S   S305      1.0  0.38696  0.76934  0.23599  1.0000
  S   S306      1.0  0.15554  0.67661  0.36680  1.0000
  H   H1206     1.0  0.31326  0.66200  0.41933  1.0000
  H   H1207     1.0  0.30307  0.89360  0.30382  1.0000
  C   C759      1.0  0.41139  0.95005  0.45394  1.0000
  Fe  Fe153     1.0  0.34943  0.93655  0.44733  1.0000
  H   H1208     1.0  0.32625  0.87082  0.24009  1.0000
  H   H1209     1.0  0.29618  0.67032  0.23763  1.0000
  H   H1210     1.0  0.34130  0.89647  0.42996  1.0000
  H   H1211     1.0  0.00710  0.94236  0.24690  1.0000
  C   C760      1.0  0.15410  0.95622  0.43111  1.0000
  H   H1212     1.0  0.18205  0.92209  0.23080  1.0000
  H   H1213     1.0  0.30225  0.71507  0.25837  1.0000
  H   H1214     1.0  0.29216  0.96050  0.23781  1.0000
  H   H1215     1.0  0.07997  0.66188  0.30389  1.0000
  C   C761      1.0  0.26291  0.98242  0.42483  1.0000
  H   H1216     1.0  0.29835  0.92904  0.41693  1.0000
  N   N81       1.0  0.32832  0.90016  0.41027  1.0000
  H   H1217     1.0  0.36580  0.90655  0.40476  1.0000
  H   H1218     1.0  0.35172  0.68786  0.24375  1.0000
  H   H1219     1.0  0.34014  0.72060  0.23973  1.0000
  H   H1220     1.0  0.33874  0.93785  0.27729  1.0000
  N   N82       1.0  0.42776  0.96529  0.44324  1.0000
  H   H1221     1.0  0.39313  0.77567  0.39986  1.0000
  H   H1222     1.0  0.30391  0.93346  0.26730  1.0000
  C   C762      1.0  0.41157  0.80393  0.30360  1.0000
  H   H1223     1.0  0.13229  0.79661  0.42853  1.0000
  H   H1224     1.0  0.30897  0.87194  0.29192  1.0000
  S   S307      1.0  0.19188  0.89475  0.46742  1.0000
  H   H1225     1.0  0.20257  0.95725  0.42071  1.0000
  S   S308      1.0  0.47388  0.82264  0.24374  1.0000
  C   C763      1.0  0.20542  0.66001  0.36844  1.0000
  H   H1226     1.0  0.08877  0.89085  0.45945  1.0000
  C   C764      1.0  0.33026  0.88757  0.42531  1.0000
  C   C765      1.0  0.31892  0.89033  0.23966  1.0000
  S   S309      1.0  0.41325  0.66231  0.43891  1.0000
  Fe  Fe154     1.0  0.24055  0.97370  0.25308  1.0000
  H   H1227     1.0  0.28355  0.69432  0.25723  1.0000
  C   C766      1.0  0.46792  0.86530  0.26667  1.0000
  H   H1228     1.0  0.19901  0.93491  0.43725  1.0000
  H   H1229     1.0  0.08667  0.83059  0.44381  1.0000
  S   S310      1.0  0.16872  0.84726  0.46608  1.0000
  Fe  Fe155     1.0  0.31374  0.92271  0.47489  1.0000
  H   H1230     1.0  0.14002  0.81045  0.46268  1.0000
  H   H1231     1.0  0.39512  0.83819  0.33578  1.0000
  C   C767      1.0  0.34907  0.75125  0.42616  1.0000
  H   H1232     1.0  0.48209  0.87075  0.29022  1.0000
  C   C768      1.0  0.43499  0.98193  0.45051  1.0000
  Fe  Fe156     1.0  0.29881  0.97022  0.45393  1.0000
  H   H1233     1.0  0.22389  0.90622  0.23831  1.0000
  H   H1234     1.0  0.32887  0.93576  0.41413  1.0000
  H   H1235     1.0  0.15157  0.81917  0.42250  1.0000
  H   H1236     1.0  0.09943  0.79879  0.45051  1.0000
  S   S311      1.0  0.35393  0.92630  0.47059  1.0000
  H   H1237     1.0  0.11936  0.82799  0.42110  1.0000
  H   H1238     1.0  0.31164  0.88821  0.43252  1.0000
  C   C769      1.0  0.02915  0.86284  0.47318  1.0000
  H   H1239     1.0  0.36248  0.87807  0.40110  1.0000
  H   H1240     1.0  0.16472  0.94498  0.45792  1.0000
  C   C770      1.0  0.35338  0.89780  0.40104  1.0000
  C   C771      1.0  0.14582  0.96690  0.23985  1.0000
  C   C772      1.0  0.33478  0.90724  0.23427  1.0000
  H   H1241     1.0  0.48128  0.83994  0.39005  1.0000
  C   C773      1.0  0.33398  0.92289  0.28664  1.0000
  Fe  Fe157     1.0  0.43210  0.82854  0.35448  1.0000
  C   C774      1.0  0.39982  0.82851  0.32694  1.0000
  H   H1242     1.0  0.38564  0.77748  0.41874  1.0000
  H   H1243     1.0  0.34788  0.76224  0.43451  1.0000
  H   H1244     1.0  0.06622  0.95946  0.25824  1.0000
  H   H1245     1.0  0.46499  0.90220  0.37793  1.0000
  H   H1246     1.0  0.29109  0.90597  0.27349  1.0000
  H   H1247     1.0  0.39719  0.74797  0.41338  1.0000
  C   C775      1.0  0.45025  0.94898  0.43685  1.0000
  H   H1248     1.0  0.46481  0.81156  0.29100  1.0000
  H   H1249     1.0  0.17469  0.97292  0.45710  1.0000
  C   C776      1.0  0.34002  0.70259  0.23705  1.0000
  H   H1250     1.0  0.44538  0.93622  0.43126  1.0000
  H   H1251     1.0  0.36944  0.66015  0.46176  1.0000
  H   H1252     1.0  0.46630  0.88505  0.26705  1.0000
  C   C777      1.0  0.31513  0.67451  0.23552  1.0000
  H   H1253     1.0  0.33718  0.94575  0.22912  1.0000
  H   H1254     1.0  0.20905  0.96292  0.43683  1.0000
  H   H1255     1.0  0.48085  0.84002  0.30031  1.0000
  H   H1256     1.0  0.27128  0.89737  0.47138  1.0000
  C   C778      1.0  0.30294  0.69741  0.25502  1.0000
  C   C779      1.0  0.43920  0.85883  0.28948  1.0000
  H   H1257     1.0  0.25809  0.96842  0.40695  1.0000
  H   H1258     1.0  0.48452  0.84881  0.41250  1.0000
  C   C780      1.0  0.49109  0.90021  0.35788  1.0000
  C   C781      1.0  0.99611  0.93415  0.41853  1.0000
  H   H1259     1.0  0.44530  0.97137  0.45928  1.0000
  H   H1260     1.0  0.99678  0.98115  0.41885  1.0000
  C   C782      1.0  0.00100  0.95789  0.23874  1.0000
  H   H1261     1.0  0.20408  0.94969  0.23723  1.0000
  C   C783      1.0  0.48733  0.84639  0.23166  1.0000
  C   C784      1.0  0.07181  0.86271  0.47487  1.0000
  C   C785      1.0  0.05993  0.97946  0.23097  1.0000
  H   H1262     1.0  0.28036  0.71559  0.23187  1.0000
  C   C786      1.0  0.48322  0.85140  0.28914  1.0000
  H   H1263     1.0  0.14319  0.97378  0.45594  1.0000
  Fe  Fe158     1.0  0.13224  0.86637  0.47746  1.0000
  S   S312      1.0  0.41164  0.83118  0.22819  1.0000
  S   S313      1.0  0.20168  0.98527  0.26465  1.0000
  H   H1264     1.0  0.16239  0.98454  0.25148  1.0000
  C   C787      1.0  0.43670  0.73376  0.69612  1.0000
  S   S314      1.0  0.14999  0.87255  0.49446  1.0000
  S   S315      1.0  0.14995  0.93950  0.49193  1.0000
  C   C788      1.0  0.41803  0.96379  0.48958  1.0000
  H   H1265     1.0  0.10135  0.91503  0.64183  1.0000
  S   S316      1.0  0.21767  0.83564  0.49267  1.0000
  H   H1266     1.0  0.26606  0.95969  0.51304  1.0000
  C   C789      1.0  0.34021  0.73900  0.60741  1.0000
  H   H1267     1.0  0.41804  0.91774  0.68772  1.0000
  C   C790      1.0  0.33980  0.78137  0.71717  1.0000
  C   C791      1.0  0.25838  0.96208  0.58637  1.0000
  H   H1268     1.0  0.32671  0.75378  0.60191  1.0000
  H   H1269     1.0  0.28217  0.92077  0.53905  1.0000
  S   S317      1.0  0.18507  0.94439  0.56698  1.0000
  C   C792      1.0  0.26741  0.93970  0.51343  1.0000
  S   S318      1.0  0.18875  0.93075  0.60157  1.0000
  H   H1270     1.0  0.15979  0.68524  0.69145  1.0000
  S   S319      1.0  0.19657  0.86329  0.62089  1.0000
  H   H1271     1.0  0.18828  0.66868  0.72368  1.0000
  C   C793      1.0  0.27424  0.86259  0.62805  1.0000
  C   C794      1.0  0.47646  0.92002  0.70059  1.0000
  H   H1272     1.0  0.35084  0.69852  0.62812  1.0000
  N   N83       1.0  0.43130  0.74960  0.70705  1.0000
  H   H1273     1.0  0.20911  0.87987  0.51889  1.0000
  Fe  Fe159     1.0  0.32276  0.75443  0.67202  1.0000
  S   S320      1.0  0.28358  0.77115  0.66878  1.0000
  S   S321      1.0  0.35016  0.77565  0.67478  1.0000
  Fe  Fe160     1.0  0.32180  0.70592  0.66344  1.0000
  S   S322      1.0  0.28289  0.71878  0.65934  1.0000
  H   H1274     1.0  0.43646  0.71411  0.70135  1.0000
  Fe  Fe161     1.0  0.29433  0.75503  0.64858  1.0000
  S   S323      1.0  0.28843  0.77414  0.62597  1.0000
  Fe  Fe162     1.0  0.27530  0.73349  0.67989  1.0000
  S   S324      1.0  0.24181  0.72769  0.69762  1.0000
  S   S325      1.0  0.33403  0.74077  0.65094  1.0000
  S   S326      1.0  0.31368  0.71813  0.68484  1.0000
  C   C795      1.0  0.33723  0.77511  0.70440  1.0000
  C   C796      1.0  0.35115  0.78422  0.69103  1.0000
  C   C797      1.0  0.36726  0.79992  0.69052  1.0000
  C   C798      1.0  0.36978  0.80620  0.70326  1.0000
  H   H1275     1.0  0.37790  0.80722  0.68019  1.0000
  H   H1276     1.0  0.38223  0.81830  0.70270  1.0000
  C   C799      1.0  0.22819  0.70211  0.69926  1.0000
  Fe  Fe163     1.0  0.19350  0.89097  0.60003  1.0000
  C   C800      1.0  0.16511  0.92517  0.53269  1.0000
  H   H1277     1.0  0.42252  0.95399  0.64999  1.0000
  H   H1278     1.0  0.16018  0.70854  0.67522  1.0000
  C   C801      1.0  0.23416  0.68835  0.68825  1.0000
  H   H1279     1.0  0.04327  0.96807  0.60071  1.0000
  H   H1280     1.0  0.24673  0.69377  0.67834  1.0000
  H   H1281     1.0  0.02619  0.90982  0.59874  1.0000
  H   H1282     1.0  0.35916  0.73994  0.60092  1.0000
  H   H1283     1.0  0.26101  0.94983  0.54015  1.0000
  H   H1284     1.0  0.28168  0.67789  0.70238  1.0000
  S   S327      1.0  0.09827  0.84873  0.48294  1.0000
  N   N84       1.0  0.25277  0.92812  0.52702  1.0000
  H   H1285     1.0  0.32219  0.72257  0.58884  1.0000
  S   S328      1.0  0.99930  0.97499  0.68042  1.0000
  H   H1286     1.0  0.18006  0.70690  0.68755  1.0000
  H   H1287     1.0  0.20679  0.70561  0.72056  1.0000
  C   C802      1.0  0.45709  0.90761  0.70811  1.0000
  S   S329      1.0  0.12223  0.96352  0.59285  1.0000
  H   H1288     1.0  0.42997  0.97858  0.66606  1.0000
  C   C803      1.0  0.22215  0.83854  0.62197  1.0000
  C   C804      1.0  0.22545  0.82437  0.63563  1.0000
  C   C805      1.0  0.24579  0.80466  0.63696  1.0000
  C   C806      1.0  0.26287  0.79889  0.62461  1.0000
  C   C807      1.0  0.25959  0.81304  0.61093  1.0000
  C   C808      1.0  0.23933  0.83292  0.60961  1.0000
  H   H1289     1.0  0.21217  0.82862  0.64523  1.0000
  H   H1290     1.0  0.24806  0.79378  0.64754  1.0000
  H   H1291     1.0  0.27271  0.80860  0.60133  1.0000
  H   H1292     1.0  0.23683  0.84363  0.59903  1.0000
  Fe  Fe164     1.0  0.15905  0.93742  0.58846  1.0000
  C   C809      1.0  0.33558  0.70869  0.59490  1.0000
  H   H1293     1.0  0.99791  0.97580  0.60045  1.0000
  H   H1294     1.0  0.23528  0.91637  0.61767  1.0000
  C   C810      1.0  0.10406  0.95744  0.61030  1.0000
  H   H1295     1.0  0.34886  0.67655  0.61798  1.0000
  S   S330      1.0  0.05442  0.94104  0.65494  1.0000
  H   H1296     1.0  0.30722  0.71812  0.62879  1.0000
  C   C811      1.0  0.43081  0.94666  0.71239  1.0000
  N   N85       1.0  0.33421  0.71436  0.60926  1.0000
  C   C812      1.0  0.35218  0.69548  0.61695  1.0000
  C   C813      1.0  0.40641  0.74817  0.71606  1.0000
  H   H1297     1.0  0.26351  0.92246  0.63196  1.0000
  H   H1298     1.0  0.25542  0.89626  0.64533  1.0000
  H   H1299     1.0  0.03621  0.90308  0.61585  1.0000
  C   C814      1.0  0.27232  0.85797  0.50382  1.0000
  C   C815      1.0  0.25382  0.84537  0.50376  1.0000
  C   C816      1.0  0.43415  0.92094  0.71392  1.0000
  H   H1300     1.0  0.29327  0.85698  0.63058  1.0000
  H   H1301     1.0  0.28183  0.85296  0.51289  1.0000
  H   H1302     1.0  0.24910  0.83086  0.51281  1.0000
  H   H1303     1.0  0.45978  0.88779  0.70919  1.0000
  H   H1304     1.0  0.00367  0.90869  0.61539  1.0000
  C   C817      1.0  0.16406  0.92712  0.50729  1.0000
  C   C818      1.0  0.18371  0.90674  0.50698  1.0000
  C   C819      1.0  0.19385  0.89555  0.51940  1.0000
  C   C820      1.0  0.15519  0.93673  0.52009  1.0000
  H   H1305     1.0  0.19114  0.89941  0.49715  1.0000
  H   H1306     1.0  0.00018  0.86554  0.69622  1.0000
  H   H1307     1.0  0.22415  0.96069  0.52849  1.0000
  H   H1308     1.0  0.45031  0.72174  0.72224  1.0000
  C   C821      1.0  0.25259  0.96813  0.61108  1.0000
  C   C822      1.0  0.31786  0.65863  0.64423  1.0000
  S   S331      1.0  0.47925  0.79098  0.71135  1.0000
  Fe  Fe165     1.0  0.15452  0.90874  0.47994  1.0000
  C   C823      1.0  0.06635  0.96896  0.62764  1.0000
  H   H1309     1.0  0.22580  0.95698  0.60264  1.0000
  H   H1310     1.0  0.41329  0.97026  0.52635  1.0000
  C   C824      1.0  0.02157  0.91448  0.60975  1.0000
  H   H1311     1.0  0.27388  0.85282  0.61941  1.0000
  H   H1312     1.0  0.39180  0.75378  0.70929  1.0000
  C   C825      1.0  0.20086  0.67425  0.71374  1.0000
  C   C826      1.0  0.24130  0.85158  0.49213  1.0000
  H   H1313     1.0  0.10163  0.73173  0.69932  1.0000
  H   H1314     1.0  0.28743  0.93069  0.51219  1.0000
  H   H1315     1.0  0.33934  0.74376  0.61809  1.0000
  H   H1316     1.0  0.16343  0.75014  0.68989  1.0000
  C   C827      1.0  0.01359  0.94639  0.62378  1.0000
  C   C828      1.0  0.26845  0.90196  0.63513  1.0000
  H   H1317     1.0  0.27459  0.89191  0.52516  1.0000
  N   N86       1.0  0.15853  0.83614  0.53733  1.0000
  C   C829      1.0  0.15936  0.82312  0.55243  1.0000
  C   C830      1.0  0.18414  0.83688  0.52925  1.0000
  C   C831      1.0  0.14420  0.86163  0.53736  1.0000
  C   C832      1.0  0.14653  0.82292  0.53031  1.0000
  H   H1318     1.0  0.14036  0.82220  0.55888  1.0000
  H   H1319     1.0  0.16832  0.83278  0.55798  1.0000
  H   H1320     1.0  0.17022  0.80390  0.55282  1.0000
  H   H1321     1.0  0.19512  0.81813  0.52808  1.0000
  H   H1322     1.0  0.18421  0.84801  0.51809  1.0000
  H   H1323     1.0  0.19433  0.84526  0.53476  1.0000
  H   H1324     1.0  0.14451  0.87263  0.52615  1.0000
  H   H1325     1.0  0.15196  0.87162  0.54330  1.0000
  H   H1326     1.0  0.12442  0.86184  0.54267  1.0000
  H   H1327     1.0  0.15684  0.80362  0.53013  1.0000
  H   H1328     1.0  0.14592  0.83216  0.51885  1.0000
  H   H1329     1.0  0.12706  0.82220  0.53599  1.0000
  H   H1330     1.0  0.24490  0.89208  0.53711  1.0000
  H   H1331     1.0  0.24679  0.89956  0.51783  1.0000
  H   H1332     1.0  0.35451  0.70854  0.58814  1.0000
  H   H1333     1.0  0.24010  0.88777  0.61165  1.0000
  C   C833      1.0  0.22645  0.94077  0.52826  1.0000
  H   H1334     1.0  0.42895  0.94553  0.49249  1.0000
  C   C834      1.0  0.24159  0.89608  0.62068  1.0000
  H   H1335     1.0  0.46919  0.74210  0.70992  1.0000
  H   H1336     1.0  0.22809  0.88928  0.63037  1.0000
  H   H1337     1.0  0.00435  0.95250  0.58952  1.0000
  H   H1338     1.0  0.33109  0.69018  0.59597  1.0000
  S   S332      1.0  0.45719  0.98105  0.49293  1.0000
  H   H1339     1.0  0.13047  0.76095  0.69464  1.0000
  H   H1340     1.0  0.14003  0.95254  0.52042  1.0000
  C   C835      1.0  0.25485  0.90176  0.52680  1.0000
  N   N87       1.0  0.40700  0.95113  0.67274  1.0000
  H   H1341     1.0  0.05916  0.93761  0.60744  1.0000
  C   C836      1.0  0.45025  0.95906  0.70497  1.0000
  H   H1342     1.0  0.08559  0.96424  0.66864  1.0000
  H   H1343     1.0  0.40133  0.76061  0.72411  1.0000
  H   H1344     1.0  0.12832  0.92349  0.61762  1.0000
  N   N88       1.0  0.01986  0.94113  0.60895  1.0000
  H   H1345     1.0  0.26119  0.85550  0.63790  1.0000
  H   H1346     1.0  0.28749  0.89744  0.63761  1.0000
  S   S333      1.0  0.30128  0.89274  0.49319  1.0000
  H   H1347     1.0  0.15750  0.93205  0.54268  1.0000
  Fe  Fe166     1.0  0.01493  0.96211  0.65926  1.0000
  H   H1348     1.0  0.37036  0.96039  0.66769  1.0000
  N   N89       1.0  0.14158  0.72193  0.69484  1.0000
  C   C837      1.0  0.11693  0.71942  0.69327  1.0000
  C   C838      1.0  0.16123  0.70492  0.68691  1.0000
  H   H1349     1.0  0.38640  0.95031  0.48779  1.0000
  H   H1350     1.0  0.37491  0.97765  0.67993  1.0000
  C   C839      1.0  0.27853  0.87695  0.49225  1.0000
  C   C840      1.0  0.14324  0.71575  0.71036  1.0000
  C   C841      1.0  0.08177  0.97388  0.61402  1.0000
  H   H1351     1.0  0.11489  0.72403  0.68171  1.0000
  H   H1352     1.0  0.26090  0.93786  0.50378  1.0000
  H   H1353     1.0  0.21846  0.93941  0.51904  1.0000
  S   S334      1.0  0.24889  0.95190  0.57305  1.0000
  C   C842      1.0  0.05018  0.85264  0.47969  1.0000
  C   C843      1.0  0.42492  0.96388  0.67545  1.0000
  H   H1354     1.0  0.12805  0.72756  0.71680  1.0000
  H   H1355     1.0  0.16122  0.71833  0.71201  1.0000
  C   C844      1.0  0.18413  0.90417  0.53242  1.0000
  C   C845      1.0  0.45019  0.74113  0.71639  1.0000
  H   H1356     1.0  0.32472  0.76306  0.70492  1.0000
  C   C846      1.0  0.07212  0.97441  0.67672  1.0000
  H   H1357     1.0  0.25160  0.92168  0.54999  1.0000
  C   C847      1.0  0.00020  0.95561  0.60086  1.0000
  H   H1358     1.0  0.29481  0.72885  0.61255  1.0000
  H   H1359     1.0  0.42711  0.78802  0.70753  1.0000
  C   C848      1.0  0.28445  0.89809  0.61013  1.0000
  C   C849      1.0  0.20731  0.66023  0.70283  1.0000
  C   C850      1.0  0.11112  0.93626  0.62039  1.0000
  H   H1360     1.0  0.41713  0.97285  0.68505  1.0000
  C   C851      1.0  0.09580  0.93149  0.63409  1.0000
  H   H1361     1.0  0.14387  0.75295  0.67715  1.0000
  H   H1362     1.0  0.27990  0.91850  0.60654  1.0000
  C   C852      1.0  0.07328  0.94771  0.63771  1.0000
  S   S335      1.0  0.16167  0.89736  0.58844  1.0000
  H   H1363     1.0  0.37164  0.69569  0.61112  1.0000
  H   H1364     1.0  0.28558  0.65496  0.71843  1.0000
  S   S336      1.0  0.19507  0.88688  0.54821  1.0000
  H   H1365     1.0  0.49406  0.90964  0.69594  1.0000
  C   C853      1.0  0.26238  0.93019  0.53956  1.0000
  H   H1366     1.0  0.39293  0.93952  0.69548  1.0000
  H   H1367     1.0  0.04959  0.83697  0.48857  1.0000
  C   C854      1.0  0.22386  0.66741  0.69007  1.0000
  N   N90       1.0  0.26720  0.88968  0.62350  1.0000
  H   H1368     1.0  0.22860  0.65678  0.68153  1.0000
  Fe  Fe167     1.0  0.18673  0.85825  0.48131  1.0000
  C   C855      1.0  0.21138  0.69510  0.71196  1.0000
  H   H1369     1.0  0.28351  0.88969  0.60101  1.0000
  H   H1370     1.0  0.30400  0.89326  0.61179  1.0000
  S   S337      1.0  0.34624  0.66869  0.66091  1.0000
  Fe  Fe168     1.0  0.19002  0.90380  0.56796  1.0000
  C   C856      1.0  0.30879  0.71429  0.61781  1.0000
  C   C857      1.0  0.24381  0.96191  0.60024  1.0000
  H   H1371     1.0  0.30773  0.98178  0.59154  1.0000
  C   C858      1.0  0.40110  0.93168  0.68547  1.0000
  H   H1372     1.0  0.40496  0.93004  0.65742  1.0000
  Fe  Fe169     1.0  0.21517  0.93399  0.58017  1.0000
  C   C859      1.0  0.35628  0.79671  0.71667  1.0000
  H   H1373     1.0  0.30334  0.69621  0.61918  1.0000
  S   S338      1.0  0.22223  0.89363  0.57961  1.0000
  C   C860      1.0  0.27571  0.97518  0.60802  1.0000
  H   H1374     1.0  0.45532  0.73457  0.68910  1.0000
  C   C861      1.0  0.38402  0.96918  0.67025  1.0000
  C   C862      1.0  0.24799  0.87013  0.48034  1.0000
  H   H1375     1.0  0.38757  0.92164  0.68390  1.0000
  H   H1376     1.0  0.38795  0.98446  0.66095  1.0000
  H   H1377     1.0  0.35764  0.98284  0.53904  1.0000
  H   H1378     1.0  0.30382  0.67392  0.64753  1.0000
  H   H1379     1.0  0.41828  0.98307  0.54807  1.0000
  C   C863      1.0  0.37146  0.98438  0.54515  1.0000
  S   S339      1.0  0.40873  0.90633  0.72207  1.0000
  H   H1380     1.0  0.07997  0.97029  0.68675  1.0000
  S   S340      1.0  0.41632  0.83902  0.71418  1.0000
  C   C864      1.0  0.04396  0.94804  0.60151  1.0000
  H   H1381     1.0  0.43548  0.92617  0.66130  1.0000
  C   C865      1.0  0.41801  0.93979  0.65981  1.0000
  H   H1382     1.0  0.21495  0.93245  0.53842  1.0000
  H   H1383     1.0  0.44751  0.97889  0.70380  1.0000
  H   H1384     1.0  0.40539  0.72912  0.72218  1.0000
  H   H1385     1.0  0.24135  0.96766  0.62185  1.0000
  H   H1386     1.0  0.11378  0.70025  0.69770  1.0000
  H   H1387     1.0  0.32683  0.66326  0.69271  1.0000
  H   H1388     1.0  0.42268  0.73972  0.68893  1.0000
  C   C866      1.0  0.28130  0.96962  0.58320  1.0000
  H   H1389     1.0  0.41308  0.95703  0.71691  1.0000
  H   H1390     1.0  0.14163  0.69620  0.71510  1.0000
  C   C867      1.0  0.14497  0.74764  0.68886  1.0000
  H   H1391     1.0  0.02790  0.93582  0.63033  1.0000
  C   C868      1.0  0.39403  0.96647  0.48691  1.0000
  H   H1392     1.0  0.44245  0.95078  0.67750  1.0000
  H   H1393     1.0  0.38141  0.96536  0.54903  1.0000
  H   H1394     1.0  0.99538  0.94156  0.62960  1.0000
  C   C869      1.0  0.42777  0.98469  0.48875  1.0000
  H   H1395     1.0  0.04944  0.94422  0.59030  1.0000
  C   C870      1.0  0.47302  0.94577  0.69889  1.0000
  H   H1396     1.0  0.05507  0.96636  0.67942  1.0000
  C   C871      1.0  0.43192  0.77542  0.69961  1.0000
  H   H1397     1.0  0.29415  0.66662  0.67848  1.0000
  H   H1398     1.0  0.04927  0.98176  0.63031  1.0000
  C   C872      1.0  0.28990  0.97631  0.59398  1.0000
  H   H1399     1.0  0.45073  0.77742  0.69318  1.0000
  S   S341      1.0  0.28702  0.98076  0.62218  1.0000
  H   H1400     1.0  0.41854  0.78221  0.69208  1.0000
  H   H1401     1.0  0.26170  0.65578  0.70887  1.0000
  C   C873      1.0  0.28119  0.65817  0.70742  1.0000
  H   H1402     1.0  0.29256  0.97000  0.57245  1.0000
  H   H1403     1.0  0.44678  0.75297  0.72462  1.0000
  H   H1404     1.0  0.01202  0.96636  0.62359  1.0000
  C   C874      1.0  0.26641  0.88297  0.48044  1.0000
  Fe  Fe170     1.0  0.44840  0.81516  0.72404  1.0000
  H   H1405     1.0  0.48082  0.65337  0.51710  1.0000
  H   H1406     1.0  0.32921  0.77403  0.72751  1.0000
  S   S342      1.0  0.29905  0.96192  0.47770  1.0000
  C   C875      1.0  0.43845  0.94185  0.86715  1.0000
  Fe  Fe171     1.0  0.44313  0.88315  0.85596  1.0000
  S   S343      1.0  0.40238  0.89837  0.85749  1.0000
  S   S344      1.0  0.46927  0.91024  0.84963  1.0000
  Fe  Fe172     1.0  0.43503  0.82929  0.86263  1.0000
  S   S345      1.0  0.39394  0.84177  0.86417  1.0000
  S   S346      1.0  0.44727  0.78776  0.86637  1.0000
  Fe  Fe173     1.0  0.40373  0.86991  0.84441  1.0000
  S   S347      1.0  0.38621  0.87806  0.82463  1.0000
  Fe  Fe174     1.0  0.39826  0.86790  0.87701  1.0000
  S   S348      1.0  0.37538  0.87137  0.89911  1.0000
  S   S349      1.0  0.44476  0.85604  0.84192  1.0000
  S   S350      1.0  0.43910  0.85439  0.87633  1.0000
  H   H1407     1.0  0.47363  0.73569  0.79899  1.0000
  H   H1408     1.0  0.41915  0.73049  0.91708  1.0000
  H   H1409     1.0  0.47077  0.92902  0.81665  1.0000
  Fe  Fe175     1.0  0.33529  0.71474  0.89451  1.0000
  S   S351      1.0  0.34587  0.69806  0.91629  1.0000
  S   S352      1.0  0.34829  0.74815  0.87954  1.0000
  C   C876      1.0  0.43310  0.72644  0.90726  1.0000
  Fe  Fe176     1.0  0.30483  0.69911  0.92417  1.0000
  S   S353      1.0  0.28009  0.70987  0.94461  1.0000
  S   S354      1.0  0.33820  0.67878  0.88771  1.0000
  S   S355      1.0  0.29426  0.71862  0.90301  1.0000
  C   C877      1.0  0.43344  0.67307  0.97318  1.0000
  H   H1410     1.0  0.47103  0.69859  0.91995  1.0000
  Fe  Fe177     1.0  0.17515  0.84597  0.97484  1.0000
  H   H1411     1.0  0.15419  0.71876  0.89096  1.0000
  S   S356      1.0  0.19546  0.93116  0.96402  1.0000
  H   H1412     1.0  0.06923  0.69711  0.76576  1.0000
  H   H1413     1.0  0.40106  0.79518  0.83123  1.0000
  N   N91       1.0  0.47661  0.89320  0.89940  1.0000
  S   S357      1.0  0.26512  0.82121  0.95140  1.0000
  H   H1414     1.0  0.39198  0.79027  0.85061  1.0000
  S   S358      1.0  0.20026  0.86486  0.95616  1.0000
  H   H1415     1.0  0.47041  0.76569  0.90678  1.0000
  H   H1416     1.0  0.10360  0.71135  0.88769  1.0000
  S   S359      1.0  0.45290  0.83903  0.94086  1.0000
  S   S360      1.0  0.07274  0.75531  0.89907  1.0000
  Fe  Fe178     1.0  0.08525  0.73409  0.91986  1.0000
  S   S361      1.0  0.07550  0.74378  0.94203  1.0000
  Fe  Fe179     1.0  0.11783  0.68449  0.92976  1.0000
  S   S362      1.0  0.10973  0.68947  0.95284  1.0000
  H   H1417     1.0  0.49141  0.86363  0.88749  1.0000
  Fe  Fe180     1.0  0.07040  0.70425  0.94954  1.0000
  H   H1418     1.0  0.19162  0.68252  0.94603  1.0000
  Fe  Fe181     1.0  0.11575  0.72817  0.94344  1.0000
  S   S363      1.0  0.14657  0.73880  0.95056  1.0000
  S   S364      1.0  0.07794  0.69556  0.92721  1.0000
  S   S365      1.0  0.12579  0.72230  0.92049  1.0000
  C   C878      1.0  0.38724  0.80220  0.84036  1.0000
  C   C879      1.0  0.45062  0.89158  0.90010  1.0000
  H   H1419     1.0  0.10210  0.81637  0.96679  1.0000
  C   C880      1.0  0.00688  0.79502  0.91607  1.0000
  H   H1420     1.0  0.42510  0.93903  0.82246  1.0000
  S   S366      1.0  0.38978  0.84746  0.74749  1.0000
  N   N92       1.0  0.21413  0.70116  0.92744  1.0000
  C   C881      1.0  0.00646  0.71474  0.75267  1.0000
  S   S367      1.0  0.42469  0.79435  0.74239  1.0000
  C   C882      1.0  0.04233  0.72871  0.73636  1.0000
  H   H1421     1.0  0.46422  0.77120  0.76218  1.0000
  H   H1422     1.0  0.05098  0.74366  0.72964  1.0000
  Fe  Fe182     1.0  0.42428  0.82350  0.75462  1.0000
  S   S368      1.0  0.43288  0.81057  0.77729  1.0000
  H   H1423     1.0  0.37557  0.66065  0.96194  1.0000
  S   S369      1.0  0.45085  0.84244  0.73683  1.0000
  C   C883      1.0  0.19149  0.97643  0.97075  1.0000
  H   H1424     1.0  0.47240  0.93074  0.88768  1.0000
  C   C884      1.0  0.46948  0.91327  0.81201  1.0000
  H   H1425     1.0  0.43787  0.89942  0.90930  1.0000
  C   C885      1.0  0.14150  0.81022  0.96618  1.0000
  Fe  Fe183     1.0  0.29790  0.68087  0.89834  1.0000
  H   H1426     1.0  0.24511  0.73809  0.96432  1.0000
  H   H1427     1.0  0.19213  0.67404  0.92914  1.0000
  C   C886      1.0  0.01763  0.73389  0.74374  1.0000
  C   C887      1.0  0.14866  0.72330  0.88017  1.0000
  H   H1428     1.0  0.21346  0.69642  0.90615  1.0000
  H   H1429     1.0  0.32872  0.67430  0.94876  1.0000
  C   C888      1.0  0.44532  0.89670  0.80043  1.0000
  H   H1430     1.0  0.23014  0.71939  0.90637  1.0000
  H   H1431     1.0  0.28130  0.89525  0.94102  1.0000
  C   C889      1.0  0.08851  0.69018  0.76783  1.0000
  H   H1432     1.0  0.45456  0.72891  0.78849  1.0000
  C   C890      1.0  0.00604  0.79606  0.89102  1.0000
  C   C891      1.0  0.00300  0.73233  0.93882  1.0000
  H   H1433     1.0  0.03094  0.72321  0.91356  1.0000
  H   H1434     1.0  0.45361  0.76036  0.78934  1.0000
  C   C892      1.0  0.34416  0.81104  0.85184  1.0000
  H   H1435     1.0  0.09439  0.70555  0.77061  1.0000
  H   H1436     1.0  0.04064  0.77523  0.92349  1.0000
  C   C893      1.0  0.36750  0.68051  0.95838  1.0000
  C   C894      1.0  0.04443  0.68516  0.74636  1.0000
  H   H1437     1.0  0.46132  0.89261  0.79152  1.0000
  H   H1438     1.0  0.34082  0.72510  0.96258  1.0000
  H   H1439     1.0  0.34567  0.82993  0.85249  1.0000
  H   H1440     1.0  0.37849  0.69145  0.96163  1.0000
  C   C895      1.0  0.11985  0.80421  0.96435  1.0000
  H   H1441     1.0  0.44502  0.77141  0.89756  1.0000
  H   H1442     1.0  0.36928  0.81411  0.81596  1.0000
  N   N93       1.0  0.08999  0.66800  0.77948  1.0000
  H   H1443     1.0  0.23818  0.66697  0.92319  1.0000
  C   C896      1.0  0.21350  0.71120  0.91194  1.0000
  Fe  Fe184     1.0  0.48337  0.74959  0.96037  1.0000
  H   H1444     1.0  0.01128  0.67550  0.76080  1.0000
  C   C897      1.0  0.12109  0.78254  0.95931  1.0000
  C   C898      1.0  0.14399  0.76667  0.95629  1.0000
  C   C899      1.0  0.16557  0.77264  0.95821  1.0000
  S   S370      1.0  0.30626  0.66139  0.92022  1.0000
  H   H1445     1.0  0.18117  0.79894  0.96433  1.0000
  H   H1446     1.0  0.10437  0.77803  0.95790  1.0000
  H   H1447     1.0  0.18334  0.76042  0.95592  1.0000
  H   H1448     1.0  0.00735  0.75274  0.74266  1.0000
  C   C900      1.0  0.27497  0.74125  0.94581  1.0000
  C   C901      1.0  0.28975  0.75704  0.93629  1.0000
  C   C902      1.0  0.28645  0.78156  0.93807  1.0000
  C   C903      1.0  0.26807  0.79057  0.94919  1.0000
  C   C904      1.0  0.25299  0.77487  0.95852  1.0000
  C   C905      1.0  0.25658  0.75022  0.95691  1.0000
  H   H1449     1.0  0.30396  0.75030  0.92768  1.0000
  H   H1450     1.0  0.29814  0.79359  0.93078  1.0000
  H   H1451     1.0  0.99785  0.80007  0.92644  1.0000
  H   H1452     1.0  0.45400  0.72218  0.93013  1.0000
  H   H1453     1.0  0.16464  0.72919  0.87195  1.0000
  H   H1454     1.0  0.02337  0.72953  0.93832  1.0000
  C   C906      1.0  0.46616  0.74204  0.78877  1.0000
  H   H1455     1.0  0.03958  0.77725  0.87893  1.0000
  Fe  Fe185     1.0  0.39255  0.81991  0.73351  1.0000
  H   H1456     1.0  0.34801  0.79858  0.86218  1.0000
  H   H1457     1.0  0.13032  0.69229  0.85974  1.0000
  H   H1458     1.0  0.23885  0.78157  0.96714  1.0000
  C   C907      1.0  0.39487  0.85987  0.91196  1.0000
  C   C908      1.0  0.39346  0.87352  0.92251  1.0000
  C   C909      1.0  0.41086  0.86632  0.93169  1.0000
  C   C910      1.0  0.42954  0.84521  0.93055  1.0000
  C   C911      1.0  0.43026  0.83077  0.92049  1.0000
  C   C912      1.0  0.41291  0.83814  0.91119  1.0000
  H   H1459     1.0  0.37964  0.89032  0.92317  1.0000
  H   H1460     1.0  0.41024  0.87750  0.93946  1.0000
  H   H1461     1.0  0.44467  0.81449  0.91953  1.0000
  H   H1462     1.0  0.41375  0.82720  0.90325  1.0000
  C   C913      1.0  0.42133  0.77334  0.87265  1.0000
  C   C914      1.0  0.40037  0.78377  0.88184  1.0000
  C   C915      1.0  0.37841  0.77447  0.88507  1.0000
  C   C916      1.0  0.37747  0.75415  0.87951  1.0000
  C   C917      1.0  0.39901  0.74251  0.87120  1.0000
  C   C918      1.0  0.42096  0.75201  0.86784  1.0000
  H   H1463     1.0  0.40082  0.79953  0.88617  1.0000
  H   H1464     1.0  0.36179  0.78375  0.89135  1.0000
  H   H1465     1.0  0.39830  0.72710  0.86662  1.0000
  H   H1466     1.0  0.43717  0.74370  0.86082  1.0000
  C   C919      1.0  0.39987  0.85975  0.81128  1.0000
  C   C920      1.0  0.41915  0.83941  0.81356  1.0000
  C   C921      1.0  0.42914  0.82455  0.80303  1.0000
  C   C922      1.0  0.42029  0.83017  0.79000  1.0000
  C   C923      1.0  0.40132  0.85077  0.78758  1.0000
  C   C924      1.0  0.39103  0.86541  0.79825  1.0000
  H   H1467     1.0  0.42619  0.83478  0.82352  1.0000
  H   H1468     1.0  0.44385  0.80868  0.80496  1.0000
  H   H1469     1.0  0.39435  0.85524  0.77758  1.0000
  H   H1470     1.0  0.37614  0.88113  0.79637  1.0000
  H   H1471     1.0  0.15184  0.71297  0.85392  1.0000
  C   C925      1.0  0.46046  0.93753  0.85703  1.0000
  C   C926      1.0  0.19222  0.68970  0.93423  1.0000
  C   C927      1.0  0.01052  0.72607  0.91418  1.0000
  H   H1472     1.0  0.42491  0.73689  0.89768  1.0000
  H   H1473     1.0  0.32456  0.81149  0.85137  1.0000
  H   H1474     1.0  0.17961  0.68450  0.86978  1.0000
  C   C928      1.0  0.47557  0.75215  0.76263  1.0000
  Fe  Fe186     1.0  0.47863  0.80181  0.94284  1.0000
  H   H1475     1.0  0.33226  0.71708  0.94774  1.0000
  H   H1476     1.0  0.41594  0.96552  0.88180  1.0000
  H   H1477     1.0  0.46564  0.68964  0.96314  1.0000
  Fe  Fe187     1.0  0.23108  0.83847  0.96612  1.0000
  C   C929      1.0  0.00106  0.66774  0.97498  1.0000
  N   N94       1.0  0.45689  0.73327  0.90699  1.0000
  H   H1478     1.0  0.43562  0.70643  0.90715  1.0000
  S   S371      1.0  0.26374  0.67677  0.89112  1.0000
  H   H1479     1.0  0.28665  0.86261  0.94771  1.0000
  H   H1480     1.0  0.31354  0.83402  0.93213  1.0000
  C   C930      1.0  0.02505  0.67014  0.96730  1.0000
  H   H1481     1.0  0.12368  0.69053  0.89902  1.0000
  H   H1482     1.0  0.42596  0.92898  0.87012  1.0000
  C   C931      1.0  0.00572  0.69174  0.93416  1.0000
  H   H1483     1.0  0.46759  0.73862  0.88374  1.0000
  C   C932      1.0  0.99894  0.86701  0.88872  1.0000
  H   H1484     1.0  0.38973  0.82105  0.84027  1.0000
  C   C933      1.0  0.44856  0.97979  0.86997  1.0000
  H   H1485     1.0  0.23039  0.73006  0.93011  1.0000
  H   H1486     1.0  0.47262  0.88506  0.92266  1.0000
  H   H1487     1.0  0.01883  0.86730  0.88388  1.0000
  H   H1488     1.0  0.42408  0.90683  0.82669  1.0000
  H   H1489     1.0  0.00266  0.68069  0.92688  1.0000
  C   C934      1.0  0.01990  0.69037  0.75396  1.0000
  C   C935      1.0  0.23708  0.68238  0.92878  1.0000
  C   C936      1.0  0.35578  0.81939  0.82571  1.0000
  H   H1490     1.0  0.19666  0.72577  0.91053  1.0000
  C   C937      1.0  0.29538  0.87784  0.94045  1.0000
  N   N95       1.0  0.99741  0.71854  0.92918  1.0000
  H   H1491     1.0  0.33218  0.89505  0.92005  1.0000
  C   C938      1.0  0.45270  0.75994  0.90713  1.0000
  H   H1492     1.0  0.16773  0.67532  0.88876  1.0000
  H   H1493     1.0  0.46608  0.92762  0.90702  1.0000
  C   C939      1.0  0.04297  0.77436  0.90107  1.0000
  H   H1494     1.0  0.17460  0.70324  0.93311  1.0000
  C   C940      1.0  0.47021  0.97591  0.85950  1.0000
  H   H1495     1.0  0.48957  0.78052  0.77630  1.0000
  N   N96       1.0  0.30366  0.87344  0.92542  1.0000
  C   C941      1.0  0.28202  0.87217  0.91968  1.0000
  C   C942      1.0  0.31542  0.89389  0.91624  1.0000
  C   C943      1.0  0.32184  0.84987  0.92528  1.0000
  H   H1496     1.0  0.17955  0.98335  0.96282  1.0000
  H   H1497     1.0  0.00749  0.71545  0.90666  1.0000
  H   H1498     1.0  0.44548  0.87983  0.80908  1.0000
  H   H1499     1.0  0.44729  0.95687  0.79816  1.0000
  H   H1500     1.0  0.32174  0.89123  0.90479  1.0000
  H   H1501     1.0  0.30238  0.91202  0.91621  1.0000
  H   H1502     1.0  0.48640  0.90976  0.80355  1.0000
  H   H1503     1.0  0.33852  0.85023  0.92944  1.0000
  H   H1504     1.0  0.32861  0.84602  0.91409  1.0000
  H   H1505     1.0  0.46340  0.73985  0.76200  1.0000
  H   H1506     1.0  0.07843  0.68895  0.79658  1.0000
  S   S372      1.0  0.47043  0.76715  0.93939  1.0000
  C   C944      1.0  0.43273  0.96267  0.87372  1.0000
  H   H1507     1.0  0.05358  0.68036  0.79142  1.0000
  C   C945      1.0  0.20210  0.95114  0.97352  1.0000
  H   H1508     1.0  0.36416  0.76391  0.84875  1.0000
  Fe  Fe188     1.0  0.34636  0.66208  0.91014  1.0000
  H   H1509     1.0  0.10064  0.68618  0.75743  1.0000
  S   S373      1.0  0.14896  0.65493  0.92174  1.0000
  C   C946      1.0  0.44822  0.69097  0.97083  1.0000
  S   S374      1.0  0.48871  0.78499  0.96463  1.0000
  C   C947      1.0  0.13566  0.70814  0.86238  1.0000
  H   H1510     1.0  0.33683  0.81947  0.82419  1.0000
  H   H1511     1.0  0.31123  0.87906  0.94506  1.0000
  C   C948      1.0  0.11973  0.69557  0.88783  1.0000
  S   S375      1.0  0.13927  0.83669  0.97327  1.0000
  C   C949      1.0  0.21379  0.72138  0.93477  1.0000
  C   C950      1.0  0.35926  0.77722  0.83887  1.0000
  H   H1512     1.0  0.01252  0.90724  0.89199  1.0000
  H   H1513     1.0  0.19694  0.73615  0.93376  1.0000
  H   H1514     1.0  0.47016  0.89679  0.82095  1.0000
  H   H1515     1.0  0.28761  0.86894  0.90834  1.0000
  H   H1516     1.0  0.44866  0.87208  0.90161  1.0000
  H   H1517     1.0  0.37044  0.68436  0.94633  1.0000
  H   H1518     1.0  0.42933  0.94449  0.78955  1.0000
  C   C951      1.0  0.05579  0.70435  0.73765  1.0000
  Fe  Fe189     1.0  0.20103  0.88945  0.97119  1.0000
  H   H1519     1.0  0.25387  0.69054  0.92375  1.0000
  H   H1520     1.0  0.42795  0.89970  0.79612  1.0000
  C   C952      1.0  0.16267  0.68052  0.87781  1.0000
  C   C953      1.0  0.46706  0.71878  0.91989  1.0000
  N   N97       1.0  0.14170  0.70188  0.87704  1.0000
  H   H1521     1.0  0.37179  0.77036  0.82930  1.0000
  C   C954      1.0  0.44646  0.94022  0.79424  1.0000
  C   C955      1.0  0.03112  0.78093  0.91442  1.0000
  H   H1522     1.0  0.11384  0.67958  0.88576  1.0000
  C   C956      1.0  0.47623  0.95473  0.85315  1.0000
  H   H1523     1.0  0.43906  0.65867  0.96684  1.0000
  N   N98       1.0  0.36158  0.80245  0.83919  1.0000
  C   C957      1.0  0.16438  0.79444  0.96301  1.0000
  H   H1524     1.0  0.33991  0.77650  0.83848  1.0000
  H   H1525     1.0  0.26775  0.88951  0.91980  1.0000
  H   H1526     1.0  0.05457  0.66635  0.74735  1.0000
  H   H1527     1.0  0.35658  0.83874  0.82584  1.0000
  H   H1528     1.0  0.27278  0.85681  0.92627  1.0000
  C   C958      1.0  0.03050  0.78226  0.88931  1.0000
  N   N99       1.0  0.44651  0.91833  0.80609  1.0000
  H   H1529     1.0  0.47854  0.70796  0.89316  1.0000
  H   H1530     1.0  0.43947  0.76482  0.91702  1.0000
  C   C959      1.0  0.47470  0.72791  0.89368  1.0000
  H   H1531     1.0  0.21377  0.71457  0.94656  1.0000
  C   C960      1.0  0.42470  0.92311  0.81771  1.0000
  H   H1532     1.0  0.40694  0.92696  0.81369  1.0000
  Fe  Fe190     1.0  0.10682  0.65890  0.72960  1.0000
  H   H1533     1.0  0.15795  0.66394  0.87565  1.0000
  C   C961      1.0  0.33081  0.71280  0.95973  1.0000
  S   S376      1.0  0.08715  0.69862  0.72892  1.0000
  H   H1534     1.0  0.00504  0.90723  0.86767  1.0000
  H   H1535     1.0  0.11986  0.72417  0.86146  1.0000
  S   S377      1.0  0.03527  0.69776  0.96565  1.0000
  H   H1536     1.0  0.13284  0.73943  0.88034  1.0000
  H   H1537     1.0  0.49281  0.73302  0.89310  1.0000
  C   C962      1.0  0.32722  0.67086  0.96074  1.0000
  H   H1538     1.0  0.23827  0.67443  0.94033  1.0000
  H   H1539     1.0  0.31076  0.71795  0.96456  1.0000
  C   C963      1.0  0.47826  0.91932  0.89782  1.0000
  C   C964      1.0  0.07322  0.67399  0.79296  1.0000
  H   H1540     1.0  0.02586  0.68708  0.93462  1.0000
  C   C965      1.0  0.11581  0.65971  0.78195  1.0000
  H   H1541     1.0  0.07383  0.65758  0.80195  1.0000
  H   H1542     1.0  0.99636  0.80166  0.88200  1.0000
  N   N100      1.0  0.34085  0.68645  0.96493  1.0000
  H   H1543     1.0  0.46267  0.93725  0.78525  1.0000
  H   H1544     1.0  0.12239  0.67433  0.78507  1.0000
  S   S378      1.0  0.36069  0.80239  0.73301  1.0000
  H   H1545     1.0  0.48438  0.85872  0.91418  1.0000
  H   H1546     1.0  0.30706  0.67473  0.96558  1.0000
  Fe  Fe191     1.0  0.41642  0.86466  0.72873  1.0000
  H   H1547     1.0  0.99558  0.68528  0.94526  1.0000
  H   H1548     1.0  0.00391  0.74599  0.90992  1.0000
  H   H1549     1.0  0.99795  0.85663  0.90010  1.0000
  H   H1550     1.0  0.99558  0.87171  0.74264  1.0000
  H   H1551     1.0  0.44392  0.90172  0.88999  1.0000
  C   C966      1.0  0.48487  0.87863  0.91286  1.0000
  H   H1552     1.0  0.48477  0.72374  0.92019  1.0000
  H   H1553     1.0  0.99594  0.75252  0.93584  1.0000
  H   H1554     1.0  0.22339  0.66523  0.88240  1.0000
  H   H1555     1.0  0.48709  0.89393  0.87645  1.0000
  H   H1556     1.0  0.49028  0.75247  0.75271  1.0000
  N   N101      1.0  0.48638  0.74368  0.77591  1.0000
  C   C967      1.0  0.49264  0.88316  0.88680  1.0000
  H   H1557     1.0  0.49230  0.70512  0.77502  1.0000
  H   H1558     1.0  0.99447  0.72621  0.95037  1.0000
  H   H1559     1.0  0.12886  0.65461  0.77203  1.0000
  H   H1560     1.0  0.49330  0.95158  0.84533  1.0000
  H   H1561     1.0  0.06296  0.65354  0.77325  1.0000
  H   H1562     1.0  0.05877  0.65248  0.95493  1.0000
  C   C968      1.0  0.65929  0.98688  0.98693  1.0000
  H   H1563     1.0  0.66857  0.20838  0.13792  1.0000
  Fe  Fe192     1.0  0.68884  0.08198  0.01273  1.0000
  S   S379      1.0  0.64746  0.09424  0.01757  1.0000
  Fe  Fe193     1.0  0.65390  0.12426  0.99796  1.0000
  S   S380      1.0  0.63750  0.16491  0.99663  1.0000
  Fe  Fe194     1.0  0.64748  0.07052  0.00183  1.0000
  C   C969      1.0  0.68582  0.11094  0.04237  1.0000
  C   C970      1.0  0.64755  0.06872  0.06676  1.0000
  H   H1564     1.0  0.51317  0.25097  0.00218  1.0000
  H   H1565     1.0  0.51261  0.27969  0.03299  1.0000
  H   H1566     1.0  0.67626  0.11638  0.03330  1.0000
  C   C971      1.0  0.63857  0.02348  0.14219  1.0000
  C   C972      1.0  0.62121  0.01852  0.16795  1.0000
  H   H1567     1.0  0.49760  0.25544  0.02020  1.0000
  H   H1568     1.0  0.85956  0.25922  0.98160  1.0000
  Fe  Fe195     1.0  0.65945  0.07854  0.12471  1.0000
  H   H1569     1.0  0.66644  0.14272  0.05188  1.0000
  H   H1570     1.0  0.53296  0.31440  0.09014  1.0000
  H   H1571     1.0  0.82843  0.07192  0.22396  1.0000
  S   S381      1.0  0.51463  0.27225  0.11095  1.0000
  S   S382      1.0  0.51082  0.20294  0.11617  1.0000
  H   H1572     1.0  0.74522  0.17256  0.99211  1.0000
  H   H1573     1.0  0.83581  0.25610  0.17687  1.0000
  C   C973      1.0  0.86541  0.11214  0.21756  1.0000
  H   H1574     1.0  0.56430  0.25476  0.01916  1.0000
  S   S383      1.0  0.79370  0.14844  0.22013  1.0000
  C   C974      1.0  0.50798  0.26424  0.00971  1.0000
  H   H1575     1.0  0.81489  0.28034  0.16756  1.0000
  C   C975      1.0  0.90193  0.23588  0.99127  1.0000
  H   H1576     1.0  0.63171  0.06442  0.06346  1.0000
  N   N102      1.0  0.64717  0.06008  0.08248  1.0000
  C   C976      1.0  0.84361  0.12836  0.21420  1.0000
  H   H1577     1.0  0.87814  0.31707  0.07735  1.0000
  H   H1578     1.0  0.68788  0.17931  0.13481  1.0000
  Fe  Fe196     1.0  0.64099  0.13182  0.12905  1.0000
  S   S384      1.0  0.67773  0.14238  0.11835  1.0000
  S   S385      1.0  0.61209  0.16142  0.13890  1.0000
  Fe  Fe197     1.0  0.67776  0.12043  0.10177  1.0000
  S   S386      1.0  0.68477  0.13768  0.07786  1.0000
  Fe  Fe198     1.0  0.69437  0.10641  0.13113  1.0000
  S   S387      1.0  0.72263  0.10113  0.14543  1.0000
  S   S388      1.0  0.63960  0.11255  0.11160  1.0000
  S   S389      1.0  0.65748  0.09714  0.14311  1.0000
  Fe  Fe199     1.0  0.79793  0.17572  0.19882  1.0000
  S   S390      1.0  0.76293  0.19658  0.19083  1.0000
  C   C977      1.0  0.52213  0.28870  0.02227  1.0000
  Fe  Fe200     1.0  0.83067  0.20544  0.17504  1.0000
  S   S391      1.0  0.79843  0.22875  0.16531  1.0000
  S   S392      1.0  0.87054  0.21067  0.16824  1.0000
  Fe  Fe201     1.0  0.77885  0.23023  0.18820  1.0000
  S   S393      1.0  0.75328  0.26540  0.19363  1.0000
  Fe  Fe202     1.0  0.78506  0.19314  0.16860  1.0000
  S   S394      1.0  0.76788  0.19063  0.15010  1.0000
  S   S395      1.0  0.81215  0.20987  0.19779  1.0000
  S   S396      1.0  0.81910  0.16936  0.17671  1.0000
  C   C978      1.0  0.68033  0.12586  0.05286  1.0000
  H   H1579     1.0  0.92674  0.26060  0.07361  1.0000
  C   C979      1.0  0.75739  0.27983  0.20687  1.0000
  H   H1580     1.0  0.82983  0.03792  0.20408  1.0000
  C   C980      1.0  0.69839  0.20999  0.98784  1.0000
  H   H1581     1.0  0.64192  0.99181  0.13269  1.0000
  S   S397      1.0  0.89708  0.30768  0.12532  1.0000
  H   H1582     1.0  0.80754  0.29612  0.99612  1.0000
  H   H1583     1.0  0.50702  0.14039  0.15446  1.0000
  H   H1584     1.0  0.84400  0.14047  0.20370  1.0000
  C   C981      1.0  0.73578  0.12583  0.14642  1.0000
  C   C982      1.0  0.73547  0.14707  0.13560  1.0000
  C   C983      1.0  0.74574  0.16659  0.13680  1.0000
  C   C984      1.0  0.75621  0.16513  0.14888  1.0000
  C   C985      1.0  0.75650  0.14389  0.15973  1.0000
  C   C986      1.0  0.74644  0.12426  0.15845  1.0000
  H   H1585     1.0  0.72767  0.14831  0.12619  1.0000
  H   H1586     1.0  0.74559  0.18291  0.12833  1.0000
  H   H1587     1.0  0.76458  0.14256  0.16905  1.0000
  H   H1588     1.0  0.74682  0.10782  0.16683  1.0000
  H   H1589     1.0  0.84886  0.29452  0.19910  1.0000
  C   C987      1.0  0.87940  0.27941  0.10015  1.0000
  S   S398      1.0  0.71108  0.07014  0.03063  1.0000
  Fe  Fe203     1.0  0.99038  0.29769  0.12437  1.0000
  C   C988      1.0  0.53985  0.19217  0.12154  1.0000
  C   C989      1.0  0.55404  0.16914  0.11901  1.0000
  C   C990      1.0  0.57662  0.15976  0.12396  1.0000
  C   C991      1.0  0.58480  0.17320  0.13169  1.0000
  C   C992      1.0  0.57055  0.19617  0.13425  1.0000
  C   C993      1.0  0.54831  0.20579  0.12903  1.0000
  H   H1590     1.0  0.54756  0.15853  0.11324  1.0000
  H   H1591     1.0  0.58742  0.14194  0.12205  1.0000
  H   H1592     1.0  0.57676  0.20665  0.14024  1.0000
  H   H1593     1.0  0.53751  0.22357  0.13105  1.0000
  H   H1594     1.0  0.66637  0.02321  0.08028  1.0000
  H   H1595     1.0  0.66501  0.05992  0.06018  1.0000
  H   H1596     1.0  0.92048  0.24628  0.09243  1.0000
  H   H1597     1.0  0.88249  0.11187  0.20959  1.0000
  H   H1598     1.0  0.53866  0.23971  0.02804  1.0000
  H   H1599     1.0  0.80556  0.26774  0.18633  1.0000
  C   C994      1.0  0.63619  0.99930  0.14253  1.0000
  S   S399      1.0  0.62009  0.04498  0.00600  1.0000
  H   H1600     1.0  0.89852  0.24898  0.08110  1.0000
  H   H1601     1.0  0.50126  0.16176  0.13820  1.0000
  H   H1602     1.0  0.55378  0.23649  0.00983  1.0000
  S   S400      1.0  0.68861  0.05637  0.99821  1.0000
  H   H1603     1.0  0.92580  0.28349  0.09959  1.0000
  H   H1604     1.0  0.66711  0.08655  0.08437  1.0000
  H   H1605     1.0  0.90243  0.30192  0.06491  1.0000
  H   H1606     1.0  0.64646  0.08907  0.06361  1.0000
  H   H1607     1.0  0.78765  0.25166  0.21368  1.0000
  H   H1608     1.0  0.65516  0.18477  0.13498  1.0000
  H   H1609     1.0  0.68904  0.00177  0.17815  1.0000
  H   H1610     1.0  0.63274  0.05171  0.15475  1.0000
  C   C995      1.0  0.89030  0.28028  0.13692  1.0000
  C   C996      1.0  0.86670  0.27483  0.13869  1.0000
  C   C997      1.0  0.86062  0.25321  0.14800  1.0000
  C   C998      1.0  0.87803  0.23707  0.15573  1.0000
  C   C999      1.0  0.90174  0.24240  0.15382  1.0000
  H   H1611     1.0  0.85303  0.28740  0.13288  1.0000
  H   H1612     1.0  0.84247  0.24906  0.14922  1.0000
  H   H1613     1.0  0.91530  0.22992  0.15976  1.0000
  H   H1614     1.0  0.60727  0.06806  0.08830  1.0000
  H   H1615     1.0  0.74216  0.17984  0.22269  1.0000
  C   C1000     1.0  0.91737  0.29477  0.09023  1.0000
  H   H1616     1.0  0.64857  0.02606  0.09807  1.0000
  C   C1001     1.0  0.84118  0.28099  0.19566  1.0000
  C   C1002     1.0  0.83590  0.31435  0.98164  1.0000
  H   H1617     1.0  0.62207  0.09286  0.08819  1.0000
  H   H1618     1.0  0.90847  0.31317  0.09311  1.0000
  C   C1003     1.0  0.61893  0.99431  0.16830  1.0000
  H   H1619     1.0  0.92617  0.26802  0.14309  1.0000
  C   C1004     1.0  0.66067  0.18269  0.99269  1.0000
  C   C1005     1.0  0.65745  0.20194  0.00010  1.0000
  C   C1006     1.0  0.67637  0.21529  0.99784  1.0000
  C   C1007     1.0  0.84387  0.03299  0.21120  1.0000
  C   C1008     1.0  0.54748  0.24973  0.01743  1.0000
  S   S401      1.0  0.52301  0.29133  0.14549  1.0000
  H   H1620     1.0  0.64075  0.20581  0.00809  1.0000
  H   H1621     1.0  0.67421  0.22935  0.00414  1.0000
  H   H1622     1.0  0.88529  0.28490  0.98656  1.0000
  H   H1623     1.0  0.73580  0.14444  0.99232  1.0000
  C   C1009     1.0  0.64884  0.03303  0.08624  1.0000
  C   C1010     1.0  0.71620  0.08242  0.05533  1.0000
  C   C1011     1.0  0.71058  0.09726  0.06588  1.0000
  C   C1012     1.0  0.69242  0.11888  0.06475  1.0000
  H   H1624     1.0  0.73025  0.06568  0.05626  1.0000
  H   H1625     1.0  0.72025  0.09198  0.07491  1.0000
  H   H1626     1.0  0.66974  0.05904  0.09777  1.0000
  S   S402      1.0  0.69777  0.08504  0.11358  1.0000
  H   H1627     1.0  0.82628  0.27502  0.20470  1.0000
  C   C1013     1.0  0.62385  0.07240  0.09075  1.0000
  C   C1014     1.0  0.66856  0.06623  0.08621  1.0000
  C   C1015     1.0  0.77578  0.26921  0.21520  1.0000
  S   S403      1.0  0.96831  0.29600  0.10822  1.0000
  H   H1628     1.0  0.63302  0.02765  0.08355  1.0000
  C   C1016     1.0  0.49740  0.18669  0.15931  1.0000
  C   C1017     1.0  0.62958  0.01587  0.00058  1.0000
  H   H1629     1.0  0.88718  0.26721  0.10954  1.0000
  C   C1018     1.0  0.61263  0.99991  0.00390  1.0000
  H   H1630     1.0  0.61536  0.02604  0.17778  1.0000
  H   H1631     1.0  0.54874  0.27234  0.98958  1.0000
  H   H1632     1.0  0.68643  0.05810  0.07975  1.0000
  H   H1633     1.0  0.55867  0.29114  0.99887  1.0000
  C   C1019     1.0  0.77901  0.28154  0.22543  1.0000
  H   H1634     1.0  0.87005  0.29734  0.10356  1.0000
  H   H1635     1.0  0.59439  0.00501  0.01033  1.0000
  H   H1636     1.0  0.63556  0.18291  0.17455  1.0000
  H   H1637     1.0  0.54810  0.31257  0.16060  1.0000
  C   C1020     1.0  0.70367  0.08910  0.04364  1.0000
  N   N103      1.0  0.74044  0.14868  0.01300  1.0000
  C   C1021     1.0  0.74501  0.12192  0.01908  1.0000
  C   C1022     1.0  0.71381  0.15934  0.01728  1.0000
  C   C1023     1.0  0.74748  0.15255  0.99701  1.0000
  C   C1024     1.0  0.75544  0.16094  0.01866  1.0000
  H   H1638     1.0  0.73366  0.11223  0.01516  1.0000
  H   H1639     1.0  0.74016  0.11830  0.03114  1.0000
  H   H1640     1.0  0.76483  0.11309  0.01597  1.0000
  H   H1641     1.0  0.70776  0.15613  0.02928  1.0000
  H   H1642     1.0  0.70990  0.17965  0.01330  1.0000
  H   H1643     1.0  0.70182  0.15117  0.01283  1.0000
  C   C1025     1.0  0.72778  0.22674  0.22672  1.0000
  H   H1644     1.0  0.79598  0.30857  0.19314  1.0000
  C   C1026     1.0  0.90047  0.27770  0.97802  1.0000
  H   H1645     1.0  0.75237  0.18120  0.01420  1.0000
  H   H1646     1.0  0.77565  0.15334  0.01569  1.0000
  H   H1647     1.0  0.75046  0.15850  0.03071  1.0000
  N   N104      1.0  0.89912  0.28286  0.08715  1.0000
  H   H1648     1.0  0.49467  0.28044  0.00516  1.0000
  H   H1649     1.0  0.62316  0.06645  0.10266  1.0000
  C   C1027     1.0  0.88801  0.29865  0.07487  1.0000
  N   N105      1.0  0.52999  0.27184  0.01177  1.0000
  H   H1650     1.0  0.50868  0.30547  0.01847  1.0000
  H   H1651     1.0  0.52942  0.30113  0.99299  1.0000
  C   C1028     1.0  0.82142  0.12875  0.22436  1.0000
  C   C1029     1.0  0.68236  0.17780  0.98235  1.0000
  H   H1652     1.0  0.72769  0.31085  0.20260  1.0000
  H   H1653     1.0  0.85999  0.31353  0.17303  1.0000
  C   C1030     1.0  0.81160  0.31360  0.18430  1.0000
  N   N106      1.0  0.66474  0.17814  0.15600  1.0000
  C   C1031     1.0  0.66603  0.15120  0.15851  1.0000
  C   C1032     1.0  0.68383  0.18302  0.16255  1.0000
  C   C1033     1.0  0.63981  0.19020  0.16269  1.0000
  C   C1034     1.0  0.66930  0.18811  0.14024  1.0000
  H   H1654     1.0  0.65158  0.14679  0.15401  1.0000
  H   H1655     1.0  0.66339  0.14283  0.17025  1.0000
  H   H1656     1.0  0.68427  0.14162  0.15320  1.0000
  H   H1657     1.0  0.68400  0.20311  0.16051  1.0000
  H   H1658     1.0  0.68076  0.17612  0.17447  1.0000
  H   H1659     1.0  0.70275  0.17362  0.15797  1.0000
  H   H1660     1.0  0.62505  0.18698  0.15786  1.0000
  H   H1661     1.0  0.63819  0.21055  0.16104  1.0000
  C   C1035     1.0  0.65307  0.00906  0.99223  1.0000
  H   H1662     1.0  0.73539  0.22531  0.21515  1.0000
  S   S404      1.0  0.64896  0.10218  0.98284  1.0000
  S   S405      1.0  0.65080  0.04115  0.12561  1.0000
  C   C1036     1.0  0.90790  0.26395  0.14442  1.0000
  C   C1037     1.0  0.54230  0.28462  0.99771  1.0000
  H   H1663     1.0  0.76723  0.14399  0.99341  1.0000
  S   S406      1.0  0.69538  0.11354  0.99430  1.0000
  N   N107      1.0  0.83158  0.29183  0.18209  1.0000
  S   S407      1.0  0.95690  0.31377  0.13947  1.0000
  H   H1664     1.0  0.87431  0.29017  0.07212  1.0000
  H   H1665     1.0  0.53814  0.29497  0.02410  1.0000
  C   C1038     1.0  0.63111  0.03306  0.15494  1.0000
  C   C1039     1.0  0.81729  0.30021  0.98503  1.0000
  C   C1040     1.0  0.74203  0.30259  0.20898  1.0000
  H   H1666     1.0  0.86493  0.27095  0.09822  1.0000
  C   C1041     1.0  0.91178  0.25858  0.08340  1.0000
  H   H1667     1.0  0.84559  0.30733  0.15992  1.0000
  H   H1668     1.0  0.77482  0.20208  0.22246  1.0000
  H   H1669     1.0  0.50609  0.19615  0.14854  1.0000
  S   S408      1.0  0.72309  0.22453  0.98704  1.0000
  H   H1670     1.0  0.90131  0.21655  0.99102  1.0000
  H   H1671     1.0  0.86744  0.28335  0.16856  1.0000
  H   H1672     1.0  0.88665  0.24212  0.00006  1.0000
  H   H1673     1.0  0.97934  0.01349  0.20952  1.0000
  C   C1042     1.0  0.67606  0.98889  0.18002  1.0000
  C   C1043     1.0  0.85202  0.29937  0.17041  1.0000
  H   H1674     1.0  0.93270  0.29761  0.08073  1.0000
  H   H1675     1.0  0.85621  0.26443  0.19434  1.0000
  Fe  Fe204     1.0  0.69022  0.08965  0.98027  1.0000
  C   C1044     1.0  0.82155  0.27322  0.17802  1.0000
  H   H1676     1.0  0.85538  0.01458  0.20961  1.0000
  Fe  Fe205     1.0  0.49849  0.28338  0.13252  1.0000
  H   H1677     1.0  0.91986  0.23557  0.99432  1.0000
  H   H1678     1.0  0.85635  0.04668  0.20730  1.0000
  H   H1679     1.0  0.66636  0.02106  0.98962  1.0000
  C   C1045     1.0  0.98536  0.99787  0.21764  1.0000
  Fe  Fe206     1.0  0.93561  0.31547  0.12233  1.0000
  H   H1680     1.0  0.51271  0.17422  0.16445  1.0000
  H   H1681     1.0  0.91842  0.27851  0.98064  1.0000
  H   H1682     1.0  0.61739  0.22000  0.97891  1.0000
  H   H1683     1.0  0.53852  0.31430  0.11506  1.0000
  C   C1046     1.0  0.70110  0.19160  0.97983  1.0000
  H   H1684     1.0  0.80002  0.01914  0.22541  1.0000
  H   H1685     1.0  0.59932  0.04651  0.98092  1.0000
  N   N108      1.0  0.83188  0.03272  0.22657  1.0000
  H   H1686     1.0  0.67039  0.99042  0.16951  1.0000
  C   C1047     1.0  0.74522  0.31491  0.21922  1.0000
  H   H1687     1.0  0.65899  0.99561  0.18768  1.0000
  H   H1688     1.0  0.80150  0.06267  0.22194  1.0000
  C   C1048     1.0  0.76383  0.30447  0.22741  1.0000
  H   H1689     1.0  0.88708  0.13018  0.31911  1.0000
  H   H1690     1.0  0.81126  0.03237  0.42520  1.0000
  C   C1049     1.0  0.98260  0.12818  0.39816  1.0000
  H   H1691     1.0  0.62837  0.04614  0.45540  1.0000
  H   H1692     1.0  0.85685  0.07350  0.43542  1.0000
  C   C1050     1.0  0.65956  0.00581  0.44657  1.0000
  H   H1693     1.0  0.87584  0.04134  0.42014  1.0000
  H   H1694     1.0  0.84794  0.00576  0.31084  1.0000
  H   H1695     1.0  0.96152  0.08847  0.31388  1.0000
  S   S409      1.0  0.82854  0.27722  0.46733  1.0000
  H   H1696     1.0  0.93785  0.07799  0.32840  1.0000
  N   N109      1.0  0.73929  0.20526  0.23662  1.0000
  S   S410      1.0  0.62923  0.29310  0.38372  1.0000
  Fe  Fe207     1.0  0.94233  0.04213  0.37276  1.0000
  S   S411      1.0  0.94852  0.07707  0.35721  1.0000
  Fe  Fe208     1.0  0.92602  0.06868  0.39861  1.0000
  S   S412      1.0  0.93094  0.10525  0.38448  1.0000
  S   S413      1.0  0.91162  0.06789  0.42253  1.0000
  Fe  Fe209     1.0  0.91225  0.09380  0.36982  1.0000
  S   S414      1.0  0.88119  0.11685  0.35878  1.0000
  S   S415      1.0  0.90521  0.05849  0.38459  1.0000
  C   C1051     1.0  0.90023  0.04899  0.33452  1.0000
  Fe  Fe210     1.0  0.77268  0.00562  0.41745  1.0000
  H   H1697     1.0  0.61636  0.01122  0.36821  1.0000
  S   S416      1.0  0.65530  0.13013  0.45923  1.0000
  C   C1052     1.0  0.93190  0.02020  0.34656  1.0000
  C   C1053     1.0  0.97279  0.99629  0.23215  1.0000
  H   H1698     1.0  0.83668  0.08836  0.42277  1.0000
  C   C1054     1.0  0.85662  0.00183  0.32059  1.0000
  H   H1699     1.0  0.95581  0.99364  0.33416  1.0000
  S   S417      1.0  0.67313  0.26933  0.41195  1.0000
  S   S418      1.0  0.94737  0.01030  0.36147  1.0000
  C   C1055     1.0  0.90938  0.03886  0.32197  1.0000
  C   C1056     1.0  0.96390  0.09874  0.41741  1.0000
  H   H1700     1.0  0.67239  0.00784  0.33890  1.0000
  H   H1701     1.0  0.82614  0.99561  0.22945  1.0000
  Fe  Fe211     1.0  0.80154  0.23908  0.43420  1.0000
  S   S419      1.0  0.78463  0.26537  0.41592  1.0000
  Fe  Fe212     1.0  0.84528  0.19994  0.44317  1.0000
  S   S420      1.0  0.88158  0.17585  0.43468  1.0000
  S   S421      1.0  0.80752  0.19758  0.44030  1.0000
  S   S422      1.0  0.84039  0.24107  0.43505  1.0000
  H   H1702     1.0  0.93727  0.07678  0.31015  1.0000
  Fe  Fe213     1.0  0.77878  0.03415  0.38655  1.0000
  S   S423      1.0  0.76502  0.04641  0.40804  1.0000
  S   S424      1.0  0.80010  0.05273  0.36564  1.0000
  H   H1703     1.0  0.98693  0.14703  0.39467  1.0000
  H   H1704     1.0  0.72447  0.29785  0.36962  1.0000
  H   H1705     1.0  0.51528  0.24077  0.39241  1.0000
  Fe  Fe214     1.0  0.72821  0.03962  0.40660  1.0000
  S   S425      1.0  0.69094  0.06506  0.41059  1.0000
  H   H1706     1.0  0.51216  0.26857  0.39914  1.0000
  C   C1057     1.0  0.65955  0.01045  0.34934  1.0000
  S   S426      1.0  0.74121  0.03060  0.38433  1.0000
  H   H1707     1.0  0.50419  0.27041  0.38200  1.0000
  H   H1708     1.0  0.66276  0.02452  0.47690  1.0000
  H   H1709     1.0  0.77082  0.30044  0.45696  1.0000
  C   C1058     1.0  0.69089  0.02478  0.45028  1.0000
  H   H1710     1.0  0.90695  0.30899  0.43505  1.0000
  C   C1059     1.0  0.82122  0.11296  0.23797  1.0000
  N   N110      1.0  0.70490  0.17566  0.45553  1.0000
  H   H1711     1.0  0.79346  0.14752  0.46470  1.0000
  H   H1712     1.0  0.96721  0.99459  0.41357  1.0000
  H   H1713     1.0  0.80924  0.06454  0.41728  1.0000
  Fe  Fe215     1.0  0.96672  0.08378  0.37384  1.0000
  C   C1060     1.0  0.91159  0.03997  0.34666  1.0000
  H   H1714     1.0  0.89547  0.10210  0.33143  1.0000
  C   C1061     1.0  0.72532  0.29002  0.35994  1.0000
  H   H1715     1.0  0.85639  0.02446  0.41583  1.0000
  H   H1716     1.0  0.92582  0.11488  0.29283  1.0000
  C   C1062     1.0  0.93050  0.12546  0.29985  1.0000
  N   N111      1.0  0.66452  0.02247  0.45476  1.0000
  C   C1063     1.0  0.70383  0.26904  0.41330  1.0000
  C   C1064     1.0  0.71646  0.28769  0.40516  1.0000
  C   C1065     1.0  0.74125  0.28637  0.40606  1.0000
  C   C1066     1.0  0.75341  0.26665  0.41529  1.0000
  C   C1067     1.0  0.74069  0.24818  0.42360  1.0000
  C   C1068     1.0  0.71604  0.24930  0.42250  1.0000
  C   C1069     1.0  0.85700  0.04265  0.41801  1.0000
  C   C1070     1.0  0.85215  0.00752  0.34514  1.0000
  H   H1717     1.0  0.75000  0.23293  0.43072  1.0000
  H   H1718     1.0  0.70633  0.23487  0.42876  1.0000
  C   C1071     1.0  0.66715  0.11337  0.44507  1.0000
  C   C1072     1.0  0.65282  0.11603  0.43462  1.0000
  C   C1073     1.0  0.66092  0.10174  0.42379  1.0000
  C   C1074     1.0  0.68364  0.08498  0.42311  1.0000
  C   C1075     1.0  0.69869  0.08312  0.43311  1.0000
  C   C1076     1.0  0.69034  0.09720  0.44416  1.0000
  H   H1719     1.0  0.63500  0.12859  0.43518  1.0000
  H   H1720     1.0  0.64922  0.10329  0.41609  1.0000
  H   H1721     1.0  0.71641  0.07042  0.43255  1.0000
  H   H1722     1.0  0.70192  0.09558  0.45191  1.0000
  C   C1077     1.0  0.98384  0.12745  0.42305  1.0000
  C   C1078     1.0  0.85674  0.10078  0.36164  1.0000
  C   C1079     1.0  0.84515  0.10223  0.35011  1.0000
  C   C1080     1.0  0.82748  0.08774  0.35166  1.0000
  C   C1081     1.0  0.82070  0.07210  0.36486  1.0000
  C   C1082     1.0  0.83120  0.07158  0.37672  1.0000
  C   C1083     1.0  0.84919  0.08598  0.37509  1.0000
  H   H1723     1.0  0.85017  0.11415  0.33984  1.0000
  H   H1724     1.0  0.81904  0.08870  0.34255  1.0000
  H   H1725     1.0  0.82580  0.05979  0.38699  1.0000
  H   H1726     1.0  0.85702  0.08590  0.38425  1.0000
  C   C1084     1.0  0.89805  0.09736  0.42682  1.0000
  C   C1085     1.0  0.89808  0.10161  0.44050  1.0000
  C   C1086     1.0  0.89040  0.12563  0.44349  1.0000
  C   C1087     1.0  0.88217  0.14552  0.43292  1.0000
  C   C1088     1.0  0.88068  0.14097  0.41954  1.0000
  C   C1089     1.0  0.88842  0.11692  0.41653  1.0000
  H   H1727     1.0  0.90527  0.08656  0.44857  1.0000
  H   H1728     1.0  0.89216  0.12902  0.45373  1.0000
  H   H1729     1.0  0.87479  0.15627  0.41120  1.0000
  H   H1730     1.0  0.88744  0.11373  0.40612  1.0000
  H   H1731     1.0  0.73125  0.18744  0.46389  1.0000
  Fe  Fe216     1.0  0.87494  0.00525  0.27619  1.0000
  H   H1732     1.0  0.77585  0.18769  0.24085  1.0000
  H   H1733     1.0  0.70360  0.00665  0.45264  1.0000
  S   S427      1.0  0.78971  0.99391  0.39608  1.0000
  H   H1734     1.0  0.95326  0.09507  0.42872  1.0000
  C   C1090     1.0  0.89937  0.11159  0.31992  1.0000
  H   H1735     1.0  0.82384  0.07978  0.44172  1.0000
  S   S428      1.0  0.83392  0.20345  0.46672  1.0000
  H   H1736     1.0  0.73708  0.19206  0.25954  1.0000
  H   H1737     1.0  0.94790  0.16151  0.41125  1.0000
  N   N112      1.0  0.92588  0.11320  0.31525  1.0000
  S   S429      1.0  0.90616  0.99508  0.28852  1.0000
  H   H1738     1.0  0.98142  0.08464  0.41658  1.0000
  C   C1091     1.0  0.94135  0.08806  0.31698  1.0000
  H   H1739     1.0  0.77091  0.22091  0.23568  1.0000
  H   H1740     1.0  0.69370  0.24397  0.37712  1.0000
  C   C1092     1.0  0.84110  0.03072  0.44358  1.0000
  H   H1741     1.0  0.80677  0.00781  0.32739  1.0000
  H   H1742     1.0  0.67465  0.19832  0.46751  1.0000
  Fe  Fe217     1.0  0.79583  0.20371  0.46329  1.0000
  H   H1743     1.0  0.95036  0.12697  0.29595  1.0000
  H   H1744     1.0  0.82027  0.04949  0.33593  1.0000
  H   H1745     1.0  0.90458  0.04843  0.35612  1.0000
  S   S430      1.0  0.89693  0.05387  0.30629  1.0000
  H   H1746     1.0  0.79337  0.27340  0.23180  1.0000
  C   C1093     1.0  0.84314  0.09677  0.24137  1.0000
  C   C1094     1.0  0.64841  0.04706  0.45167  1.0000
  H   H1747     1.0  0.84289  0.08464  0.25185  1.0000
  C   C1095     1.0  0.76639  0.20401  0.23383  1.0000
  H   H1748     1.0  0.95723  0.01069  0.23516  1.0000
  H   H1749     1.0  0.65119  0.05482  0.43984  1.0000
  H   H1750     1.0  0.82644  0.03507  0.45308  1.0000
  H   H1751     1.0  0.81911  0.30923  0.43657  1.0000
  S   S431      1.0  0.66174  0.30843  0.34392  1.0000
  H   H1752     1.0  0.73786  0.18997  0.44459  1.0000
  C   C1096     1.0  0.63005  0.99351  0.36943  1.0000
  Fe  Fe218     1.0  0.89584  0.04772  0.25525  1.0000
  H   H1753     1.0  0.87425  0.00894  0.31714  1.0000
  H   H1754     1.0  0.87001  0.01412  0.34231  1.0000
  C   C1097     1.0  0.63142  0.98788  0.34523  1.0000
  H   H1755     1.0  0.72067  0.23499  0.35376  1.0000
  C   C1098     1.0  0.71823  0.14964  0.45723  1.0000
  S   S432      1.0  0.92872  0.04156  0.26598  1.0000
  H   H1756     1.0  0.64624  0.02827  0.34729  1.0000
  C   C1099     1.0  0.65922  0.01228  0.47047  1.0000
  H   H1757     1.0  0.82610  0.04540  0.31747  1.0000
  C   C1100     1.0  0.69690  0.26323  0.37332  1.0000
  H   H1758     1.0  0.85085  0.04858  0.32518  1.0000
  S   S433      1.0  0.86841  0.04576  0.27618  1.0000
  H   H1759     1.0  0.76000  0.24954  0.36594  1.0000
  Fe  Fe219     1.0  0.93085  0.00139  0.26648  1.0000
  H   H1760     1.0  0.75095  0.30083  0.39969  1.0000
  C   C1101     1.0  0.83400  0.04038  0.32753  1.0000
  H   H1761     1.0  0.66354  0.01305  0.43466  1.0000
  C   C1102     1.0  0.81569  0.01421  0.23136  1.0000
  H   H1762     1.0  0.58802  0.07635  0.47149  1.0000
  H   H1763     1.0  0.70823  0.20891  0.25430  1.0000
  H   H1764     1.0  0.80817  0.31282  0.41991  1.0000
  H   H1765     1.0  0.68302  0.20150  0.44096  1.0000
  C   C1103     1.0  0.94021  0.00904  0.33430  1.0000
  S   S434      1.0  0.89998  0.00779  0.25428  1.0000
  H   H1766     1.0  0.71072  0.30204  0.35398  1.0000
  H   H1767     1.0  0.74367  0.29149  0.35276  1.0000
  S   S435      1.0  0.78666  0.24496  0.45691  1.0000
  C   C1104     1.0  0.77931  0.14069  0.47337  1.0000
  H   H1768     1.0  0.97398  0.12440  0.43457  1.0000
  C   C1105     1.0  0.93215  0.12762  0.32430  1.0000
  H   H1769     1.0  0.95218  0.12871  0.32145  1.0000
  H   H1770     1.0  0.92802  0.11915  0.33603  1.0000
  H   H1771     1.0  0.92102  0.14678  0.32313  1.0000
  H   H1772     1.0  0.73344  0.14649  0.44778  1.0000
  H   H1773     1.0  0.67138  0.98706  0.44863  1.0000
  C   C1106     1.0  0.74095  0.24908  0.37242  1.0000
  H   H1774     1.0  0.93623  0.01041  0.31234  1.0000
  S   S436      1.0  0.73458  0.99981  0.41767  1.0000
  Fe  Fe220     1.0  0.90153  0.03578  0.28705  1.0000
  H   H1775     1.0  0.63977  0.00376  0.44961  1.0000
  H   H1776     1.0  0.84045  0.01202  0.44218  1.0000
  H   H1777     1.0  0.68185  0.27391  0.36738  1.0000
  H   H1778     1.0  0.80854  0.05834  0.23970  1.0000
  H   H1779     1.0  0.85949  0.02953  0.44632  1.0000
  H   H1780     1.0  0.80766  0.01225  0.24318  1.0000
  N   N113      1.0  0.83985  0.01332  0.33248  1.0000
  C   C1107     1.0  0.89743  0.26865  0.47655  1.0000
  H   H1781     1.0  0.65232  0.06052  0.45714  1.0000
  C   C1108     1.0  0.80299  0.30870  0.43195  1.0000
  H   H1782     1.0  0.70715  0.30322  0.39825  1.0000
  H   H1783     1.0  0.80360  0.01195  0.34569  1.0000
  N   N114      1.0  0.72173  0.26416  0.36416  1.0000
  H   H1784     1.0  0.89375  0.10101  0.31332  1.0000
  H   H1785     1.0  0.69560  0.03198  0.43843  1.0000
  H   H1786     1.0  0.93438  0.13993  0.42584  1.0000
  C   C1109     1.0  0.69372  0.18215  0.44241  1.0000
  H   H1787     1.0  0.79747  0.05505  0.43631  1.0000
  H   H1788     1.0  0.69520  0.03768  0.45599  1.0000
  Fe  Fe221     1.0  0.65356  0.30089  0.39683  1.0000
  H   H1789     1.0  0.88434  0.06404  0.33487  1.0000
  H   H1790     1.0  0.92041  0.30363  0.45096  1.0000
  H   H1791     1.0  0.84027  0.01649  0.35416  1.0000
  N   N115      1.0  0.96884  0.12413  0.41328  1.0000
  C   C1110     1.0  0.83869  0.07386  0.43266  1.0000
  H   H1792     1.0  0.71315  0.21170  0.45297  1.0000
  H   H1793     1.0  0.93298  0.13976  0.40753  1.0000
  C   C1111     1.0  0.50346  0.25931  0.39323  1.0000
  C   C1112     1.0  0.72868  0.20794  0.25180  1.0000
  H   H1794     1.0  0.69461  0.27115  0.38311  1.0000
  C   C1113     1.0  0.90483  0.31483  0.44555  1.0000
  Fe  Fe222     1.0  0.75087  0.99134  0.39547  1.0000
  N   N116      1.0  0.83738  0.04942  0.43034  1.0000
  H   H1795     1.0  0.80411  0.11322  0.24590  1.0000
  H   H1796     1.0  0.91899  0.14441  0.29814  1.0000
  H   H1797     1.0  0.95264  0.09557  0.41027  1.0000
  S   S437      1.0  0.96297  0.04751  0.38880  1.0000
  C   C1114     1.0  0.81277  0.05046  0.42713  1.0000
  Fe  Fe223     1.0  0.82593  0.24450  0.45831  1.0000
  C   C1115     1.0  0.72359  0.25438  0.35098  1.0000
  H   H1798     1.0  0.70815  0.18028  0.43246  1.0000
  C   C1116     1.0  0.86529  0.09628  0.23111  1.0000
  H   H1799     1.0  0.79997  0.28938  0.43509  1.0000
  C   C1117     1.0  0.68508  0.17889  0.46840  1.0000
  C   C1118     1.0  0.72255  0.19192  0.45414  1.0000
  C   C1119     1.0  0.92908  0.01847  0.32196  1.0000
  H   H1800     1.0  0.84297  0.02555  0.24727  1.0000
  C   C1120     1.0  0.85124  0.02628  0.23554  1.0000
  H   H1801     1.0  0.67087  0.01230  0.35692  1.0000
  H   H1802     1.0  0.85500  0.05655  0.40789  1.0000
  S   S438      1.0  0.84082  0.98820  0.28442  1.0000
  C   C1121     1.0  0.85409  0.28041  0.47395  1.0000
  H   H1803     1.0  0.67103  0.99377  0.47326  1.0000
  H   H1804     1.0  0.87937  0.24868  0.46692  1.0000
  H   H1805     1.0  0.56715  0.31629  0.37044  1.0000
  C   C1122     1.0  0.87711  0.26427  0.47206  1.0000
  H   H1806     1.0  0.74211  0.25470  0.34378  1.0000
  H   H1807     1.0  0.78662  0.10465  0.46766  1.0000
  H   H1808     1.0  0.71417  0.18239  0.23619  1.0000
  H   H1809     1.0  0.86317  0.00786  0.23445  1.0000
  H   H1810     1.0  0.88737  0.30978  0.45251  1.0000
  H   H1811     1.0  0.70926  0.26560  0.34456  1.0000
  H   H1812     1.0  0.73208  0.22512  0.25400  1.0000
  H   H1813     1.0  0.72668  0.14406  0.46710  1.0000
  H   H1814     1.0  0.70548  0.13683  0.45829  1.0000
  H   H1815     1.0  0.68060  0.16990  0.44306  1.0000
  H   H1816     1.0  0.61706  0.00491  0.34329  1.0000
  H   H1817     1.0  0.73886  0.22943  0.37575  1.0000
  H   H1818     1.0  0.73968  0.25593  0.38254  1.0000
  H   H1819     1.0  0.63945  0.01032  0.47426  1.0000
  H   H1820     1.0  0.53689  0.31139  0.35686  1.0000
  H   H1821     1.0  0.98777  0.14648  0.42031  1.0000
  H   H1822     1.0  0.64091  0.99374  0.37762  1.0000
  H   H1823     1.0  0.68213  0.30692  0.31395  1.0000
  C   C1123     1.0  0.94504  0.14211  0.41451  1.0000
  C   C1124     1.0  0.73441  0.18232  0.23409  1.0000
  H   H1824     1.0  0.74339  0.16566  0.24112  1.0000
  H   H1825     1.0  0.86361  0.04006  0.23235  1.0000
  H   H1826     1.0  0.75558  0.30545  0.43399  1.0000
  C   C1125     1.0  0.81658  0.00363  0.33668  1.0000
  H   H1827     1.0  0.97167  0.12608  0.39048  1.0000
  S   S439      1.0  0.89308  0.07577  0.23449  1.0000
  H   H1828     1.0  0.91529  0.25635  0.47481  1.0000
  N   N117      1.0  0.64647  0.98958  0.35544  1.0000
  S   S440      1.0  0.78705  0.98987  0.43829  1.0000
  S   S441      1.0  0.54725  0.05229  0.47578  1.0000
  H   H1829     1.0  0.82906  0.99062  0.41434  1.0000
  H   H1830     1.0  0.85633  0.98729  0.34937  1.0000
  H   H1831     1.0  0.67137  0.16693  0.46974  1.0000
  C   C1126     1.0  0.77555  0.11640  0.47512  1.0000
  H   H1832     1.0  0.49847  0.31503  0.24140  1.0000
  H   H1833     1.0  0.73129  0.24439  0.22819  1.0000
  H   H1834     1.0  0.70732  0.22836  0.22847  1.0000
  C   C1127     1.0  0.53023  0.31784  0.36703  1.0000
  C   C1128     1.0  0.81687  0.05747  0.22814  1.0000
  H   H1835     1.0  0.84178  0.28458  0.66474  1.0000
  H   H1836     1.0  0.73150  0.16083  0.52593  1.0000
  Fe  Fe224     1.0  0.70825  0.11813  0.62412  1.0000
  S   S442      1.0  0.69123  0.08478  0.63502  1.0000
  S   S443      1.0  0.70890  0.14305  0.63929  1.0000
  Fe  Fe225     1.0  0.71680  0.10522  0.59418  1.0000
  S   S444      1.0  0.70103  0.07093  0.60286  1.0000
  S   S445      1.0  0.73115  0.11264  0.56997  1.0000
  Fe  Fe226     1.0  0.67102  0.09417  0.61644  1.0000
  S   S446      1.0  0.63082  0.09452  0.61621  1.0000
  Fe  Fe227     1.0  0.72271  0.06459  0.62048  1.0000
  S   S447      1.0  0.74437  0.02724  0.62915  1.0000
  S   S448      1.0  0.68541  0.12926  0.60652  1.0000
  S   S449      1.0  0.74118  0.09715  0.61082  1.0000
  S   S450      1.0  0.95393  0.98771  0.62674  1.0000
  H   H1837     1.0  0.61955  0.14836  0.72452  1.0000
  Fe  Fe228     1.0  0.79711  0.26421  0.66150  1.0000
  H   H1838     1.0  0.97867  0.21188  0.71272  1.0000
  H   H1839     1.0  0.81130  0.26110  0.63019  1.0000
  C   C1129     1.0  0.51561  0.09475  0.51881  1.0000
  H   H1840     1.0  0.77249  0.01057  0.57970  1.0000
  H   H1841     1.0  0.72279  0.21280  0.66918  1.0000
  H   H1842     1.0  0.72964  0.15485  0.54514  1.0000
  C   C1130     1.0  0.57245  0.06794  0.64336  1.0000
  H   H1843     1.0  0.81185  0.02836  0.63444  1.0000
  C   C1131     1.0  0.85146  0.30055  0.48067  1.0000
  H   H1844     1.0  0.87839  0.30225  0.66406  1.0000
  C   C1132     1.0  0.55976  0.07866  0.51637  1.0000
  H   H1845     1.0  0.73444  0.15903  0.50114  1.0000
  H   H1846     1.0  0.50433  0.07347  0.70319  1.0000
  C   C1133     1.0  0.81166  0.01320  0.62901  1.0000
  C   C1134     1.0  0.82996  0.31176  0.64673  1.0000
  N   N118      1.0  0.83640  0.99694  0.62651  1.0000
  C   C1135     1.0  0.69479  0.25480  0.65648  1.0000
  C   C1136     1.0  0.89488  0.28904  0.48306  1.0000
  H   H1847     1.0  0.53466  0.08515  0.54303  1.0000
  Fe  Fe229     1.0  0.80673  0.21983  0.68548  1.0000
  S   S451      1.0  0.82357  0.20105  0.70533  1.0000
  Fe  Fe230     1.0  0.79194  0.21387  0.65827  1.0000
  S   S452      1.0  0.79685  0.19387  0.63984  1.0000
  S   S453      1.0  0.82386  0.22781  0.66173  1.0000
  S   S454      1.0  0.77707  0.20270  0.68198  1.0000
  Fe  Fe231     1.0  0.66000  0.06076  0.50197  1.0000
  S   S455      1.0  0.63946  0.02923  0.50714  1.0000
  Fe  Fe232     1.0  0.70823  0.08111  0.49409  1.0000
  C   C1137     1.0  0.77178  0.00310  0.59115  1.0000
  Fe  Fe233     1.0  0.66261  0.10552  0.51291  1.0000
  S   S456      1.0  0.64980  0.12453  0.53218  1.0000
  S   S457      1.0  0.68489  0.06688  0.51541  1.0000
  H   H1848     1.0  0.73427  0.18444  0.53464  1.0000
  H   H1849     1.0  0.67213  0.07437  0.55915  1.0000
  C   C1138     1.0  0.73932  0.16426  0.53465  1.0000
  H   H1850     1.0  0.82870  0.98570  0.60850  1.0000
  S   S458      1.0  0.68715  0.12012  0.49245  1.0000
  H   H1851     1.0  0.67021  0.25337  0.71347  1.0000
  H   H1852     1.0  0.77437  0.18965  0.51923  1.0000
  H   H1853     1.0  0.59931  0.00362  0.51114  1.0000
  C   C1139     1.0  0.77876  0.16951  0.51913  1.0000
  N   N119      1.0  0.53483  0.07342  0.52342  1.0000
  C   C1140     1.0  0.49888  0.11435  0.72506  1.0000
  H   H1854     1.0  0.61636  0.09325  0.58713  1.0000
  H   H1855     1.0  0.56577  0.19244  0.71094  1.0000
  S   S459      1.0  0.92153  0.29546  0.48702  1.0000
  C   C1141     1.0  0.63129  0.05620  0.57141  1.0000
  H   H1856     1.0  0.72903  0.11601  0.50475  1.0000
  H   H1857     1.0  0.63281  0.10310  0.56913  1.0000
  C   C1142     1.0  0.67387  0.22567  0.65199  1.0000
  C   C1143     1.0  0.85478  0.01168  0.61749  1.0000
  S   S460      1.0  0.94767  0.99980  0.66733  1.0000
  N   N120      1.0  0.91026  0.11496  0.70681  1.0000
  S   S461      1.0  0.99071  0.04695  0.66900  1.0000
  H   H1858     1.0  0.54624  0.03500  0.52195  1.0000
  S   S462      1.0  0.76649  0.25079  0.65643  1.0000
  H   H1859     1.0  0.55299  0.06935  0.64338  1.0000
  H   H1860     1.0  0.87743  0.12435  0.69744  1.0000
  C   C1144     1.0  0.68108  0.26710  0.71265  1.0000
  C   C1145     1.0  0.74282  0.12287  0.49587  1.0000
  H   H1861     1.0  0.94439  0.12550  0.69440  1.0000
  N   N121      1.0  0.64618  0.06551  0.57886  1.0000
  H   H1862     1.0  0.76663  0.14774  0.55550  1.0000
  C   C1146     1.0  0.49558  0.08574  0.71076  1.0000
  H   H1863     1.0  0.82839  0.29831  0.61760  1.0000
  H   H1864     1.0  0.86410  0.21944  0.68375  1.0000
  H   H1865     1.0  0.82747  0.23124  0.62655  1.0000
  Fe  Fe234     1.0  0.75411  0.24104  0.68043  1.0000
  H   H1866     1.0  0.57485  0.26423  0.72470  1.0000
  C   C1147     1.0  0.70309  0.26776  0.70227  1.0000
  H   H1867     1.0  0.98624  0.23117  0.68689  1.0000
  C   C1148     1.0  0.82339  0.25123  0.62159  1.0000
  S   S463      1.0  0.74978  0.07859  0.48741  1.0000
  H   H1868     1.0  0.81228  0.25319  0.61314  1.0000
  H   H1869     1.0  0.78977  0.24712  0.71709  1.0000
  Fe  Fe235     1.0  0.98377  0.01052  0.66678  1.0000
  H   H1870     1.0  0.84972  0.02059  0.60674  1.0000
  C   C1149     1.0  0.53156  0.05130  0.51913  1.0000
  C   C1150     1.0  0.70834  0.11547  0.55969  1.0000
  C   C1151     1.0  0.71470  0.10574  0.54695  1.0000
  C   C1152     1.0  0.69701  0.10896  0.53825  1.0000
  C   C1153     1.0  0.67288  0.12204  0.54221  1.0000
  C   C1154     1.0  0.66670  0.13221  0.55478  1.0000
  C   C1155     1.0  0.68427  0.12865  0.56361  1.0000
  H   H1871     1.0  0.73315  0.09521  0.54392  1.0000
  H   H1872     1.0  0.70198  0.10105  0.52858  1.0000
  H   H1873     1.0  0.64816  0.14265  0.55779  1.0000
  H   H1874     1.0  0.67930  0.13654  0.57330  1.0000
  C   C1156     1.0  0.75855  0.00856  0.61617  1.0000
  C   C1157     1.0  0.75946  0.01809  0.60137  1.0000
  H   H1875     1.0  0.50432  0.16843  0.68736  1.0000
  H   H1876     1.0  0.85161  0.24992  0.59503  1.0000
  H   H1877     1.0  0.71898  0.20600  0.63936  1.0000
  C   C1158     1.0  0.86171  0.24767  0.60401  1.0000
  H   H1878     1.0  0.75091  0.03708  0.59777  1.0000
  C   C1159     1.0  0.77167  0.25477  0.72363  1.0000
  S   S464      1.0  0.50844  0.01867  0.66134  1.0000
  S   S465      1.0  0.80362  0.30031  0.64696  1.0000
  C   C1160     1.0  0.73596  0.15319  0.63956  1.0000
  C   C1161     1.0  0.73876  0.15805  0.65260  1.0000
  C   C1162     1.0  0.75767  0.17007  0.65287  1.0000
  C   C1163     1.0  0.77418  0.17699  0.64008  1.0000
  C   C1164     1.0  0.77215  0.17106  0.62715  1.0000
  C   C1165     1.0  0.75304  0.15926  0.62687  1.0000
  H   H1879     1.0  0.72599  0.15275  0.66250  1.0000
  H   H1880     1.0  0.75943  0.17401  0.66295  1.0000
  H   H1881     1.0  0.78500  0.17616  0.61724  1.0000
  H   H1882     1.0  0.75100  0.15562  0.61676  1.0000
  C   C1166     1.0  0.58274  0.05388  0.65525  1.0000
  S   S466      1.0  0.63623  0.09864  0.50083  1.0000
  C   C1167     1.0  0.58741  0.08030  0.63142  1.0000
  C   C1168     1.0  0.61265  0.07875  0.63135  1.0000
  C   C1169     1.0  0.62294  0.06455  0.64320  1.0000
  C   C1170     1.0  0.60802  0.05213  0.65509  1.0000
  H   H1883     1.0  0.64237  0.06318  0.64323  1.0000
  H   H1884     1.0  0.61609  0.04128  0.66427  1.0000
  C   C1171     1.0  0.59034  0.06053  0.48021  1.0000
  S   S467      1.0  0.56488  0.03792  0.67045  1.0000
  H   H1885     1.0  0.57011  0.99416  0.65656  1.0000
  H   H1886     1.0  0.54352  0.98912  0.68069  1.0000
  H   H1887     1.0  0.71344  0.23829  0.63171  1.0000
  C   C1172     1.0  0.89471  0.13118  0.69658  1.0000
  H   H1888     1.0  0.56306  0.09515  0.51940  1.0000
  H   H1889     1.0  0.85614  0.02652  0.62283  1.0000
  S   S468      1.0  0.71351  0.24560  0.69101  1.0000
  H   H1890     1.0  0.53001  0.09486  0.71172  1.0000
  H   H1891     1.0  0.86670  0.22749  0.60834  1.0000
  C   C1173     1.0  0.70425  0.21173  0.66750  1.0000
  H   H1892     1.0  0.61177  0.05724  0.57743  1.0000
  H   H1893     1.0  0.90132  0.08199  0.70374  1.0000
  C   C1174     1.0  0.61388  0.03544  0.49841  1.0000
  C   C1175     1.0  0.59671  0.01965  0.50259  1.0000
  N   N122      1.0  0.69756  0.22924  0.65440  1.0000
  H   H1894     1.0  0.49655  0.09106  0.52360  1.0000
  C   C1176     1.0  0.85507  0.19937  0.70555  1.0000
  H   H1895     1.0  0.89013  0.13241  0.72476  1.0000
  S   S469      1.0  0.93694  0.19288  0.70722  1.0000
  Fe  Fe236     1.0  0.50829  0.04658  0.48685  1.0000
  H   H1896     1.0  0.65858  0.22877  0.66142  1.0000
  H   H1897     1.0  0.66822  0.23860  0.64219  1.0000
  N   N123      1.0  0.84645  0.26107  0.61549  1.0000
  H   H1898     1.0  0.71231  0.25797  0.65844  1.0000
  C   C1177     1.0  0.97777  0.03670  0.69885  1.0000
  H   H1899     1.0  0.70488  0.19239  0.66676  1.0000
  Fe  Fe237     1.0  0.66403  0.10824  0.48061  1.0000
  C   C1178     1.0  0.60491  0.15725  0.71794  1.0000
  H   H1900     1.0  0.74247  0.23490  0.71349  1.0000
  H   H1901     1.0  0.73365  0.28662  0.69312  1.0000
  C   C1179     1.0  0.71730  0.22469  0.64166  1.0000
  H   H1902     1.0  0.77258  0.16711  0.50954  1.0000
  H   H1903     1.0  0.73581  0.22578  0.64338  1.0000
  C   C1180     1.0  0.71702  0.28555  0.70130  1.0000
  C   C1181     1.0  0.63502  0.09152  0.57994  1.0000
  C   C1182     1.0  0.89602  0.11379  0.72182  1.0000
  H   H1904     1.0  0.87785  0.26538  0.62302  1.0000
  H   H1905     1.0  0.64670  0.09971  0.58461  1.0000
  C   C1183     1.0  0.64651  0.05042  0.59357  1.0000
  H   H1906     1.0  0.56005  0.16232  0.71116  1.0000
  H   H1907     1.0  0.53211  0.05449  0.50727  1.0000
  H   H1908     1.0  0.57478  0.06278  0.51939  1.0000
  H   H1909     1.0  0.56210  0.08228  0.50433  1.0000
  C   C1184     1.0  0.61068  0.05583  0.48715  1.0000
  N   N124      1.0  0.58031  0.16318  0.72727  1.0000
  C   C1185     1.0  0.68736  0.30163  0.72124  1.0000
  H   H1910     1.0  0.86599  0.23776  0.63195  1.0000
  H   H1911     1.0  0.84942  0.26712  0.63608  1.0000
  C   C1186     1.0  0.91773  0.08982  0.70345  1.0000
  C   C1187     1.0  0.98690  0.08143  0.70192  1.0000
  S   S470      1.0  0.76709  0.18701  0.48082  1.0000
  C   C1188     1.0  0.86640  0.31064  0.65624  1.0000
  H   H1912     1.0  0.63922  0.03662  0.57037  1.0000
  C   C1189     1.0  0.84569  0.30065  0.65666  1.0000
  H   H1913     1.0  0.51711  0.11170  0.52214  1.0000
  H   H1914     1.0  0.62401  0.06789  0.48364  1.0000
  S   S471      1.0  0.50690  0.02267  0.69518  1.0000
  C   C1190     1.0  0.88929  0.18515  0.71879  1.0000
  C   C1191     1.0  0.84009  0.28768  0.60925  1.0000
  C   C1192     1.0  0.90530  0.19559  0.70679  1.0000
  H   H1915     1.0  0.99054  0.09866  0.70301  1.0000
  H   H1916     1.0  0.54640  0.05272  0.54317  1.0000
  H   H1917     1.0  0.68340  0.07187  0.57539  1.0000
  H   H1918     1.0  0.56303  0.01224  0.49895  1.0000
  H   H1919     1.0  0.90491  0.13229  0.68516  1.0000
  H   H1920     1.0  0.51733  0.09893  0.50679  1.0000
  H   H1921     1.0  0.68971  0.26864  0.64686  1.0000
  C   C1193     1.0  0.53229  0.06886  0.53935  1.0000
  H   H1922     1.0  0.65470  0.03065  0.59325  1.0000
  N   N125      1.0  0.76652  0.15524  0.53265  1.0000
  C   C1194     1.0  0.77242  0.12880  0.53169  1.0000
  C   C1195     1.0  0.77559  0.15836  0.54513  1.0000
  H   H1923     1.0  0.76472  0.12552  0.52286  1.0000
  H   H1924     1.0  0.76458  0.11735  0.54201  1.0000
  H   H1925     1.0  0.79283  0.12167  0.52950  1.0000
  H   H1926     1.0  0.79602  0.15164  0.54404  1.0000
  H   H1927     1.0  0.77140  0.17809  0.54620  1.0000
  H   H1928     1.0  0.79933  0.16345  0.51729  1.0000
  H   H1929     1.0  0.87932  0.25456  0.59920  1.0000
  H   H1930     1.0  0.57936  0.09129  0.62228  1.0000
  C   C1196     1.0  0.74622  0.14711  0.49398  1.0000
  H   H1931     1.0  0.62748  0.05161  0.60033  1.0000
  H   H1932     1.0  0.69060  0.21569  0.67746  1.0000
  H   H1933     1.0  0.63077  0.06723  0.56025  1.0000
  C   C1197     1.0  0.57615  0.02454  0.49573  1.0000
  Fe  Fe238     1.0  0.52366  0.04020  0.67275  1.0000
  S   S472      1.0  0.78255  0.25761  0.68550  1.0000
  C   C1198     1.0  0.67186  0.06396  0.57047  1.0000
  H   H1934     1.0  0.92977  0.08963  0.69251  1.0000
  H   H1935     1.0  0.69286  0.17400  0.47851  1.0000
  H   H1936     1.0  0.68126  0.04452  0.56989  1.0000
  H   H1937     1.0  0.68023  0.25876  0.66611  1.0000
  H   H1938     1.0  0.83371  0.31310  0.48221  1.0000
  H   H1939     1.0  0.92776  0.14421  0.70755  1.0000
  H   H1940     1.0  0.82951  0.29096  0.60039  1.0000
  C   C1199     1.0  0.87105  0.20984  0.69352  1.0000
  C   C1200     1.0  0.86428  0.18704  0.71817  1.0000
  H   H1941     1.0  0.67547  0.20651  0.65032  1.0000
  H   H1942     1.0  0.82885  0.98977  0.52609  1.0000
  H   H1943     1.0  0.87369  0.99993  0.61550  1.0000
  C   C1201     1.0  0.89610  0.20799  0.69416  1.0000
  H   H1944     1.0  0.90839  0.21617  0.68484  1.0000
  C   C1202     1.0  0.76439  0.15613  0.48275  1.0000
  H   H1945     1.0  0.65763  0.05698  0.59944  1.0000
  H   H1946     1.0  0.80498  0.02190  0.61866  1.0000
  C   C1203     1.0  0.57276  0.04519  0.48463  1.0000
  C   C1204     1.0  0.51012  0.09785  0.71560  1.0000
  C   C1205     1.0  0.75692  0.10764  0.48622  1.0000
  C   C1206     1.0  0.93267  0.12506  0.70544  1.0000
  C   C1207     1.0  0.70920  0.30239  0.71076  1.0000
  C   C1208     1.0  0.97393  0.04248  0.71268  1.0000
  C   C1209     1.0  0.97816  0.06498  0.71426  1.0000
  C   C1210     1.0  0.86061  0.25765  0.62711  1.0000
  H   H1947     1.0  0.88901  0.15036  0.69875  1.0000
  H   H1948     1.0  0.79740  0.00278  0.63601  1.0000
  C   C1211     1.0  0.56154  0.17487  0.71806  1.0000
  H   H1949     1.0  0.94434  0.11377  0.71335  1.0000
  S   S473      1.0  0.98761  0.13965  0.71844  1.0000
  H   H1950     1.0  0.51358  0.06485  0.54490  1.0000
  C   C1212     1.0  0.98603  0.05337  0.68652  1.0000
  C   C1213     1.0  0.87165  0.30470  0.48535  1.0000
  H   H1951     1.0  0.85704  0.29582  0.60471  1.0000
  H   H1952     1.0  0.61051  0.17420  0.71071  1.0000
  C   C1214     1.0  0.67323  0.28399  0.72217  1.0000
  H   H1953     1.0  0.92844  0.07692  0.71144  1.0000
  H   H1954     1.0  0.60479  0.14430  0.71091  1.0000
  H   H1955     1.0  0.59662  0.98960  0.66464  1.0000
  H   H1956     1.0  0.72006  0.31614  0.70995  1.0000
  H   H1957     1.0  0.51341  0.04618  0.52465  1.0000
  H   H1958     1.0  0.49629  0.13834  0.69256  1.0000
  H   H1959     1.0  0.77087  0.21310  0.71502  1.0000
  H   H1960     1.0  0.97405  0.01947  0.69775  1.0000
  S   S474      1.0  0.68621  0.06994  0.48099  1.0000
  H   H1961     1.0  0.54288  0.17953  0.72479  1.0000
  H   H1962     1.0  0.84505  0.99923  0.64662  1.0000
  S   S475      1.0  0.49628  0.01782  0.50590  1.0000
  H   H1963     1.0  0.76071  0.26858  0.71607  1.0000
  C   C1215     1.0  0.75325  0.22197  0.72138  1.0000
  H   H1964     1.0  0.87901  0.10616  0.72331  1.0000
  C   C1216     1.0  0.99075  0.07566  0.68809  1.0000
  H   H1965     1.0  0.96716  0.02966  0.72218  1.0000
  Fe  Fe239     1.0  0.95214  0.16527  0.72562  1.0000
  H   H1966     1.0  0.74248  0.20728  0.72703  1.0000
  H   H1967     1.0  0.85199  0.17902  0.72754  1.0000
  Fe  Fe240     1.0  0.89405  0.10025  0.88044  1.0000
  S   S476      1.0  0.90474  0.07132  0.89919  1.0000
  S   S477      1.0  0.86002  0.13099  0.88318  1.0000
  Fe  Fe241     1.0  0.93887  0.07879  0.85939  1.0000
  S   S478      1.0  0.95305  0.04835  0.87697  1.0000
  S   S479      1.0  0.96228  0.07879  0.83687  1.0000
  Fe  Fe242     1.0  0.91325  0.04409  0.88426  1.0000
  S   S480      1.0  0.89890  0.00817  0.89367  1.0000
  Fe  Fe243     1.0  0.94333  0.07822  0.89017  1.0000
  S   S481      1.0  0.96373  0.08261  0.90666  1.0000
  S   S482      1.0  0.89948  0.07276  0.86595  1.0000
  S   S483      1.0  0.93228  0.10896  0.87213  1.0000
  C   C1217     1.0  0.82342  0.29652  0.95981  1.0000
  H   H1968     1.0  0.63894  0.24498  0.93326  1.0000
  S   S484      1.0  0.71173  0.08864  0.95761  1.0000
  C   C1218     1.0  0.60169  0.25774  0.85243  1.0000
  S   S485      1.0  0.82062  0.16899  0.94284  1.0000
  Fe  Fe244     1.0  0.61200  0.20605  0.89493  1.0000
  S   S486      1.0  0.57202  0.22286  0.90299  1.0000
  S   S487      1.0  0.64061  0.21863  0.87555  1.0000
  Fe  Fe245     1.0  0.60838  0.15641  0.91470  1.0000
  S   S488      1.0  0.56833  0.16841  0.92436  1.0000
  S   S489      1.0  0.63001  0.11755  0.91900  1.0000
  Fe  Fe246     1.0  0.56347  0.18668  0.90172  1.0000
  S   S490      1.0  0.53055  0.18577  0.89232  1.0000
  Fe  Fe247     1.0  0.57977  0.20334  0.92515  1.0000
  S   S491      1.0  0.56516  0.21454  0.94709  1.0000
  S   S492      1.0  0.60253  0.17161  0.89197  1.0000
  S   S493      1.0  0.62061  0.18962  0.91718  1.0000
  H   H1969     1.0  0.59321  0.27529  0.74270  1.0000
  C   C1219     1.0  0.58120  0.18044  0.73637  1.0000
  H   H1970     1.0  0.62780  0.19825  0.96704  1.0000
  H   H1971     1.0  0.92917  0.00074  0.86540  1.0000
  H   H1972     1.0  0.59571  0.30718  0.85129  1.0000
  C   C1220     1.0  0.92567  0.17199  0.88104  1.0000
  C   C1221     1.0  0.96934  0.27631  0.94729  1.0000
  N   N126      1.0  0.70657  0.20636  0.90157  1.0000
  C   C1222     1.0  0.70212  0.27930  0.91896  1.0000
  H   H1973     1.0  0.67488  0.20789  0.91893  1.0000
  H   H1974     1.0  0.56290  0.18538  0.74352  1.0000
  S   S494      1.0  0.79516  0.24108  0.92926  1.0000
  C   C1223     1.0  0.81120  0.29115  0.97421  1.0000
  C   C1224     1.0  0.61772  0.21750  0.96778  1.0000
  Fe  Fe248     1.0  0.95256  0.14346  0.75767  1.0000
  H   H1975     1.0  0.66666  0.21458  0.95722  1.0000
  S   S495      1.0  0.93237  0.15046  0.77993  1.0000
  H   H1976     1.0  0.87670  0.17870  0.89044  1.0000
  C   C1225     1.0  0.55189  0.24250  0.76580  1.0000
  H   H1977     1.0  0.51842  0.11337  0.85853  1.0000
  C   C1226     1.0  0.50648  0.15576  0.88444  1.0000
  C   C1227     1.0  0.67029  0.30844  0.90737  1.0000
  H   H1978     1.0  0.90164  0.13604  0.89615  1.0000
  S   S496      1.0  0.69185  0.31128  0.86393  1.0000
  S   S497      1.0  0.93452  0.13551  0.74128  1.0000
  S   S498      1.0  0.96677  0.17581  0.74249  1.0000
  H   H1979     1.0  0.96927  0.17691  0.78620  1.0000
  H   H1980     1.0  0.92037  0.22429  0.96490  1.0000
  H   H1981     1.0  0.59822  0.21869  0.96671  1.0000
  C   C1228     1.0  0.50132  0.13292  0.88406  1.0000
  H   H1982     1.0  0.69983  0.28029  0.94142  1.0000
  H   H1983     1.0  0.55492  0.30498  0.93505  1.0000
  H   H1984     1.0  0.61721  0.25261  0.82449  1.0000
  C   C1229     1.0  0.88714  0.18443  0.89712  1.0000
  S   S499      1.0  0.51698  0.13157  0.72958  1.0000
  H   H1985     1.0  0.70585  0.23468  0.88241  1.0000
  C   C1230     1.0  0.54136  0.23639  0.75566  1.0000
  H   H1986     1.0  0.56111  0.31783  0.73436  1.0000
  H   H1987     1.0  0.65637  0.28329  0.73026  1.0000
  S   S500      1.0  0.75262  0.20952  0.94838  1.0000
  C   C1231     1.0  0.62976  0.23163  0.94202  1.0000
  H   H1988     1.0  0.88725  0.20444  0.89307  1.0000
  Fe  Fe249     1.0  0.49492  0.16553  0.73804  1.0000
  C   C1232     1.0  0.68463  0.22041  0.90994  1.0000
  C   C1233     1.0  0.94820  0.29467  0.95010  1.0000
  N   N127      1.0  0.55260  0.09857  0.84554  1.0000
  H   H1989     1.0  0.50197  0.16436  0.91963  1.0000
  C   C1234     1.0  0.60542  0.08571  0.96017  1.0000
  H   H1990     1.0  0.92717  0.19149  0.87612  1.0000
  H   H1991     1.0  0.94558  0.16750  0.90439  1.0000
  H   H1992     1.0  0.72218  0.25916  0.73287  1.0000
  N   N128      1.0  0.91264  0.16957  0.89634  1.0000
  C   C1235     1.0  0.51572  0.11087  0.89008  1.0000
  S   S501      1.0  0.64016  0.29539  0.77060  1.0000
  H   H1993     1.0  0.57163  0.12113  0.85239  1.0000
  C   C1236     1.0  0.52577  0.15678  0.89106  1.0000
  C   C1237     1.0  0.54012  0.13474  0.89710  1.0000
  C   C1238     1.0  0.53513  0.11189  0.89657  1.0000
  H   H1994     1.0  0.64733  0.25988  0.83787  1.0000
  H   H1995     1.0  0.90739  0.10178  0.72980  1.0000
  H   H1996     1.0  0.55502  0.13528  0.90224  1.0000
  H   H1997     1.0  0.54636  0.09492  0.90125  1.0000
  C   C1239     1.0  0.55139  0.24490  0.94959  1.0000
  C   C1240     1.0  0.55823  0.26538  0.93953  1.0000
  C   C1241     1.0  0.54897  0.28921  0.94267  1.0000
  C   C1242     1.0  0.53219  0.29277  0.95562  1.0000
  H   H1998     1.0  0.98854  0.13890  0.77728  1.0000
  C   C1243     1.0  0.53466  0.24847  0.96256  1.0000
  H   H1999     1.0  0.57125  0.26283  0.92956  1.0000
  S   S502      1.0  0.51059  0.08171  0.88936  1.0000
  H   H2000     1.0  0.71567  0.17938  0.92030  1.0000
  H   H2001     1.0  0.58198  0.25611  0.85386  1.0000
  H   H2002     1.0  0.94487  0.16073  0.88007  1.0000
  C   C1244     1.0  0.68624  0.26750  0.85912  1.0000
  C   C1245     1.0  0.67494  0.24699  0.86175  1.0000
  C   C1246     1.0  0.65437  0.24435  0.87299  1.0000
  C   C1247     1.0  0.64519  0.26222  0.88165  1.0000
  C   C1248     1.0  0.65650  0.28277  0.87898  1.0000
  H   H2003     1.0  0.61564  0.26511  0.96874  1.0000
  H   H2004     1.0  0.68215  0.23317  0.85499  1.0000
  H   H2005     1.0  0.62932  0.26032  0.89036  1.0000
  H   H2006     1.0  0.57230  0.12694  0.73011  1.0000
  Fe  Fe250     1.0  0.75343  0.24680  0.93424  1.0000
  C   C1249     1.0  0.67696  0.28571  0.86762  1.0000
  H   H2007     1.0  0.49788  0.31033  0.75473  1.0000
  H   H2008     1.0  0.71460  0.17763  0.88911  1.0000
  C   C1250     1.0  0.69127  0.09970  0.94534  1.0000
  C   C1251     1.0  0.69291  0.08652  0.93452  1.0000
  C   C1252     1.0  0.67451  0.09286  0.92604  1.0000
  C   C1253     1.0  0.65479  0.11283  0.92805  1.0000
  C   C1254     1.0  0.65394  0.12703  0.93825  1.0000
  C   C1255     1.0  0.67210  0.12032  0.94698  1.0000
  H   H2009     1.0  0.70768  0.07059  0.93322  1.0000
  H   H2010     1.0  0.67524  0.08186  0.91815  1.0000
  H   H2011     1.0  0.63862  0.14233  0.93994  1.0000
  H   H2012     1.0  0.67099  0.13078  0.95520  1.0000
  C   C1256     1.0  0.64283  0.05558  0.96346  1.0000
  C   C1257     1.0  0.97773  0.10858  0.90242  1.0000
  H   H2013     1.0  0.64133  0.29110  0.82836  1.0000
  S   S503      1.0  0.97067  0.07252  0.73168  1.0000
  H   H2014     1.0  0.93252  0.29658  0.94502  1.0000
  H   H2015     1.0  0.87340  0.26421  0.96269  1.0000
  H   H2016     1.0  0.97543  0.10949  0.92483  1.0000
  H   H2017     1.0  0.90155  0.14076  0.91392  1.0000
  H   H2018     1.0  0.53147  0.13577  0.84423  1.0000
  Fe  Fe251     1.0  0.79400  0.20536  0.94511  1.0000
  C   C1258     1.0  0.98133  0.11818  0.91370  1.0000
  C   C1259     1.0  0.84771  0.14045  0.90004  1.0000
  C   C1260     1.0  0.83026  0.16266  0.90063  1.0000
  C   C1261     1.0  0.82154  0.17159  0.91371  1.0000
  C   C1262     1.0  0.83004  0.15816  0.92631  1.0000
  C   C1263     1.0  0.84696  0.13566  0.92579  1.0000
  C   C1264     1.0  0.85572  0.12681  0.91273  1.0000
  H   H2019     1.0  0.82390  0.17329  0.89086  1.0000
  H   H2020     1.0  0.80845  0.18893  0.91401  1.0000
  H   H2021     1.0  0.85355  0.12516  0.93552  1.0000
  H   H2022     1.0  0.86905  0.10967  0.91248  1.0000
  H   H2023     1.0  0.79689  0.28020  0.97699  1.0000
  H   H2024     1.0  0.77309  0.30053  0.90247  1.0000
  C   C1265     1.0  0.87561  0.25224  0.97343  1.0000
  H   H2025     1.0  0.57256  0.30045  0.84358  1.0000
  H   H2026     1.0  0.63785  0.28482  0.84772  1.0000
  H   H2027     1.0  0.65341  0.03656  0.96267  1.0000
  C   C1266     1.0  0.69097  0.28916  0.90685  1.0000
  C   C1267     1.0  0.95203  0.09775  0.82129  1.0000
  C   C1268     1.0  0.93334  0.11886  0.82215  1.0000
  C   C1269     1.0  0.92706  0.13461  0.80938  1.0000
  C   C1270     1.0  0.93915  0.12915  0.79571  1.0000
  C   C1271     1.0  0.95732  0.10765  0.79489  1.0000
  C   C1272     1.0  0.96395  0.09220  0.80763  1.0000
  H   H2028     1.0  0.92409  0.12328  0.83264  1.0000
  H   H2029     1.0  0.91292  0.15116  0.81009  1.0000
  H   H2030     1.0  0.96645  0.10298  0.78447  1.0000
  H   H2031     1.0  0.75048  0.31622  0.87467  1.0000
  Fe  Fe252     1.0  0.75098  0.22930  0.96613  1.0000
  H   H2032     1.0  0.60333  0.05948  0.94102  1.0000
  N   N129      1.0  0.75804  0.23496  0.73170  1.0000
  H   H2033     1.0  0.99280  0.19190  0.77392  1.0000
  H   H2034     1.0  0.68535  0.19841  0.88803  1.0000
  C   C1273     1.0  0.52468  0.27237  0.96545  1.0000
  H   H2035     1.0  0.49537  0.17271  0.87965  1.0000
  C   C1274     1.0  0.57354  0.14020  0.73664  1.0000
  H   H2036     1.0  0.73046  0.20560  0.91610  1.0000
  H   H2037     1.0  0.63315  0.06786  0.93666  1.0000
  N   N130      1.0  0.60860  0.27692  0.83978  1.0000
  C   C1275     1.0  0.59260  0.30107  0.84183  1.0000
  C   C1276     1.0  0.52873  0.11632  0.84715  1.0000
  C   C1277     1.0  0.65560  0.23336  0.95829  1.0000
  H   H2038     1.0  0.87408  0.23336  0.97282  1.0000
  H   H2039     1.0  0.65431  0.06876  0.95632  1.0000
  H   H2040     1.0  0.98194  0.11288  0.87930  1.0000
  H   H2041     1.0  0.58668  0.08967  0.95736  1.0000
  C   C1278     1.0  0.54785  0.07312  0.84975  1.0000
  C   C1279     1.0  0.77320  0.21720  0.74163  1.0000
  N   N131      1.0  0.61822  0.05993  0.95948  1.0000
  H   H2042     1.0  0.53820  0.06924  0.86127  1.0000
  H   H2043     1.0  0.91577  0.16553  0.87437  1.0000
  C   C1280     1.0  0.60526  0.27064  0.82644  1.0000
  Fe  Fe253     1.0  0.97116  0.11042  0.73517  1.0000
  H   H2044     1.0  0.93858  0.24380  0.96801  1.0000
  S   S504      1.0  0.49728  0.08521  0.82398  1.0000
  H   H2045     1.0  0.73519  0.21372  0.88290  1.0000
  H   H2046     1.0  0.91699  0.17672  0.91639  1.0000
  H   H2047     1.0  0.64940  0.29598  0.88594  1.0000
  H   H2048     1.0  0.50438  0.31063  0.93070  1.0000
  C   C1281     1.0  0.92017  0.24351  0.96579  1.0000
  H   H2049     1.0  0.55863  0.09865  0.86668  1.0000
  H   H2050     1.0  0.69003  0.23393  0.91470  1.0000
  H   H2051     1.0  0.67105  0.23102  0.90294  1.0000
  C   C1282     1.0  0.65961  0.31747  0.92011  1.0000
  H   H2052     1.0  0.61047  0.23383  0.94029  1.0000
  H   H2053     1.0  0.54545  0.23639  0.77728  1.0000
  N   N132      1.0  0.83302  0.05369  0.90944  1.0000
  C   C1283     1.0  0.81011  0.07060  0.91482  1.0000
  C   C1284     1.0  0.84436  0.06518  0.89477  1.0000
  C   C1285     1.0  0.82703  0.03007  0.90880  1.0000
  C   C1286     1.0  0.85071  0.04892  0.91935  1.0000
  H   H2054     1.0  0.79628  0.07453  0.90764  1.0000
  H   H2055     1.0  0.81414  0.08867  0.91526  1.0000
  H   H2056     1.0  0.80111  0.06266  0.92594  1.0000
  H   H2057     1.0  0.83147  0.06940  0.88701  1.0000
  H   H2058     1.0  0.84958  0.08281  0.89484  1.0000
  H   H2059     1.0  0.86149  0.05276  0.89030  1.0000
  H   H2060     1.0  0.84410  0.01697  0.90481  1.0000
  H   H2061     1.0  0.81395  0.03289  0.90130  1.0000
  H   H2062     1.0  0.81841  0.02082  0.91968  1.0000
  H   H2063     1.0  0.86834  0.03638  0.91553  1.0000
  H   H2064     1.0  0.84288  0.04002  0.93050  1.0000
  H   H2065     1.0  0.85562  0.06634  0.92013  1.0000
  H   H2066     1.0  0.73971  0.29689  0.89142  1.0000
  C   C1287     1.0  0.69854  0.18869  0.89545  1.0000
  C   C1288     1.0  0.92629  0.17838  0.90478  1.0000
  C   C1289     1.0  0.56555  0.10284  0.83025  1.0000
  C   C1290     1.0  0.72421  0.19275  0.91123  1.0000
  H   H2067     1.0  0.58564  0.26949  0.82704  1.0000
  C   C1291     1.0  0.56834  0.25824  0.73618  1.0000
  H   H2068     1.0  0.63945  0.21255  0.94070  1.0000
  H   H2069     1.0  0.76360  0.20187  0.74783  1.0000
  H   H2070     1.0  0.56927  0.12194  0.82668  1.0000
  H   H2071     1.0  0.52938  0.23263  0.97039  1.0000
  H   H2072     1.0  0.52696  0.29479  0.74593  1.0000
  H   H2073     1.0  0.65628  0.23625  0.96918  1.0000
  H   H2074     1.0  0.87637  0.18221  0.90845  1.0000
  Fe  Fe254     1.0  0.60150  0.29749  0.76757  1.0000
  H   H2075     1.0  0.55414  0.10034  0.82291  1.0000
  C   C1292     1.0  0.94721  0.31054  0.95946  1.0000
  H   H2076     1.0  0.70205  0.26941  0.85036  1.0000
  H   H2077     1.0  0.92773  0.19808  0.90047  1.0000
  H   H2078     1.0  0.52684  0.22565  0.75934  1.0000
  C   C1293     1.0  0.63490  0.27823  0.83840  1.0000
  H   H2079     1.0  0.63064  0.03620  0.94378  1.0000
  H   H2080     1.0  0.85145  0.31510  0.94526  1.0000
  H   H2081     1.0  0.74115  0.18216  0.90523  1.0000
  H   H2082     1.0  0.56541  0.05915  0.84858  1.0000
  C   C1294     1.0  0.69136  0.28781  0.93197  1.0000
  C   C1295     1.0  0.96759  0.30843  0.96585  1.0000
  H   H2083     1.0  0.77720  0.22633  0.74959  1.0000
  H   H2084     1.0  0.59613  0.26356  0.95684  1.0000
  H   H2085     1.0  0.59519  0.17238  0.74346  1.0000
  H   H2086     1.0  0.64100  0.05794  0.97478  1.0000
  H   H2087     1.0  0.89606  0.17592  0.72865  1.0000
  H   H2088     1.0  0.51664  0.11429  0.84009  1.0000
  H   H2089     1.0  0.72542  0.23704  0.89388  1.0000
  C   C1296     1.0  0.56803  0.10199  0.85506  1.0000
  H   H2090     1.0  0.61345  0.23924  0.85129  1.0000
  C   C1297     1.0  0.62146  0.05562  0.94459  1.0000
  H   H2091     1.0  0.79141  0.20875  0.73552  1.0000
  H   H2092     1.0  0.62418  0.27543  0.94951  1.0000
  H   H2093     1.0  0.73095  0.31321  0.91497  1.0000
  H   H2094     1.0  0.51161  0.27499  0.97538  1.0000
  N   N133      1.0  0.62973  0.23589  0.95653  1.0000
  C   C1298     1.0  0.98982  0.27436  0.95355  1.0000
  H   H2095     1.0  0.58364  0.08971  0.82859  1.0000
  C   C1299     1.0  0.61581  0.26109  0.95799  1.0000
  C   C1300     1.0  0.57043  0.25674  0.76118  1.0000
  H   H2096     1.0  0.58728  0.13075  0.74374  1.0000
  C   C1301     1.0  0.57865  0.26462  0.74634  1.0000
  H   H2097     1.0  0.97832  0.07580  0.80692  1.0000
  H   H2098     1.0  0.66183  0.31369  0.94251  1.0000
  S   S505      1.0  0.79248  0.22196  0.96440  1.0000
  S   S506      1.0  0.81640  0.28570  0.94577  1.0000
  H   H2099     1.0  0.93025  0.13159  0.90210  1.0000
  H   H2100     1.0  0.68891  0.17551  0.90411  1.0000
  H   H2101     1.0  0.71808  0.18717  0.97219  1.0000
  S   S507      1.0  0.96876  0.25529  0.93665  1.0000
  H   H2102     1.0  0.73691  0.25629  0.74785  1.0000
  S   S508      1.0  0.73047  0.25797  0.91677  1.0000
  H   H2103     1.0  0.69896  0.28274  0.89674  1.0000
  C   C1302     1.0  0.98820  0.18078  0.78497  1.0000
  C   C1303     1.0  0.71882  0.22365  0.88966  1.0000
  H   H2104     1.0  0.89850  0.29068  0.96758  1.0000
  S   S509      1.0  0.74926  0.26721  0.95211  1.0000
  S   S510      1.0  0.58262  0.26467  0.77423  1.0000
  H   H2105     1.0  0.55005  0.30749  0.76099  1.0000
  Fe  Fe255     1.0  0.79109  0.25827  0.94873  1.0000
  C   C1304     1.0  0.54959  0.24423  0.74083  1.0000
  C   C1305     1.0  0.91143  0.14337  0.90242  1.0000
  H   H2106     1.0  0.53592  0.07000  0.84292  1.0000
  C   C1306     1.0  0.98458  0.12024  0.88806  1.0000
  C   C1307     1.0  0.73868  0.31641  0.88564  1.0000
  H   H2107     1.0  0.61035  0.28485  0.81670  1.0000
  S   S511      1.0  0.51037  0.18001  0.75296  1.0000
  H   H2108     1.0  0.91876  0.25532  0.95492  1.0000
  H   H2109     1.0  0.58627  0.08897  0.85412  1.0000
  H   H2110     1.0  0.49990  0.10170  0.79327  1.0000
  H   H2111     1.0  0.66289  0.31683  0.89773  1.0000
  H   H2112     1.0  0.66522  0.24705  0.95005  1.0000
  H   H2113     1.0  0.99412  0.14697  0.91937  1.0000
  C   C1308     1.0  0.66987  0.30671  0.93259  1.0000
  C   C1309     1.0  0.84189  0.31088  0.95639  1.0000
  H   H2114     1.0  0.72336  0.23154  0.74645  1.0000
  H   H2115     1.0  0.77570  0.26489  0.73108  1.0000
  H   H2116     1.0  0.55501  0.14395  0.74379  1.0000
  Fe  Fe256     1.0  0.50550  0.21578  0.73716  1.0000
  H   H2117     1.0  0.60314  0.08965  0.97123  1.0000
  H   H2118     1.0  0.61610  0.09909  0.95245  1.0000
  C   C1310     1.0  0.99187  0.13932  0.91064  1.0000
  C   C1311     1.0  0.73412  0.24591  0.74011  1.0000
  H   H2119     1.0  0.68473  0.16329  0.97635  1.0000
  H   H2120     1.0  0.60420  0.26192  0.86263  1.0000
  H   H2121     1.0  0.98094  0.13953  0.80396  1.0000
  H   H2122     1.0  0.59643  0.31567  0.83216  1.0000
  C   C1312     1.0  0.98900  0.29054  0.96272  1.0000
  H   H2123     1.0  0.58585  0.19815  0.72963  1.0000
  C   C1313     1.0  0.51396  0.31298  0.74570  1.0000
  H   H2124     1.0  0.98714  0.19248  0.79293  1.0000
  S   S512      1.0  0.98792  0.11605  0.75283  1.0000
  H   H2125     1.0  0.58501  0.04468  0.96662  1.0000
  C   C1314     1.0  0.60323  0.04282  0.96971  1.0000
  H   H2126     1.0  0.61305  0.02320  0.97018  1.0000
  H   H2127     1.0  0.50705  0.31765  0.73532  1.0000
  N   N134      1.0  0.89954  0.25233  0.97713  1.0000
  S   S513      1.0  0.53679  0.23668  0.72794  1.0000
  Fe  Fe257     1.0  0.92882  0.34573  0.98834  1.0000
  Fe  Fe258     1.0  0.89169  0.39316  0.99197  1.0000
  S   S514      1.0  0.86610  0.37271  0.00949  1.0000
  H   H2128     1.0  0.73340  0.33255  0.22071  1.0000
  Fe  Fe259     1.0  0.90025  0.35246  0.01830  1.0000
  Fe  Fe260     1.0  0.56655  0.40407  0.18786  1.0000
  Fe  Fe261     1.0  0.87422  0.34402  0.99558  1.0000
  H   H2129     1.0  0.58678  0.44539  0.18419  1.0000
  S   S515      1.0  0.92543  0.37452  0.00162  1.0000
  C   C1315     1.0  0.98874  0.60496  0.02993  1.0000
  C   C1316     1.0  0.91579  0.35074  0.06516  1.0000
  H   H2130     1.0  0.64879  0.47983  0.16439  1.0000
  Fe  Fe262     1.0  0.93341  0.54703  0.99533  1.0000
  S   S516      1.0  0.89710  0.57130  0.00280  1.0000
  C   C1317     1.0  0.89430  0.63656  0.16703  1.0000
  S   S517      1.0  0.92614  0.61925  0.99081  1.0000
  Fe  Fe263     1.0  0.92009  0.59048  0.01121  1.0000
  S   S518      1.0  0.91087  0.59537  0.03460  1.0000
  C   C1318     1.0  0.64446  0.38275  0.20459  1.0000
  S   S519      1.0  0.90639  0.32194  0.00595  1.0000
  S   S520      1.0  0.95578  0.56421  0.00522  1.0000
  H   H2131     1.0  0.52575  0.56596  0.13340  1.0000
  H   H2132     1.0  0.95556  0.45676  0.99024  1.0000
  Fe  Fe264     1.0  0.53619  0.45462  0.17825  1.0000
  H   H2133     1.0  0.49947  0.36407  0.09333  1.0000
  S   S521      1.0  0.53870  0.49484  0.17272  1.0000
  H   H2134     1.0  0.53215  0.54567  0.15834  1.0000
  C   C1319     1.0  0.61436  0.40497  0.22719  1.0000
  N   N135      1.0  0.87357  0.45965  0.21783  1.0000
  S   S522      1.0  0.54224  0.43279  0.20013  1.0000
  H   H2135     1.0  0.97233  0.60391  0.02574  1.0000
  H   H2136     1.0  0.81947  0.37442  0.99966  1.0000
  C   C1320     1.0  0.51945  0.32188  0.14782  1.0000
  H   H2137     1.0  0.94933  0.40263  0.05169  1.0000
  C   C1321     1.0  0.93564  0.46268  0.99109  1.0000
  S   S523      1.0  0.52366  0.54555  0.10894  1.0000
  N   N136      1.0  0.61734  0.46199  0.17195  1.0000
  H   H2138     1.0  0.54424  0.34154  0.11893  1.0000
  N   N137      1.0  0.53582  0.34603  0.09775  1.0000
  H   H2139     1.0  0.94385  0.63362  0.16285  1.0000
  H   H2140     1.0  0.93111  0.35132  0.08345  1.0000
  H   H2141     1.0  0.64518  0.46439  0.18307  1.0000
  S   S524      1.0  0.94267  0.50521  0.99675  1.0000
  H   H2142     1.0  0.96457  0.40601  0.16162  1.0000
  H   H2143     1.0  0.61723  0.48114  0.14987  1.0000
  H   H2144     1.0  0.90353  0.62074  0.14151  1.0000
  C   C1322     1.0  0.92174  0.61779  0.04002  1.0000
  C   C1323     1.0  0.99359  0.64375  0.01375  1.0000
  C   C1324     1.0  0.92078  0.34835  0.05060  1.0000
  H   H2145     1.0  0.85414  0.64044  0.98625  1.0000
  C   C1325     1.0  0.92467  0.61425  0.05445  1.0000
  C   C1326     1.0  0.97415  0.58741  0.13223  1.0000
  Fe  Fe265     1.0  0.52907  0.41023  0.16830  1.0000
  C   C1327     1.0  0.61888  0.39092  0.20467  1.0000
  C   C1328     1.0  0.86663  0.48456  0.22148  1.0000
  H   H2146     1.0  0.95865  0.39547  0.02678  1.0000
  C   C1329     1.0  0.94531  0.34545  0.04296  1.0000
  H   H2147     1.0  0.86458  0.48388  0.99348  1.0000
  S   S525      1.0  0.95173  0.60346  0.12179  1.0000
  C   C1330     1.0  0.90244  0.64076  0.14100  1.0000
  H   H2148     1.0  0.50406  0.36471  0.11105  1.0000
  C   C1331     1.0  0.88445  0.47794  0.99276  1.0000
  H   H2149     1.0  0.59349  0.49515  0.16318  1.0000
  Fe  Fe266     1.0  0.51096  0.41533  0.19950  1.0000
  H   H2150     1.0  0.58700  0.47423  0.18855  1.0000
  C   C1332     1.0  0.89538  0.45869  0.20583  1.0000
  H   H2151     1.0  0.89327  0.42816  0.03502  1.0000
  H   H2152     1.0  0.84704  0.46796  0.20377  1.0000
  H   H2153     1.0  0.90740  0.44966  0.02058  1.0000
  S   S526      1.0  0.56227  0.42706  0.16586  1.0000
  H   H2154     1.0  0.54598  0.35596  0.16242  1.0000
  H   H2155     1.0  0.81569  0.42914  0.98853  1.0000
  H   H2156     1.0  0.94440  0.45764  0.03680  1.0000
  H   H2157     1.0  0.98693  0.50075  0.12370  1.0000
  H   H2158     1.0  0.92511  0.64198  0.01915  1.0000
  H   H2159     1.0  0.92676  0.39436  0.02784  1.0000
  C   C1333     1.0  0.60388  0.40211  0.21600  1.0000
  H   H2160     1.0  0.91409  0.64765  0.13048  1.0000
  C   C1334     1.0  0.53610  0.50877  0.15474  1.0000
  C   C1335     1.0  0.53253  0.53455  0.15058  1.0000
  C   C1336     1.0  0.52876  0.54606  0.13651  1.0000
  C   C1337     1.0  0.52923  0.53176  0.12645  1.0000
  C   C1338     1.0  0.53355  0.50595  0.13051  1.0000
  C   C1339     1.0  0.53660  0.49448  0.14469  1.0000
  H   H2161     1.0  0.90045  0.45497  0.03879  1.0000
  H   H2162     1.0  0.58415  0.40832  0.21624  1.0000
  H   H2163     1.0  0.53860  0.38031  0.08280  1.0000
  H   H2164     1.0  0.53917  0.47459  0.14783  1.0000
  C   C1340     1.0  0.92168  0.44671  0.98911  1.0000
  H   H2165     1.0  0.75764  0.63056  0.22725  1.0000
  S   S527      1.0  0.94112  0.35374  0.11122  1.0000
  H   H2166     1.0  0.91988  0.59805  0.06211  1.0000
  H   H2167     1.0  0.50001  0.33681  0.10701  1.0000
  C   C1341     1.0  0.65498  0.38566  0.21579  1.0000
  H   H2168     1.0  0.54308  0.37980  0.10068  1.0000
  C   C1342     1.0  0.89602  0.45427  0.98989  1.0000
  C   C1343     1.0  0.98769  0.55269  0.15069  1.0000
  H   H2169     1.0  0.93680  0.62820  0.07005  1.0000
  H   H2170     1.0  0.56111  0.32580  0.08219  1.0000
  C   C1344     1.0  0.60416  0.47716  0.16032  1.0000
  H   H2171     1.0  0.61844  0.42785  0.16559  1.0000
  C   C1345     1.0  0.92770  0.63889  0.03022  1.0000
  H   H2172     1.0  0.88929  0.51165  0.99766  1.0000
  H   H2173     1.0  0.88209  0.48932  0.22490  1.0000
  C   C1346     1.0  0.95159  0.48504  0.21402  1.0000
  H   H2174     1.0  0.89682  0.35357  0.07103  1.0000
  C   C1347     1.0  0.93416  0.63133  0.05898  1.0000
  H   H2175     1.0  0.86165  0.49907  0.21209  1.0000
  C   C1348     1.0  0.93520  0.34958  0.07221  1.0000
  S   S528      1.0  0.60645  0.38714  0.19033  1.0000
  H   H2176     1.0  0.83571  0.45474  0.22223  1.0000
  H   H2177     1.0  0.67466  0.37916  0.21568  1.0000
  C   C1349     1.0  0.50868  0.35331  0.10251  1.0000
  C   C1350     1.0  0.53491  0.32731  0.15557  1.0000
  H   H2178     1.0  0.88289  0.65036  0.14067  1.0000
  C   C1351     1.0  0.63991  0.39671  0.22717  1.0000
  H   H2179     1.0  0.90121  0.44018  0.20275  1.0000
  H   H2180     1.0  0.95117  0.45252  0.01860  1.0000
  C   C1352     1.0  0.54085  0.33149  0.08619  1.0000
  H   H2181     1.0  0.85697  0.43557  0.21053  1.0000
  H   H2182     1.0  0.64057  0.42607  0.17648  1.0000
  H   H2183     1.0  0.84319  0.40617  0.98534  1.0000
  C   C1353     1.0  0.89840  0.49377  0.99502  1.0000
  H   H2184     1.0  0.64547  0.44125  0.15771  1.0000
  H   H2185     1.0  0.65618  0.37399  0.19588  1.0000
  H   H2186     1.0  0.53212  0.34211  0.07679  1.0000
  H   H2187     1.0  0.95258  0.55977  0.14378  1.0000
  H   H2188     1.0  0.94958  0.63643  0.14350  1.0000
  S   S529      1.0  0.96658  0.46031  0.20526  1.0000
  H   H2189     1.0  0.98428  0.53622  0.15851  1.0000
  H   H2190     1.0  0.96941  0.51208  0.19807  1.0000
  Fe  Fe267     1.0  0.96562  0.35043  0.12713  1.0000
  C   C1354     1.0  0.92413  0.48627  0.99402  1.0000
  S   S530      1.0  0.53562  0.38425  0.18914  1.0000
  H   H2191     1.0  0.53390  0.49481  0.12276  1.0000
  C   C1355     1.0  0.53373  0.35185  0.15663  1.0000
  H   H2192     1.0  0.60836  0.44659  0.19470  1.0000
  H   H2193     1.0  0.62489  0.49324  0.17784  1.0000
  H   H2194     1.0  0.97681  0.64426  0.00944  1.0000
  Fe  Fe268     1.0  0.96029  0.63893  0.10729  1.0000
  C   C1356     1.0  0.94442  0.52831  0.21545  1.0000
  Fe  Fe269     1.0  0.49896  0.58324  0.10618  1.0000
  H   H2195     1.0  0.49678  0.64115  0.00817  1.0000
  H   H2196     1.0  0.94935  0.34349  0.03173  1.0000
  S   S531      1.0  0.50243  0.44013  0.17883  1.0000
  H   H2197     1.0  0.77713  0.42618  0.98109  1.0000
  H   H2198     1.0  0.80369  0.32195  0.17432  1.0000
  S   S532      1.0  0.98911  0.64231  0.08682  1.0000
  H   H2199     1.0  0.92528  0.42783  0.05694  1.0000
  C   C1357     1.0  0.85243  0.45423  0.21337  1.0000
  S   S533      1.0  0.96094  0.37851  0.14128  1.0000
  H   H2200     1.0  0.87481  0.64693  0.16712  1.0000
  S   S534      1.0  0.50384  0.61108  0.08535  1.0000
  H   H2201     1.0  0.91169  0.46259  0.20888  1.0000
  H   H2202     1.0  0.89145  0.47259  0.19598  1.0000
  C   C1358     1.0  0.63485  0.47548  0.17441  1.0000
  C   C1359     1.0  0.90719  0.44035  0.03211  1.0000
  C   C1360     1.0  0.63114  0.43834  0.16771  1.0000
  C   C1361     1.0  0.96477  0.34463  0.05000  1.0000
  N   N138      1.0  0.93209  0.42611  0.03429  1.0000
  C   C1362     1.0  0.94019  0.40702  0.02518  1.0000
  C   C1363     1.0  0.94996  0.44296  0.03016  1.0000
  C   C1364     1.0  0.93097  0.41404  0.04970  1.0000
  C   C1365     1.0  0.96978  0.56606  0.14239  1.0000
  H   H2203     1.0  0.96899  0.43280  0.03158  1.0000
  H   H2204     1.0  0.81848  0.32813  0.18731  1.0000
  S   S535      1.0  0.87820  0.43483  0.98690  1.0000
  H   H2205     1.0  0.98378  0.34213  0.04413  1.0000
  C   C1366     1.0  0.54698  0.33090  0.11018  1.0000
  Fe  Fe270     1.0  0.96032  0.59146  0.98428  1.0000
  H   H2206     1.0  0.91737  0.40148  0.05318  1.0000
  C   C1367     1.0  0.80319  0.38462  0.99464  1.0000
  Fe  Fe271     1.0  0.90615  0.59796  0.98187  1.0000
  S   S536      1.0  0.84265  0.32525  0.99573  1.0000
  C   C1368     1.0  0.98156  0.40542  0.15357  1.0000
  H   H2207     1.0  0.94172  0.41539  0.01345  1.0000
  H   H2208     1.0  0.79117  0.39672  0.00214  1.0000
  C   C1369     1.0  0.51737  0.37106  0.14969  1.0000
  H   H2209     1.0  0.94820  0.54667  0.21095  1.0000
  H   H2210     1.0  0.56716  0.36367  0.08852  1.0000
  C   C1370     1.0  0.59910  0.45693  0.18547  1.0000
  C   C1371     1.0  0.95650  0.50875  0.20821  1.0000
  H   H2211     1.0  0.59042  0.46771  0.15840  1.0000
  C   C1372     1.0  0.95978  0.34628  0.06471  1.0000
  S   S537      1.0  0.89578  0.34850  0.04259  1.0000
  C   C1373     1.0  0.98473  0.39318  0.14204  1.0000
  Fe  Fe272     1.0  0.97513  0.33425  0.09804  1.0000
  H   H2212     1.0  0.93088  0.42872  0.98666  1.0000
  C   C1374     1.0  0.54667  0.36845  0.09216  1.0000
  N   N139      1.0  0.91099  0.64492  0.15339  1.0000
  C   C1375     1.0  0.50168  0.36558  0.14210  1.0000
  H   H2213     1.0  0.79280  0.37051  0.99421  1.0000
  C   C1376     1.0  0.50245  0.34102  0.14136  1.0000
  H   H2214     1.0  0.50687  0.56388  0.03921  1.0000
  H   H2215     1.0  0.93756  0.61064  0.15496  1.0000
  H   H2216     1.0  0.52545  0.64606  0.12106  1.0000
  C   C1377     1.0  0.93659  0.63083  0.15374  1.0000
  H   H2217     1.0  0.50525  0.64761  0.02354  1.0000
  S   S538      1.0  0.51724  0.40211  0.14948  1.0000
  H   H2218     1.0  0.89407  0.61655  0.16855  1.0000
  C   C1378     1.0  0.82611  0.41627  0.98110  1.0000
  S   S539      1.0  0.72916  0.38793  0.22758  1.0000
  H   H2219     1.0  0.56732  0.32430  0.10692  1.0000
  C   C1379     1.0  0.93443  0.48096  0.22697  1.0000
  H   H2220     1.0  0.98163  0.61448  0.03937  1.0000
  N   N140      1.0  0.81104  0.39900  0.98006  1.0000
  S   S540      1.0  0.98429  0.34440  0.07356  1.0000
  H   H2221     1.0  0.97385  0.64418  0.98225  1.0000
  H   H2222     1.0  0.90022  0.63937  0.17662  1.0000
  H   H2223     1.0  0.98699  0.53307  0.12172  1.0000
  S   S541      1.0  0.96670  0.32793  0.97773  1.0000
  C   C1380     1.0  0.92693  0.34789  0.43363  1.0000
  C   C1381     1.0  0.88210  0.35559  0.43736  1.0000
  C   C1382     1.0  0.68708  0.36984  0.32088  1.0000
  S   S542      1.0  0.70223  0.41508  0.25501  1.0000
  Fe  Fe273     1.0  0.83816  0.50767  0.26085  1.0000
  S   S543      1.0  0.86895  0.51320  0.27025  1.0000
  S   S544      1.0  0.83386  0.46854  0.26200  1.0000
  Fe  Fe274     1.0  0.81970  0.56295  0.25183  1.0000
  S   S545      1.0  0.84884  0.57314  0.26023  1.0000
  H   H2224     1.0  0.82398  0.60539  0.41661  1.0000
  Fe  Fe275     1.0  0.87461  0.54236  0.25024  1.0000
  H   H2225     1.0  0.82917  0.62366  0.26818  1.0000
  Fe  Fe276     1.0  0.84064  0.54345  0.27950  1.0000
  S   S546      1.0  0.83335  0.55056  0.30234  1.0000
  C   C1383     1.0  0.69395  0.34160  0.30445  1.0000
  S   S547      1.0  0.80924  0.53537  0.27192  1.0000
  S   S548      1.0  0.61786  0.35294  0.37068  1.0000
  S   S549      1.0  0.64587  0.39400  0.38686  1.0000
  Fe  Fe277     1.0  0.77082  0.46711  0.41374  1.0000
  S   S550      1.0  0.78032  0.46306  0.43559  1.0000
  S   S551      1.0  0.78064  0.49885  0.39593  1.0000
  Fe  Fe278     1.0  0.74608  0.42222  0.42259  1.0000
  S   S552      1.0  0.75292  0.41552  0.44524  1.0000
  S   S553      1.0  0.73413  0.38975  0.41824  1.0000
  Fe  Fe279     1.0  0.74139  0.45642  0.44391  1.0000
  S   S554      1.0  0.71773  0.46978  0.46399  1.0000
  Fe  Fe280     1.0  0.79090  0.42257  0.43490  1.0000
  S   S555      1.0  0.82175  0.39290  0.44274  1.0000
  S   S556      1.0  0.73090  0.46290  0.42208  1.0000
  S   S557      1.0  0.78504  0.42715  0.41226  1.0000
  Fe  Fe281     1.0  0.90976  0.58769  0.34651  1.0000
  S   S558      1.0  0.93488  0.55502  0.35734  1.0000
  S   S559      1.0  0.91202  0.59173  0.32239  1.0000
  Fe  Fe282     1.0  0.88562  0.60557  0.37461  1.0000
  S   S560      1.0  0.90860  0.57433  0.38746  1.0000
  H   H2226     1.0  0.53761  0.44056  0.39746  1.0000
  Fe  Fe283     1.0  0.94077  0.58183  0.36942  1.0000
  Fe  Fe284     1.0  0.90077  0.55056  0.37439  1.0000
  S   S561      1.0  0.89156  0.51329  0.38549  1.0000
  S   S562      1.0  0.91817  0.61521  0.35737  1.0000
  S   S563      1.0  0.87531  0.58118  0.36276  1.0000
  H   H2227     1.0  0.97561  0.61940  0.39195  1.0000
  S   S564      1.0  0.69234  0.58564  0.46059  1.0000
  C   C1384     1.0  0.83200  0.58521  0.41864  1.0000
  H   H2228     1.0  0.72882  0.48658  0.27223  1.0000
  C   C1385     1.0  0.71079  0.50198  0.46300  1.0000
  C   C1386     1.0  0.71845  0.51795  0.45016  1.0000
  C   C1387     1.0  0.71275  0.54359  0.44961  1.0000
  C   C1388     1.0  0.69958  0.55337  0.46190  1.0000
  C   C1389     1.0  0.85845  0.40938  0.47562  1.0000
  H   H2229     1.0  0.58539  0.61067  0.45693  1.0000
  H   H2230     1.0  0.72860  0.51056  0.44063  1.0000
  H   H2231     1.0  0.71858  0.55588  0.43962  1.0000
  N   N141      1.0  0.90412  0.34159  0.44354  1.0000
  H   H2232     1.0  0.66698  0.37776  0.27997  1.0000
  C   C1390     1.0  0.81150  0.50256  0.39306  1.0000
  C   C1391     1.0  0.82884  0.48527  0.40035  1.0000
  C   C1392     1.0  0.85338  0.48875  0.39795  1.0000
  C   C1393     1.0  0.86059  0.50968  0.38843  1.0000
  C   C1394     1.0  0.84321  0.52698  0.38118  1.0000
  C   C1395     1.0  0.81878  0.52332  0.38341  1.0000
  H   H2233     1.0  0.82337  0.46912  0.40775  1.0000
  H   H2234     1.0  0.86678  0.47523  0.40355  1.0000
  H   H2235     1.0  0.84857  0.54298  0.37371  1.0000
  H   H2236     1.0  0.80541  0.53665  0.37769  1.0000
  H   H2237     1.0  0.73494  0.46239  0.26201  1.0000
  Fe  Fe285     1.0  0.64208  0.35616  0.38531  1.0000
  H   H2238     1.0  0.70081  0.33713  0.29376  1.0000
  C   C1396     1.0  0.67024  0.39313  0.39566  1.0000
  C   C1397     1.0  0.68433  0.37050  0.40117  1.0000
  C   C1398     1.0  0.70382  0.36988  0.40804  1.0000
  C   C1399     1.0  0.70932  0.39185  0.40955  1.0000
  C   C1400     1.0  0.69517  0.41455  0.40412  1.0000
  C   C1401     1.0  0.67565  0.41517  0.39717  1.0000
  H   H2239     1.0  0.68021  0.35341  0.40019  1.0000
  H   H2240     1.0  0.71464  0.35226  0.41223  1.0000
  H   H2241     1.0  0.69930  0.43156  0.40525  1.0000
  H   H2242     1.0  0.66480  0.43273  0.39294  1.0000
  C   C1402     1.0  0.92192  0.50061  0.23403  1.0000
  N   N142      1.0  0.81837  0.57119  0.41321  1.0000
  H   H2243     1.0  0.76367  0.32933  0.41895  1.0000
  S   S565      1.0  0.70785  0.38661  0.29288  1.0000
  C   C1403     1.0  0.85465  0.56386  0.30715  1.0000
  C   C1404     1.0  0.87758  0.56628  0.29811  1.0000
  C   C1405     1.0  0.89483  0.57547  0.30273  1.0000
  C   C1406     1.0  0.88926  0.58221  0.31638  1.0000
  C   C1407     1.0  0.86594  0.58058  0.32515  1.0000
  C   C1408     1.0  0.84875  0.57134  0.32058  1.0000
  H   H2244     1.0  0.88227  0.56063  0.28770  1.0000
  H   H2245     1.0  0.91276  0.57691  0.29583  1.0000
  H   H2246     1.0  0.86117  0.58640  0.33548  1.0000
  H   H2247     1.0  0.83093  0.56971  0.32757  1.0000
  C   C1409     1.0  0.67472  0.33011  0.32981  1.0000
  C   C1410     1.0  0.79212  0.57468  0.42078  1.0000
  H   H2248     1.0  0.70373  0.44191  0.28102  1.0000
  H   H2249     1.0  0.88284  0.35171  0.42650  1.0000
  H   H2250     1.0  0.74646  0.41924  0.27341  1.0000
  C   C1411     1.0  0.81952  0.58024  0.39747  1.0000
  C   C1412     1.0  0.77858  0.45122  0.23965  1.0000
  C   C1413     1.0  0.78242  0.47552  0.23726  1.0000
  H   H2251     1.0  0.66991  0.35720  0.34302  1.0000
  H   H2252     1.0  0.86364  0.44108  0.23988  1.0000
  C   C1414     1.0  0.62922  0.58056  0.46261  1.0000
  H   H2253     1.0  0.98605  0.61548  0.35149  1.0000
  H   H2254     1.0  0.76225  0.64584  0.28191  1.0000
  C   C1415     1.0  0.79232  0.43248  0.24851  1.0000
  C   C1416     1.0  0.80942  0.43807  0.25513  1.0000
  C   C1417     1.0  0.81264  0.46246  0.25314  1.0000
  C   C1418     1.0  0.79922  0.48120  0.24410  1.0000
  H   H2255     1.0  0.65430  0.35049  0.28801  1.0000
  H   H2256     1.0  0.78985  0.41365  0.25022  1.0000
  H   H2257     1.0  0.81997  0.42343  0.26197  1.0000
  H   H2258     1.0  0.92692  0.36797  0.43199  1.0000
  H   H2259     1.0  0.83152  0.57902  0.43050  1.0000
  C   C1419     1.0  0.61724  0.58224  0.44000  1.0000
  H   H2260     1.0  0.79482  0.63135  0.30511  1.0000
  H   H2261     1.0  0.60938  0.35425  0.29813  1.0000
  H   H2262     1.0  0.78133  0.56426  0.41694  1.0000
  N   N143      1.0  0.62804  0.38479  0.28885  1.0000
  H   H2263     1.0  0.64831  0.39614  0.30154  1.0000
  H   H2264     1.0  0.74319  0.44385  0.30637  1.0000
  H   H2265     1.0  0.61569  0.39810  0.30895  1.0000
  H   H2266     1.0  0.61300  0.59385  0.42954  1.0000
  S   S566      1.0  0.85507  0.62778  0.38861  1.0000
  H   H2267     1.0  0.76991  0.60079  0.28296  1.0000
  H   H2268     1.0  0.82442  0.61796  0.24407  1.0000
  H   H2269     1.0  0.58921  0.37232  0.39723  1.0000
  H   H2270     1.0  0.65160  0.61793  0.44721  1.0000
  H   H2271     1.0  0.77191  0.49012  0.23037  1.0000
  H   H2272     1.0  0.80008  0.58234  0.28452  1.0000
  C   C1420     1.0  0.62334  0.40957  0.27961  1.0000
  H   H2273     1.0  0.63974  0.41857  0.27715  1.0000
  H   H2274     1.0  0.60256  0.41352  0.23596  1.0000
  H   H2275     1.0  0.82967  0.53721  0.42766  1.0000
  S   S567      1.0  0.75584  0.37798  0.25627  1.0000
  S   S568      1.0  0.70571  0.35552  0.25921  1.0000
  C   C1421     1.0  0.90261  0.34803  0.45770  1.0000
  H   H2276     1.0  0.66247  0.59171  0.43856  1.0000
  H   H2277     1.0  0.53518  0.38763  0.39556  1.0000
  H   H2278     1.0  0.93104  0.46254  0.23162  1.0000
  Fe  Fe286     1.0  0.69267  0.38971  0.24349  1.0000
  H   H2279     1.0  0.90742  0.63501  0.39413  1.0000
  H   H2280     1.0  0.90864  0.49740  0.24402  1.0000
  H   H2281     1.0  0.78286  0.59452  0.41893  1.0000
  S   S569      1.0  0.76898  0.31973  0.23996  1.0000
  C   C1422     1.0  0.67655  0.35280  0.33230  1.0000
  H   H2282     1.0  0.70721  0.43451  0.29959  1.0000
  S   S570      1.0  0.97594  0.57859  0.37791  1.0000
  H   H2283     1.0  0.53413  0.41513  0.41243  1.0000
  H   H2284     1.0  0.90177  0.36814  0.45673  1.0000
  N   N144      1.0  0.56407  0.40696  0.39480  1.0000
  H   H2285     1.0  0.63410  0.59094  0.46962  1.0000
  H   H2286     1.0  0.93435  0.61058  0.39408  1.0000
  S   S571      1.0  0.75607  0.44509  0.23175  1.0000
  N   N145      1.0  0.88566  0.50244  0.34229  1.0000
  S   S572      1.0  0.55994  0.33239  0.39795  1.0000
  C   C1423     1.0  0.83526  0.39973  0.45547  1.0000
  H   H2287     1.0  0.81163  0.60040  0.39499  1.0000
  S   S573      1.0  0.78880  0.58983  0.24210  1.0000
  S   S574      1.0  0.84619  0.53456  0.24005  1.0000
  Fe  Fe287     1.0  0.73979  0.41043  0.24074  1.0000
  H   H2288     1.0  0.83910  0.36255  0.46784  1.0000
  C   C1424     1.0  0.83933  0.42350  0.45429  1.0000
  C   C1425     1.0  0.63225  0.38703  0.30297  1.0000
  H   H2289     1.0  0.87912  0.48479  0.36476  1.0000
  C   C1426     1.0  0.80983  0.63041  0.23905  1.0000
  H   H2290     1.0  0.60653  0.62754  0.45957  1.0000
  H   H2291     1.0  0.59437  0.42647  0.38892  1.0000
  H   H2292     1.0  0.83393  0.43804  0.44546  1.0000
  C   C1427     1.0  0.78526  0.35153  0.43294  1.0000
  H   H2293     1.0  0.78911  0.35747  0.42093  1.0000
  H   H2294     1.0  0.81983  0.53347  0.41211  1.0000
  S   S575      1.0  0.65193  0.40036  0.24169  1.0000
  H   H2295     1.0  0.80050  0.59865  0.30589  1.0000
  C   C1428     1.0  0.54801  0.42425  0.40400  1.0000
  H   H2296     1.0  0.50668  0.34057  0.40349  1.0000
  C   C1429     1.0  0.91088  0.48736  0.33921  1.0000
  C   C1430     1.0  0.79016  0.60086  0.27985  1.0000
  C   C1431     1.0  0.96645  0.63717  0.39559  1.0000
  H   H2297     1.0  0.76997  0.61673  0.30484  1.0000
  C   C1432     1.0  0.54742  0.32059  0.37470  1.0000
  H   H2298     1.0  0.76532  0.45881  0.29269  1.0000
  C   C1433     1.0  0.54865  0.39791  0.38753  1.0000
  N   N146      1.0  0.62389  0.59676  0.44884  1.0000
  H   H2299     1.0  0.49873  0.34707  0.24003  1.0000
  H   H2300     1.0  0.85039  0.48585  0.23057  1.0000
  C   C1434     1.0  0.51332  0.33420  0.39330  1.0000
  H   H2301     1.0  0.64306  0.61887  0.43029  1.0000
  C   C1435     1.0  0.53903  0.32874  0.38790  1.0000
  N   N147      1.0  0.78050  0.32609  0.43729  1.0000
  H   H2302     1.0  0.60053  0.57431  0.44579  1.0000
  C   C1436     1.0  0.82987  0.54464  0.41591  1.0000
  H   H2303     1.0  0.69853  0.46626  0.29104  1.0000
  H   H2304     1.0  0.80133  0.35333  0.43715  1.0000
  H   H2305     1.0  0.59963  0.63094  0.44188  1.0000
  S   S576      1.0  0.91172  0.54882  0.23713  1.0000
  H   H2306     1.0  0.91031  0.46935  0.33676  1.0000
  C   C1437     1.0  0.87378  0.50745  0.32952  1.0000
  H   H2307     1.0  0.92272  0.49710  0.32974  1.0000
  C   C1438     1.0  0.82359  0.62035  0.28021  1.0000
  H   H2308     1.0  0.92033  0.48343  0.34865  1.0000
  H   H2309     1.0  0.79465  0.44786  0.46653  1.0000
  C   C1439     1.0  0.50453  0.32333  0.37241  1.0000
  H   H2310     1.0  0.87231  0.49010  0.32663  1.0000
  Fe  Fe288     1.0  0.74287  0.35542  0.24424  1.0000
  C   C1440     1.0  0.69574  0.36430  0.30695  1.0000
  C   C1441     1.0  0.88749  0.52603  0.34550  1.0000
  C   C1442     1.0  0.87058  0.48896  0.35495  1.0000
  H   H2311     1.0  0.85150  0.49996  0.35770  1.0000
  Fe  Fe289     1.0  0.71740  0.38099  0.26970  1.0000
  H   H2312     1.0  0.86863  0.47112  0.35291  1.0000
  H   H2313     1.0  0.56029  0.38478  0.38050  1.0000
  H   H2314     1.0  0.79516  0.60295  0.26785  1.0000
  H   H2315     1.0  0.84960  0.54127  0.41013  1.0000
  H   H2316     1.0  0.60704  0.42195  0.28487  1.0000
  C   C1443     1.0  0.68344  0.32452  0.31588  1.0000
  C   C1444     1.0  0.57754  0.38578  0.40391  1.0000
  H   H2317     1.0  0.59014  0.39156  0.40922  1.0000
  H   H2318     1.0  0.57289  0.43575  0.37659  1.0000
  C   C1445     1.0  0.92580  0.62861  0.39754  1.0000
  C   C1446     1.0  0.65032  0.36952  0.28156  1.0000
  C   C1447     1.0  0.58224  0.41968  0.38377  1.0000
  H   H2319     1.0  0.68845  0.38738  0.32288  1.0000
  H   H2320     1.0  0.89639  0.52294  0.35505  1.0000
  H   H2321     1.0  0.89889  0.53666  0.33623  1.0000
  H   H2322     1.0  0.86464  0.35070  0.44443  1.0000
  H   H2323     1.0  0.88579  0.34333  0.46548  1.0000
  H   H2324     1.0  0.73451  0.47575  0.29807  1.0000
  H   H2325     1.0  0.85399  0.44675  0.46354  1.0000
  C   C1448     1.0  0.84257  0.38089  0.46677  1.0000
  S   S577      1.0  0.67313  0.32584  0.37836  1.0000
  H   H2326     1.0  0.76887  0.36499  0.43717  1.0000
  H   H2327     1.0  0.64817  0.36795  0.27066  1.0000
  H   H2328     1.0  0.89519  0.44504  0.23462  1.0000
  H   H2329     1.0  0.75995  0.47020  0.26742  1.0000
  H   H2330     1.0  0.56460  0.37565  0.41247  1.0000
  H   H2331     1.0  0.85461  0.51863  0.33154  1.0000
  H   H2332     1.0  0.88446  0.51798  0.31983  1.0000
  H   H2333     1.0  0.86883  0.53793  0.34791  1.0000
  C   C1449     1.0  0.64618  0.60679  0.44083  1.0000
  H   H2334     1.0  0.80163  0.50007  0.24243  1.0000
  H   H2335     1.0  0.60306  0.37075  0.28066  1.0000
  H   H2336     1.0  0.98626  0.49296  0.23932  1.0000
  C   C1450     1.0  0.79080  0.62125  0.23635  1.0000
  H   H2337     1.0  0.59491  0.40696  0.37680  1.0000
  C   C1451     1.0  0.49612  0.33160  0.38558  1.0000
  H   H2338     1.0  0.55915  0.43118  0.40971  1.0000
  C   C1452     1.0  0.79014  0.61677  0.30088  1.0000
  H   H2339     1.0  0.53795  0.41332  0.38063  1.0000
  C   C1453     1.0  0.60643  0.37296  0.29115  1.0000
  H   H2340     1.0  0.85186  0.58303  0.41306  1.0000
  Fe  Fe290     1.0  0.60179  0.32660  0.38983  1.0000
  H   H2341     1.0  0.74908  0.41078  0.29213  1.0000
  H   H2342     1.0  0.88032  0.37590  0.43619  1.0000
  H   H2343     1.0  0.91887  0.33769  0.46273  1.0000
  H   H2344     1.0  0.95368  0.63391  0.37103  1.0000
  C   C1454     1.0  0.74533  0.45738  0.29595  1.0000
  H   H2345     1.0  0.83470  0.60220  0.28454  1.0000
  H   H2346     1.0  0.79051  0.56810  0.43271  1.0000
  H   H2347     1.0  0.77199  0.42557  0.27909  1.0000
  C   C1455     1.0  0.60299  0.61738  0.45193  1.0000
  N   N148      1.0  0.73693  0.44971  0.28461  1.0000
  C   C1456     1.0  0.71040  0.44812  0.28928  1.0000
  C   C1457     1.0  0.74025  0.46803  0.27098  1.0000
  C   C1458     1.0  0.75180  0.42528  0.28221  1.0000
  C   C1459     1.0  0.78061  0.43666  0.47280  1.0000
  H   H2348     1.0  0.80908  0.57042  0.39300  1.0000
  C   C1460     1.0  0.85071  0.42838  0.46447  1.0000
  H   H2349     1.0  0.63268  0.56655  0.43748  1.0000
  N   N149      1.0  0.79663  0.62072  0.28488  1.0000
  H   H2350     1.0  0.83907  0.57754  0.39143  1.0000
  H   H2351     1.0  0.61962  0.40849  0.26897  1.0000
  H   H2352     1.0  0.58918  0.38412  0.29651  1.0000
  H   H2353     1.0  0.63650  0.36856  0.31006  1.0000
  H   H2354     1.0  0.98725  0.52517  0.23299  1.0000
  H   H2355     1.0  0.64528  0.56511  0.46069  1.0000
  H   H2356     1.0  0.61299  0.57232  0.46887  1.0000
  S   S578      1.0  0.62452  0.33170  0.40483  1.0000
  S   S579      1.0  0.51338  0.58763  0.46860  1.0000
  H   H2357     1.0  0.76435  0.44266  0.46734  1.0000
  H   H2358     1.0  0.94381  0.33756  0.43806  1.0000
  H   H2359     1.0  0.82924  0.63475  0.28408  1.0000
  C   C1461     1.0  0.69199  0.53740  0.47476  1.0000
  C   C1462     1.0  0.85429  0.38566  0.47679  1.0000
  H   H2360     1.0  0.96459  0.63360  0.40758  1.0000
  H   H2361     1.0  0.92873  0.34332  0.42280  1.0000
  H   H2362     1.0  0.75722  0.33231  0.45767  1.0000
  H   H2363     1.0  0.92230  0.62508  0.40959  1.0000
  H   H2364     1.0  0.74228  0.33744  0.43477  1.0000
  H   H2365     1.0  0.50843  0.63767  0.47304  1.0000
  C   C1463     1.0  0.78267  0.64486  0.27856  1.0000
  C   C1464     1.0  0.75958  0.32447  0.43102  1.0000
  H   H2366     1.0  0.78961  0.32077  0.45834  1.0000
  Fe  Fe291     1.0  0.64722  0.31999  0.36567  1.0000
  H   H2367     1.0  0.78838  0.41700  0.47189  1.0000
  H   H2368     1.0  0.78703  0.64813  0.26647  1.0000
  N   N150      1.0  0.94204  0.64689  0.39118  1.0000
  C   C1465     1.0  0.53156  0.60144  0.47576  1.0000
  C   C1466     1.0  0.69757  0.51174  0.47529  1.0000
  S   S580      1.0  0.64665  0.63902  0.47520  1.0000
  C   C1467     1.0  0.77421  0.31965  0.45328  1.0000
  C   C1468     1.0  0.87980  0.44113  0.23069  1.0000
  C   C1469     1.0  0.77239  0.63754  0.22938  1.0000
  H   H2369     1.0  0.88561  0.42214  0.22828  1.0000
  H   H2370     1.0  0.97935  0.65029  0.39080  1.0000
  C   C1470     1.0  0.52496  0.62641  0.47675  1.0000
  C   C1471     1.0  0.92698  0.52427  0.22829  1.0000
  C   C1472     1.0  0.94555  0.65138  0.37519  1.0000
  H   H2371     1.0  0.79835  0.50437  0.58592  1.0000
  S   S581      1.0  0.98703  0.37734  0.49824  1.0000
  H   H2372     1.0  0.54076  0.34127  0.72426  1.0000
  H   H2373     1.0  0.87660  0.47886  0.58397  1.0000
  H   H2374     1.0  0.52026  0.60179  0.62766  1.0000
  C   C1473     1.0  0.67760  0.62106  0.54384  1.0000
  Fe  Fe292     1.0  0.92817  0.42395  0.62591  1.0000
  S   S582      1.0  0.90017  0.45142  0.61402  1.0000
  S   S583      1.0  0.96659  0.42911  0.62633  1.0000
  Fe  Fe293     1.0  0.89749  0.38355  0.63345  1.0000
  S   S584      1.0  0.86719  0.40762  0.62224  1.0000
  S   S585      1.0  0.89654  0.34474  0.64614  1.0000
  Fe  Fe294     1.0  0.89796  0.41956  0.60463  1.0000
  S   S586      1.0  0.89467  0.42726  0.58109  1.0000
  Fe  Fe295     1.0  0.87168  0.43723  0.63261  1.0000
  S   S587      1.0  0.83525  0.45796  0.64326  1.0000
  S   S588      1.0  0.92817  0.39308  0.61490  1.0000
  S   S589      1.0  0.89976  0.41221  0.64535  1.0000
  S   S590      1.0  0.72887  0.57061  0.60498  1.0000
  S   S591      1.0  0.73495  0.58088  0.63624  1.0000
  Fe  Fe296     1.0  0.75736  0.58156  0.61367  1.0000
  S   S592      1.0  0.79820  0.56463  0.60858  1.0000
  Fe  Fe297     1.0  0.70509  0.57353  0.62697  1.0000
  Fe  Fe298     1.0  0.54711  0.49067  0.68901  1.0000
  Fe  Fe299     1.0  0.54889  0.54268  0.67169  1.0000
  S   S593      1.0  0.56622  0.56985  0.65345  1.0000
  S   S594      1.0  0.56694  0.51985  0.69007  1.0000
  H   H2375     1.0  0.95940  0.40167  0.68124  1.0000
  S   S595      1.0  0.56884  0.45144  0.69081  1.0000
  H   H2376     1.0  0.96428  0.40008  0.52284  1.0000
  C   C1474     1.0  0.54543  0.43773  0.71903  1.0000
  C   C1475     1.0  0.62423  0.56787  0.60641  1.0000
  C   C1476     1.0  0.76079  0.64476  0.64354  1.0000
  Fe  Fe300     1.0  0.89792  0.38146  0.49788  1.0000
  C   C1477     1.0  0.87144  0.33164  0.64590  1.0000
  C   C1478     1.0  0.78029  0.65029  0.64819  1.0000
  N   N151      1.0  0.65070  0.63704  0.68842  1.0000
  S   S596      1.0  0.91961  0.38367  0.51396  1.0000
  H   H2377     1.0  0.96815  0.39151  0.56160  1.0000
  H   H2378     1.0  0.61148  0.61771  0.60185  1.0000
  H   H2379     1.0  0.76476  0.63162  0.63641  1.0000
  S   S597      1.0  0.68357  0.54344  0.63850  1.0000
  H   H2380     1.0  0.85987  0.50125  0.59487  1.0000
  H   H2381     1.0  0.97174  0.35397  0.52744  1.0000
  H   H2382     1.0  0.59365  0.44651  0.72517  1.0000
  C   C1479     1.0  0.84488  0.63923  0.68351  1.0000
  H   H2383     1.0  0.58445  0.58628  0.49014  1.0000
  C   C1480     1.0  0.65109  0.55133  0.64382  1.0000
  C   C1481     1.0  0.63747  0.53246  0.64962  1.0000
  C   C1482     1.0  0.61141  0.53810  0.65307  1.0000
  C   C1483     1.0  0.59884  0.56266  0.65049  1.0000
  C   C1484     1.0  0.61243  0.58160  0.64493  1.0000
  C   C1485     1.0  0.63853  0.57595  0.64181  1.0000
  H   H2384     1.0  0.60104  0.52338  0.65736  1.0000
  H   H2385     1.0  0.60276  0.60064  0.64313  1.0000
  H   H2386     1.0  0.64888  0.59062  0.63775  1.0000
  H   H2387     1.0  0.69997  0.56086  0.55703  1.0000
  C   C1486     1.0  0.89406  0.40246  0.57326  1.0000
  C   C1487     1.0  0.89122  0.40732  0.55878  1.0000
  C   C1488     1.0  0.89206  0.38793  0.55188  1.0000
  C   C1489     1.0  0.89603  0.36348  0.55934  1.0000
  C   C1490     1.0  0.89809  0.35862  0.57399  1.0000
  C   C1491     1.0  0.89712  0.37809  0.58096  1.0000
  H   H2388     1.0  0.88854  0.42615  0.55282  1.0000
  H   H2389     1.0  0.88950  0.39196  0.54079  1.0000
  N   N152      1.0  0.77355  0.43977  0.48806  1.0000
  H   H2390     1.0  0.89925  0.37419  0.59216  1.0000
  C   C1492     1.0  0.82528  0.48850  0.63459  1.0000
  C   C1493     1.0  0.79984  0.49897  0.63666  1.0000
  C   C1494     1.0  0.79133  0.52272  0.62907  1.0000
  C   C1495     1.0  0.80830  0.53619  0.61955  1.0000
  C   C1496     1.0  0.83379  0.52598  0.61781  1.0000
  C   C1497     1.0  0.84226  0.50213  0.62525  1.0000
  H   H2391     1.0  0.78660  0.48856  0.64391  1.0000
  H   H2392     1.0  0.77163  0.53045  0.63042  1.0000
  H   H2393     1.0  0.84697  0.53646  0.61053  1.0000
  H   H2394     1.0  0.86194  0.49437  0.62381  1.0000
  H   H2395     1.0  0.90103  0.33974  0.57986  1.0000
  H   H2396     1.0  0.77894  0.47733  0.48289  1.0000
  C   C1498     1.0  0.49979  0.60294  0.62956  1.0000
  C   C1499     1.0  0.59718  0.46565  0.72137  1.0000
  C   C1500     1.0  0.75362  0.42595  0.49564  1.0000
  C   C1501     1.0  0.85600  0.34230  0.63578  1.0000
  H   H2397     1.0  0.87549  0.64866  0.69828  1.0000
  C   C1502     1.0  0.88876  0.63128  0.67337  1.0000
  H   H2398     1.0  0.59767  0.38079  0.72724  1.0000
  H   H2399     1.0  0.86015  0.35801  0.62752  1.0000
  H   H2400     1.0  0.89264  0.61664  0.68294  1.0000
  C   C1503     1.0  0.63389  0.61979  0.69007  1.0000
  H   H2401     1.0  0.73685  0.43287  0.49052  1.0000
  S   S598      1.0  0.94378  0.32509  0.51405  1.0000
  C   C1504     1.0  0.95426  0.46026  0.64631  1.0000
  C   C1505     1.0  0.96059  0.47315  0.65530  1.0000
  C   C1506     1.0  0.55111  0.58496  0.70717  1.0000
  H   H2402     1.0  0.64343  0.60364  0.68484  1.0000
  H   H2403     1.0  0.93500  0.45994  0.64680  1.0000
  H   H2404     1.0  0.94609  0.48274  0.66269  1.0000
  H   H2405     1.0  0.60444  0.57493  0.60539  1.0000
  H   H2406     1.0  0.63127  0.60700  0.61506  1.0000
  Fe  Fe301     1.0  0.62041  0.62504  0.49512  1.0000
  H   H2407     1.0  0.84276  0.49314  0.56168  1.0000
  H   H2408     1.0  0.49610  0.59337  0.62169  1.0000
  N   N153      1.0  0.97189  0.37592  0.54275  1.0000
  H   H2409     1.0  0.51389  0.62042  0.52642  1.0000
  H   H2410     1.0  0.94373  0.37617  0.56201  1.0000
  C   C1507     1.0  0.69538  0.61720  0.56522  1.0000
  C   C1508     1.0  0.58434  0.41127  0.71099  1.0000
  S   S599      1.0  0.68826  0.61348  0.62058  1.0000
  H   H2411     1.0  0.84023  0.63083  0.67542  1.0000
  C   C1509     1.0  0.53997  0.63694  0.48235  1.0000
  N   N154      1.0  0.63999  0.58583  0.59817  1.0000
  H   H2412     1.0  0.67793  0.58952  0.59497  1.0000
  H   H2413     1.0  0.74773  0.42782  0.50722  1.0000
  S   S600      1.0  0.74465  0.62242  0.60617  1.0000
  H   H2414     1.0  0.90581  0.63921  0.66870  1.0000
  H   H2415     1.0  0.64750  0.57315  0.57793  1.0000
  H   H2416     1.0  0.79923  0.64134  0.64457  1.0000
  H   H2417     1.0  0.51616  0.60260  0.65392  1.0000
  C   C1510     1.0  0.97298  0.44748  0.63690  1.0000
  S   S601      1.0  0.63612  0.64008  0.50989  1.0000
  H   H2418     1.0  0.80312  0.41034  0.49462  1.0000
  H   H2419     1.0  0.81465  0.46158  0.59805  1.0000
  S   S602      1.0  0.64448  0.58719  0.49917  1.0000
  H   H2420     1.0  0.60009  0.40682  0.70252  1.0000
  Fe  Fe302     1.0  0.66251  0.60346  0.51236  1.0000
  H   H2421     1.0  0.94522  0.35528  0.54183  1.0000
  H   H2422     1.0  0.51435  0.58859  0.52645  1.0000
  C   C1511     1.0  0.83227  0.46751  0.59755  1.0000
  S   S603      1.0  0.67361  0.58099  0.53348  1.0000
  C   C1512     1.0  0.70183  0.59157  0.56607  1.0000
  C   C1513     1.0  0.69543  0.58071  0.55613  1.0000
  S   S604      1.0  0.69188  0.61559  0.49358  1.0000
  C   C1514     1.0  0.76444  0.46629  0.48860  1.0000
  C   C1515     1.0  0.50967  0.60787  0.52045  1.0000
  S   S605      1.0  0.53235  0.51221  0.66900  1.0000
  C   C1516     1.0  0.63088  0.60949  0.60335  1.0000
  C   C1517     1.0  0.56168  0.62264  0.48701  1.0000
  H   H2423     1.0  0.64709  0.51338  0.65129  1.0000
  H   H2424     1.0  0.67863  0.65171  0.55314  1.0000
  C   C1518     1.0  0.96407  0.37543  0.55851  1.0000
  C   C1519     1.0  0.79550  0.43021  0.49507  1.0000
  C   C1520     1.0  0.95887  0.39907  0.53478  1.0000
  H   H2425     1.0  0.69158  0.49944  0.48525  1.0000
  S   S606      1.0  0.57208  0.64504  0.71226  1.0000
  C   C1521     1.0  0.58299  0.39653  0.72497  1.0000
  Fe  Fe303     1.0  0.95226  0.36160  0.50121  1.0000
  C   C1522     1.0  0.68359  0.63187  0.55394  1.0000
  H   H2426     1.0  0.75978  0.40592  0.49528  1.0000
  H   H2427     1.0  0.81411  0.51599  0.59606  1.0000
  Fe  Fe304     1.0  0.91984  0.32764  0.49775  1.0000
  H   H2428     1.0  0.82325  0.34097  0.62845  1.0000
  S   S607      1.0  0.93123  0.36255  0.48393  1.0000
  H   H2429     1.0  0.53081  0.45344  0.71682  1.0000
  C   C1523     1.0  0.63914  0.59013  0.58258  1.0000
  C   C1524     1.0  0.68313  0.59539  0.54504  1.0000
  S   S608      1.0  0.71132  0.64977  0.64243  1.0000
  C   C1525     1.0  0.67220  0.62417  0.69538  1.0000
  H   H2430     1.0  0.84756  0.45098  0.59714  1.0000
  S   S609      1.0  0.89974  0.33877  0.55036  1.0000
  C   C1526     1.0  0.56228  0.61671  0.71602  1.0000
  H   H2431     1.0  0.97407  0.41900  0.66487  1.0000
  H   H2432     1.0  0.66695  0.57143  0.61202  1.0000
  S   S610      1.0  0.69962  0.63150  0.57864  1.0000
  S   S611      1.0  0.87290  0.41550  0.48817  1.0000
  Fe  Fe305     1.0  0.67201  0.60232  0.48024  1.0000
  N   N155      1.0  0.86705  0.65056  0.67740  1.0000
  H   H2433     1.0  0.56379  0.61712  0.69348  1.0000
  C   C1527     1.0  0.98560  0.47324  0.65498  1.0000
  H   H2434     1.0  0.81084  0.44035  0.48959  1.0000
  H   H2435     1.0  0.85992  0.37102  0.48549  1.0000
  S   S612      1.0  0.51481  0.55927  0.68610  1.0000
  S   S613      1.0  0.88510  0.34679  0.51066  1.0000
  C   C1528     1.0  0.83524  0.33248  0.63625  1.0000
  H   H2436     1.0  0.97738  0.38639  0.66666  1.0000
  Fe  Fe306     1.0  0.71424  0.61131  0.59916  1.0000
  H   H2437     1.0  0.93837  0.40052  0.53765  1.0000
  C   C1529     1.0  0.56576  0.43215  0.70805  1.0000
  N   N156      1.0  0.81269  0.39222  0.66258  1.0000
  C   C1530     1.0  0.80860  0.39960  0.64747  1.0000
  C   C1531     1.0  0.83917  0.39050  0.66274  1.0000
  C   C1532     1.0  0.80581  0.36790  0.66905  1.0000
  C   C1533     1.0  0.79723  0.41093  0.67104  1.0000
  H   H2438     1.0  0.78880  0.40111  0.64695  1.0000
  H   H2439     1.0  0.82004  0.38598  0.64075  1.0000
  H   H2440     1.0  0.81365  0.41786  0.64226  1.0000
  H   H2441     1.0  0.84314  0.38431  0.67391  1.0000
  H   H2442     1.0  0.85145  0.37718  0.65609  1.0000
  H   H2443     1.0  0.84489  0.40863  0.65829  1.0000
  H   H2444     1.0  0.80839  0.36185  0.68051  1.0000
  H   H2445     1.0  0.81748  0.35336  0.66302  1.0000
  H   H2446     1.0  0.78606  0.36832  0.66889  1.0000
  H   H2447     1.0  0.77711  0.41277  0.67118  1.0000
  H   H2448     1.0  0.80201  0.42952  0.66632  1.0000
  H   H2449     1.0  0.80000  0.40615  0.68247  1.0000
  N   N157      1.0  0.83706  0.48746  0.58492  1.0000
  C   C1534     1.0  0.81639  0.50903  0.58592  1.0000
  C   C1535     1.0  0.86060  0.49470  0.58478  1.0000
  C   C1536     1.0  0.83904  0.47857  0.57142  1.0000
  H   H2450     1.0  0.81958  0.52472  0.57676  1.0000
  C   C1537     1.0  0.66582  0.57589  0.60033  1.0000
  H   H2451     1.0  0.79092  0.43201  0.50666  1.0000
  H   H2452     1.0  0.67398  0.55871  0.59589  1.0000
  H   H2453     1.0  0.86475  0.50988  0.57549  1.0000
  H   H2454     1.0  0.49858  0.55484  0.64024  1.0000
  H   H2455     1.0  0.82165  0.47285  0.57118  1.0000
  H   H2456     1.0  0.85447  0.46228  0.57033  1.0000
  C   C1538     1.0  0.65962  0.64616  0.67285  1.0000
  H   H2457     1.0  0.61728  0.62907  0.68511  1.0000
  C   C1539     1.0  0.56819  0.59760  0.48615  1.0000
  H   H2458     1.0  0.75873  0.46938  0.49996  1.0000
  C   C1540     1.0  0.50257  0.56540  0.64748  1.0000
  Fe  Fe307     1.0  0.49918  0.52730  0.68475  1.0000
  H   H2459     1.0  0.66615  0.61718  0.70717  1.0000
  C   C1541     1.0  0.55329  0.58711  0.48042  1.0000
  H   H2460     1.0  0.83075  0.47357  0.60792  1.0000
  H   H2461     1.0  0.67008  0.63075  0.66717  1.0000
  Fe  Fe308     1.0  0.53149  0.53403  0.70432  1.0000
  H   H2462     1.0  0.66819  0.63256  0.53533  1.0000
  H   H2463     1.0  0.55052  0.49074  0.72475  1.0000
  H   H2464     1.0  0.71139  0.58008  0.57451  1.0000
  S   S614      1.0  0.51259  0.50335  0.70460  1.0000
  C   C1542     1.0  0.55954  0.60719  0.70450  1.0000
  H   H2465     1.0  0.54907  0.57779  0.69820  1.0000
  H   H2466     1.0  0.61977  0.59636  0.58062  1.0000
  Fe  Fe309     1.0  0.72001  0.62095  0.62819  1.0000
  H   H2467     1.0  0.68184  0.54479  0.48429  1.0000
  H   H2468     1.0  0.63055  0.54998  0.60256  1.0000
  H   H2469     1.0  0.68503  0.63685  0.69448  1.0000
  C   C1543     1.0  0.97646  0.40117  0.67266  1.0000
  H   H2470     1.0  0.64272  0.62325  0.59740  1.0000
  Fe  Fe310     1.0  0.90970  0.34742  0.52577  1.0000
  S   S615      1.0  0.57892  0.63642  0.49480  1.0000
  H   H2471     1.0  0.59014  0.47323  0.71104  1.0000
  H   H2472     1.0  0.68309  0.60825  0.69029  1.0000
  H   H2473     1.0  0.64957  0.60470  0.57618  1.0000
  H   H2474     1.0  0.97447  0.33671  0.54530  1.0000
  H   H2475     1.0  0.62490  0.56375  0.61817  1.0000
  H   H2476     1.0  0.88564  0.62215  0.66512  1.0000
  H   H2477     1.0  0.52255  0.60918  0.50976  1.0000
  C   C1544     1.0  0.54503  0.57231  0.72140  1.0000
  S   S616      1.0  0.53342  0.54498  0.72486  1.0000
  H   H2478     1.0  0.84759  0.62460  0.69325  1.0000
  C   C1545     1.0  0.96559  0.35453  0.53919  1.0000
  H   H2479     1.0  0.61766  0.46436  0.71878  1.0000
  H   H2480     1.0  0.52310  0.56320  0.64580  1.0000
  H   H2481     1.0  0.62674  0.61270  0.70172  1.0000
  H   H2482     1.0  0.97351  0.35826  0.56490  1.0000
  H   H2483     1.0  0.98036  0.41947  0.69496  1.0000
  H   H2484     1.0  0.74799  0.47408  0.48328  1.0000
  H   H2485     1.0  0.61132  0.50542  0.72519  1.0000
  H   H2486     1.0  0.58439  0.51524  0.71691  1.0000
  H   H2487     1.0  0.55840  0.56771  0.47978  1.0000
  H   H2488     1.0  0.86934  0.32033  0.49045  1.0000
  H   H2489     1.0  0.49612  0.55648  0.65885  1.0000
  H   H2490     1.0  0.63023  0.65160  0.70724  1.0000
  C   C1546     1.0  0.49574  0.60467  0.65475  1.0000
  H   H2491     1.0  0.98515  0.37375  0.69848  1.0000
  C   C1547     1.0  0.59098  0.50605  0.72721  1.0000
  H   H2492     1.0  0.96306  0.41562  0.53725  1.0000
  Fe  Fe311     1.0  0.66427  0.65114  0.49010  1.0000
  S   S617      1.0  0.99326  0.48765  0.66725  1.0000
  Fe  Fe312     1.0  0.66760  0.34665  0.86995  1.0000
  S   S618      1.0  0.62838  0.34415  0.88021  1.0000
  H   H2493     1.0  0.68247  0.64582  0.79610  1.0000
  Fe  Fe313     1.0  0.65915  0.40145  0.87343  1.0000
  S   S619      1.0  0.61962  0.40087  0.88473  1.0000
  S   S620      1.0  0.67686  0.43538  0.86761  1.0000
  Fe  Fe314     1.0  0.63508  0.36279  0.89656  1.0000
  S   S621      1.0  0.63441  0.34290  0.91989  1.0000
  Fe  Fe315     1.0  0.61883  0.38167  0.86684  1.0000
  S   S622      1.0  0.59234  0.39027  0.85123  1.0000
  S   S623      1.0  0.67459  0.36498  0.88631  1.0000
  S   S624      1.0  0.65792  0.38331  0.85540  1.0000
  N   N158      1.0  0.62100  0.46103  0.83950  1.0000
  C   C1548     1.0  0.54239  0.58973  0.92708  1.0000
  H   H2494     1.0  0.58029  0.58397  0.90446  1.0000
  H   H2495     1.0  0.84300  0.37117  0.97458  1.0000
  H   H2496     1.0  0.54992  0.54003  0.93400  1.0000
  H   H2497     1.0  0.64273  0.48813  0.82724  1.0000
  Fe  Fe316     1.0  0.66018  0.61323  0.87673  1.0000
  S   S625      1.0  0.63480  0.59229  0.89414  1.0000
  S   S626      1.0  0.69714  0.62111  0.87805  1.0000
  Fe  Fe317     1.0  0.62439  0.62714  0.85573  1.0000
  S   S627      1.0  0.59563  0.60809  0.87150  1.0000
  H   H2498     1.0  0.77865  0.33033  0.90246  1.0000
  Fe  Fe318     1.0  0.60443  0.62421  0.88827  1.0000
  S   S628      1.0  0.57624  0.63561  0.90755  1.0000
  Fe  Fe319     1.0  0.62764  0.57696  0.87639  1.0000
  S   S629      1.0  0.61593  0.53950  0.88241  1.0000
  S   S630      1.0  0.65606  0.59503  0.85918  1.0000
  H   H2499     1.0  0.52810  0.42731  0.74136  1.0000
  H   H2500     1.0  0.67319  0.61661  0.76760  1.0000
  C   C1549     1.0  0.59850  0.47448  0.83367  1.0000
  C   C1550     1.0  0.61101  0.64296  0.82046  1.0000
  H   H2501     1.0  0.53251  0.60838  0.92246  1.0000
  H   H2502     1.0  0.71163  0.63116  0.76701  1.0000
  H   H2503     1.0  0.50073  0.36218  0.73703  1.0000
  C   C1551     1.0  0.53573  0.32477  0.76087  1.0000
  S   S631      1.0  0.62981  0.35604  0.76082  1.0000
  H   H2504     1.0  0.60129  0.43614  0.85598  1.0000
  H   H2505     1.0  0.67029  0.62300  0.90756  1.0000
  H   H2506     1.0  0.55255  0.46473  0.73947  1.0000
  H   H2507     1.0  0.60547  0.59171  0.80989  1.0000
  C   C1552     1.0  0.68418  0.63437  0.90502  1.0000
  S   S632      1.0  0.60579  0.32263  0.74576  1.0000
  H   H2508     1.0  0.55702  0.34967  0.73564  1.0000
  C   C1553     1.0  0.59964  0.62857  0.79717  1.0000
  C   C1554     1.0  0.60534  0.61096  0.80942  1.0000
  N   N159      1.0  0.52628  0.33226  0.74714  1.0000
  H   H2509     1.0  0.91744  0.55925  0.93493  1.0000
  H   H2510     1.0  0.63024  0.43894  0.85942  1.0000
  H   H2511     1.0  0.85036  0.63077  0.94412  1.0000
  H   H2512     1.0  0.65198  0.43164  0.83496  1.0000
  H   H2513     1.0  0.55245  0.60050  0.89805  1.0000
  H   H2514     1.0  0.87313  0.53406  0.97580  1.0000
  H   H2515     1.0  0.86546  0.56524  0.96619  1.0000
  H   H2516     1.0  0.58173  0.51836  0.73517  1.0000
  H   H2517     1.0  0.56013  0.59223  0.92915  1.0000
  N   N160      1.0  0.67441  0.64921  0.77492  1.0000
  H   H2518     1.0  0.51196  0.58770  0.91026  1.0000
  H   H2519     1.0  0.54447  0.33920  0.76254  1.0000
  C   C1555     1.0  0.56189  0.58196  0.90308  1.0000
  N   N161      1.0  0.54694  0.57230  0.91710  1.0000
  S   S633      1.0  0.94106  0.57220  0.97388  1.0000
  H   H2520     1.0  0.65417  0.32907  0.82691  1.0000
  Fe  Fe320     1.0  0.62379  0.32820  0.78144  1.0000
  H   H2521     1.0  0.52558  0.55691  0.90706  1.0000
  H   H2522     1.0  0.62312  0.42764  0.83198  1.0000
  N   N162      1.0  0.89666  0.54231  0.95496  1.0000
  H   H2523     1.0  0.51124  0.56203  0.92511  1.0000
  Fe  Fe321     1.0  0.59202  0.35313  0.75854  1.0000
  C   C1556     1.0  0.52289  0.56954  0.91475  1.0000
  H   H2524     1.0  0.61551  0.60445  0.83044  1.0000
  H   H2525     1.0  0.72703  0.36579  0.88346  1.0000
  H   H2526     1.0  0.63980  0.44963  0.81934  1.0000
  H   H2527     1.0  0.58783  0.48914  0.83988  1.0000
  H   H2528     1.0  0.93091  0.51757  0.94851  1.0000
  C   C1557     1.0  0.59402  0.46962  0.74609  1.0000
  S   S634      1.0  0.88321  0.61181  0.96416  1.0000
  C   C1558     1.0  0.66016  0.46417  0.87213  1.0000
  C   C1559     1.0  0.67071  0.48536  0.86668  1.0000
  C   C1560     1.0  0.65754  0.50862  0.86972  1.0000
  C   C1561     1.0  0.63365  0.51085  0.87826  1.0000
  C   C1562     1.0  0.62313  0.48966  0.88367  1.0000
  C   C1563     1.0  0.63632  0.46645  0.88069  1.0000
  H   H2529     1.0  0.68917  0.48381  0.86007  1.0000
  H   H2530     1.0  0.66587  0.52479  0.86550  1.0000
  H   H2531     1.0  0.60473  0.49116  0.89034  1.0000
  H   H2532     1.0  0.62807  0.45033  0.88515  1.0000
  C   C1564     1.0  0.60470  0.37325  0.83710  1.0000
  C   C1565     1.0  0.59291  0.37732  0.82521  1.0000
  C   C1566     1.0  0.60307  0.36367  0.81398  1.0000
  C   C1567     1.0  0.62521  0.34615  0.81456  1.0000
  C   C1568     1.0  0.63700  0.34245  0.82635  1.0000
  C   C1569     1.0  0.62659  0.35552  0.83765  1.0000
  H   H2533     1.0  0.57586  0.39088  0.82473  1.0000
  C   C1570     1.0  0.68638  0.64716  0.91533  1.0000
  H   H2534     1.0  0.63554  0.35155  0.84686  1.0000
  C   C1571     1.0  0.61366  0.44938  0.85481  1.0000
  H   H2535     1.0  0.57887  0.54962  0.92531  1.0000
  C   C1572     1.0  0.91801  0.52257  0.95847  1.0000
  H   H2536     1.0  0.92896  0.52828  0.96488  1.0000
  H   H2537     1.0  0.58509  0.48080  0.75466  1.0000
  C   C1573     1.0  0.66295  0.63597  0.76760  1.0000
  C   C1574     1.0  0.56063  0.54803  0.92343  1.0000
  C   C1575     1.0  0.70020  0.65006  0.76717  1.0000
  H   H2538     1.0  0.56468  0.53460  0.91603  1.0000
  H   H2539     1.0  0.66283  0.64516  0.75608  1.0000
  C   C1576     1.0  0.55782  0.48304  0.73498  1.0000
  H   H2540     1.0  0.55903  0.61100  0.73917  1.0000
  C   C1577     1.0  0.84480  0.64505  0.97711  1.0000
  C   C1578     1.0  0.71856  0.65034  0.88851  1.0000
  H   H2541     1.0  0.71916  0.32379  0.88409  1.0000
  C   C1579     1.0  0.88154  0.53313  0.94759  1.0000
  N   N163      1.0  0.74661  0.33122  0.89378  1.0000
  H   H2542     1.0  0.89021  0.57938  0.94266  1.0000
  H   H2543     1.0  0.64339  0.63509  0.77308  1.0000
  H   H2544     1.0  0.81544  0.36839  0.96951  1.0000
  H   H2545     1.0  0.60367  0.46335  0.86162  1.0000
  H   H2546     1.0  0.86527  0.54762  0.94483  1.0000
  C   C1580     1.0  0.63729  0.47843  0.83859  1.0000
  H   H2547     1.0  0.59369  0.36650  0.80500  1.0000
  C   C1581     1.0  0.61101  0.61812  0.82106  1.0000
  C   C1582     1.0  0.54815  0.58159  0.73293  1.0000
  H   H2548     1.0  0.89263  0.52744  0.93734  1.0000
  H   H2549     1.0  0.83233  0.42760  0.97034  1.0000
  H   H2550     1.0  0.65472  0.46864  0.84259  1.0000
  C   C1583     1.0  0.85499  0.63357  0.96515  1.0000
  S   S635      1.0  0.59350  0.61904  0.78250  1.0000
  S   S636      1.0  0.56064  0.38505  0.75369  1.0000
  S   S637      1.0  0.89700  0.36621  0.97708  1.0000
  N   N164      1.0  0.58502  0.48111  0.73240  1.0000
  H   H2551     1.0  0.83231  0.39210  0.95927  1.0000
  H   H2552     1.0  0.93082  0.32458  0.96161  1.0000
  H   H2553     1.0  0.79410  0.42404  0.96305  1.0000
  H   H2554     1.0  0.54353  0.57184  0.74395  1.0000
  S   S638      1.0  0.61311  0.63211  0.74105  1.0000
  C   C1584     1.0  0.67439  0.63616  0.79011  1.0000
  H   H2555     1.0  0.89213  0.55596  0.97456  1.0000
  H   H2556     1.0  0.91737  0.57130  0.95050  1.0000
  S   S639      1.0  0.52162  0.32288  0.95926  1.0000
  H   H2557     1.0  0.73407  0.34416  0.91402  1.0000
  C   C1585     1.0  0.74607  0.35667  0.88537  1.0000
  H   H2558     1.0  0.60329  0.48353  0.82211  1.0000
  H   H2559     1.0  0.75202  0.36838  0.89114  1.0000
  H   H2560     1.0  0.62804  0.49271  0.84535  1.0000
  C   C1586     1.0  0.63455  0.44168  0.83104  1.0000
  H   H2561     1.0  0.77706  0.40050  0.97322  1.0000
  H   H2562     1.0  0.51719  0.37086  0.74821  1.0000
  H   H2563     1.0  0.58588  0.46173  0.83429  1.0000
  H   H2564     1.0  0.53071  0.58330  0.93768  1.0000
  H   H2565     1.0  0.91182  0.50544  0.96502  1.0000
  H   H2566     1.0  0.65514  0.63501  0.79615  1.0000
  S   S640      1.0  0.63020  0.64625  0.87219  1.0000
  H   H2567     1.0  0.56564  0.56940  0.89520  1.0000
  C   C1587     1.0  0.84829  0.31958  0.96725  1.0000
  C   C1588     1.0  0.54720  0.33537  0.73480  1.0000
  H   H2568     1.0  0.68520  0.61691  0.79068  1.0000
  C   C1589     1.0  0.56282  0.40246  0.73597  1.0000
  C   C1590     1.0  0.99232  0.64597  0.97628  1.0000
  H   H2569     1.0  0.61449  0.46780  0.74456  1.0000
  H   H2570     1.0  0.52065  0.32144  0.77041  1.0000
  C   C1591     1.0  0.70000  0.63623  0.89146  1.0000
  H   H2571     1.0  0.54790  0.49551  0.74274  1.0000
  C   C1592     1.0  0.88115  0.54963  0.96847  1.0000
  C   C1593     1.0  0.77213  0.31983  0.89619  1.0000
  C   C1594     1.0  0.90584  0.56393  0.94530  1.0000
  H   H2572     1.0  0.75851  0.35687  0.87455  1.0000
  S   S641      1.0  0.58484  0.32791  0.78017  1.0000
  S   S642      1.0  0.67905  0.32241  0.73327  1.0000
  H   H2573     1.0  0.67392  0.64574  0.92575  1.0000
  Fe  Fe322     1.0  0.64329  0.32314  0.74981  1.0000
  C   C1595     1.0  0.84265  0.63964  0.95339  1.0000
  H   H2574     1.0  0.86268  0.33041  0.96446  1.0000
  S   S643      1.0  0.63771  0.32642  0.80187  1.0000
  H   H2575     1.0  0.58975  0.45074  0.75029  1.0000
  H   H2576     1.0  0.87429  0.51681  0.95460  1.0000
  C   C1596     1.0  0.54388  0.42282  0.73291  1.0000
  H   H2577     1.0  0.78552  0.31906  0.88574  1.0000
  C   C1597     1.0  0.50829  0.35595  0.74722  1.0000
  C   C1598     1.0  0.78884  0.41307  0.97409  1.0000
  C   C1599     1.0  0.82607  0.38198  0.97040  1.0000
  Fe  Fe323     1.0  0.59319  0.64637  0.76129  1.0000
  C   C1600     1.0  0.55690  0.60374  0.73024  1.0000
  H   H2578     1.0  0.70988  0.33864  0.90672  1.0000
  C   C1601     1.0  0.72963  0.33188  0.90797  1.0000
  H   H2579     1.0  0.73109  0.65160  0.87811  1.0000
  C   C1602     1.0  0.59002  0.70654  0.08842  1.0000
  C   C1603     1.0  0.61903  0.97744  0.99883  1.0000
  H   H2580     1.0  0.53332  0.81868  0.00907  1.0000
  S   S644      1.0  0.64179  0.88226  0.00881  1.0000
  C   C1604     1.0  0.91057  0.67156  0.15176  1.0000
  H   H2581     1.0  0.61536  0.72113  0.06177  1.0000
  S   S645      1.0  0.60575  0.85015  0.00224  1.0000
  H   H2582     1.0  0.49458  0.86646  0.02990  1.0000
  Fe  Fe324     1.0  0.60181  0.87886  0.01547  1.0000
  S   S646      1.0  0.57998  0.87481  0.03836  1.0000
  H   H2583     1.0  0.71670  0.78805  0.98059  1.0000
  H   H2584     1.0  0.94108  0.67262  0.02724  1.0000
  S   S647      1.0  0.58897  0.91127  0.99867  1.0000
  C   C1605     1.0  0.65564  0.88238  0.22305  1.0000
  H   H2585     1.0  0.88274  0.74809  0.13751  1.0000
  H   H2586     1.0  0.61692  0.66561  0.06601  1.0000
  Fe  Fe325     1.0  0.94066  0.69383  0.10406  1.0000
  Fe  Fe326     1.0  0.62656  0.75510  0.12320  1.0000
  H   H2587     1.0  0.49670  0.83650  0.02600  1.0000
  H   H2588     1.0  0.63168  0.68001  0.07545  1.0000
  Fe  Fe327     1.0  0.59779  0.76553  0.09869  1.0000
  S   S648      1.0  0.56071  0.77053  0.11351  1.0000
  S   S649      1.0  0.60335  0.76675  0.07477  1.0000
  Fe  Fe328     1.0  0.57774  0.79119  0.12448  1.0000
  S   S650      1.0  0.55850  0.82736  0.13122  1.0000
  H   H2589     1.0  0.58593  0.69308  0.09869  1.0000
  N   N165      1.0  0.52877  0.85288  0.01632  1.0000
  S   S651      1.0  0.61312  0.78963  0.10808  1.0000
  H   H2590     1.0  0.70268  0.76857  0.13412  1.0000
  Fe  Fe329     1.0  0.60228  0.93785  0.18554  1.0000
  S   S652      1.0  0.63459  0.90637  0.18294  1.0000
  H   H2591     1.0  0.72328  0.96625  0.17211  1.0000
  Fe  Fe330     1.0  0.56455  0.90418  0.19386  1.0000
  S   S653      1.0  0.59371  0.86972  0.19224  1.0000
  S   S654      1.0  0.52316  0.90562  0.19833  1.0000
  Fe  Fe331     1.0  0.61449  0.88633  0.20337  1.0000
  H   H2592     1.0  0.53600  0.85256  0.03728  1.0000
  Fe  Fe332     1.0  0.61151  0.89237  0.17195  1.0000
  S   S655      1.0  0.63097  0.87248  0.15366  1.0000
  S   S656      1.0  0.58363  0.91874  0.20704  1.0000
  S   S657      1.0  0.58081  0.92585  0.17246  1.0000
  S   S658      1.0  0.63914  0.86340  0.21877  1.0000
  S   S659      1.0  0.76251  0.81311  0.18129  1.0000
  S   S660      1.0  0.69756  0.73358  0.18595  1.0000
  S   S661      1.0  0.75983  0.75657  0.16586  1.0000
  H   H2593     1.0  0.56246  0.84288  0.17556  1.0000
  C   C1606     1.0  0.65768  0.73844  0.15523  1.0000
  C   C1607     1.0  0.66527  0.73407  0.16862  1.0000
  C   C1608     1.0  0.68670  0.74157  0.16949  1.0000
  C   C1609     1.0  0.66913  0.94720  0.18865  1.0000
  C   C1610     1.0  0.64234  0.97096  0.99020  1.0000
  H   H2594     1.0  0.64182  0.73159  0.15447  1.0000
  H   H2595     1.0  0.65503  0.72406  0.17820  1.0000
  C   C1611     1.0  0.50166  0.85497  0.02137  1.0000
  H   H2596     1.0  0.95282  0.75121  0.09091  1.0000
  C   C1612     1.0  0.57859  0.83968  0.13762  1.0000
  C   C1613     1.0  0.60311  0.82724  0.13792  1.0000
  C   C1614     1.0  0.61925  0.83760  0.14264  1.0000
  C   C1615     1.0  0.61064  0.85996  0.14761  1.0000
  C   C1616     1.0  0.58598  0.87218  0.14759  1.0000
  C   C1617     1.0  0.57009  0.86224  0.14237  1.0000
  H   H2597     1.0  0.60979  0.80969  0.13443  1.0000
  H   H2598     1.0  0.63831  0.82806  0.14264  1.0000
  H   H2599     1.0  0.57932  0.88955  0.15133  1.0000
  H   H2600     1.0  0.55119  0.87202  0.14205  1.0000
  Fe  Fe333     1.0  0.77016  0.77202  0.18244  1.0000
  S   S662      1.0  0.55927  0.70418  0.13766  1.0000
  C   C1618     1.0  0.93673  0.65620  0.03482  1.0000
  H   H2601     1.0  0.67837  0.84205  0.19394  1.0000
  C   C1619     1.0  0.75864  0.84078  0.20180  1.0000
  H   H2602     1.0  0.98904  0.90350  0.17704  1.0000
  H   H2603     1.0  0.77487  0.72399  0.13666  1.0000
  C   C1620     1.0  0.77179  0.82019  0.19570  1.0000
  H   H2604     1.0  0.70799  0.78619  0.17794  1.0000
  H   H2605     1.0  0.74320  0.85285  0.19731  1.0000
  H   H2606     1.0  0.55465  0.87681  0.00617  1.0000
  C   C1621     1.0  0.53196  0.81323  0.19340  1.0000
  H   H2607     1.0  0.88658  0.69056  0.11467  1.0000
  C   C1622     1.0  0.65859  0.92262  0.22622  1.0000
  N   N166      1.0  0.75101  0.69804  0.13975  1.0000
  H   H2608     1.0  0.75398  0.86046  0.21918  1.0000
  H   H2609     1.0  0.67738  0.98201  0.98029  1.0000
  S   S663      1.0  0.96734  0.70205  0.08316  1.0000
  H   H2610     1.0  0.56556  0.67323  0.08570  1.0000
  H   H2611     1.0  0.84214  0.73998  0.15247  1.0000
  H   H2612     1.0  0.57466  0.72303  0.08859  1.0000
  N   N167      1.0  0.97548  0.76330  0.10180  1.0000
  S   S664      1.0  0.95430  0.67311  0.05397  1.0000
  H   H2613     1.0  0.97984  0.80116  0.09646  1.0000
  H   H2614     1.0  0.72288  0.67854  0.13945  1.0000
  C   C1623     1.0  0.79832  0.80948  0.21354  1.0000
  C   C1624     1.0  0.77157  0.67889  0.13428  1.0000
  N   N168      1.0  0.59302  0.69565  0.07551  1.0000
  H   H2615     1.0  0.56213  0.83925  0.02516  1.0000
  H   H2616     1.0  0.51982  0.71946  0.09549  1.0000
  H   H2617     1.0  0.52518  0.88714  0.00084  1.0000
  Fe  Fe334     1.0  0.64452  0.85670  0.99374  1.0000
  C   C1625     1.0  0.59808  0.71447  0.06229  1.0000
  Fe  Fe335     1.0  0.57814  0.73680  0.12785  1.0000
  S   S665      1.0  0.76814  0.70282  0.18805  1.0000
  N   N169      1.0  0.52589  0.83413  0.18154  1.0000
  Fe  Fe336     1.0  0.95846  0.66958  0.07721  1.0000
  C   C1626     1.0  0.64579  0.90760  0.22237  1.0000
  C   C1627     1.0  0.52893  0.82476  0.16807  1.0000
  H   H2618     1.0  0.68656  0.85292  0.22752  1.0000
  S   S666      1.0  0.50812  0.67400  0.09453  1.0000
  H   H2619     1.0  0.81392  0.79749  0.21792  1.0000
  C   C1628     1.0  0.58662  0.84479  0.04846  1.0000
  C   C1629     1.0  0.57363  0.83906  0.06269  1.0000
  C   C1630     1.0  0.57909  0.81524  0.07099  1.0000
  C   C1631     1.0  0.59690  0.79688  0.06484  1.0000
  C   C1632     1.0  0.60948  0.80249  0.05052  1.0000
  C   C1633     1.0  0.60465  0.82651  0.04242  1.0000
  H   H2620     1.0  0.55938  0.85307  0.06729  1.0000
  H   H2621     1.0  0.56914  0.81089  0.08200  1.0000
  H   H2622     1.0  0.62339  0.78837  0.04576  1.0000
  H   H2623     1.0  0.61505  0.83084  0.03154  1.0000
  C   C1634     1.0  0.69605  0.96214  0.19917  1.0000
  C   C1635     1.0  0.61405  0.67433  0.07561  1.0000
  N   N170      1.0  0.68759  0.96318  0.18565  1.0000
  H   H2624     1.0  0.70324  0.95485  0.16441  1.0000
  C   C1636     1.0  0.95444  0.76817  0.09419  1.0000
  C   C1637     1.0  0.75747  0.72264  0.13364  1.0000
  H   H2625     1.0  0.55375  0.70291  0.07574  1.0000
  H   H2626     1.0  0.62480  0.96602  0.15577  1.0000
  H   H2627     1.0  0.52864  0.88981  0.01850  1.0000
  H   H2628     1.0  0.65220  0.85008  0.18507  1.0000
  H   H2629     1.0  0.74266  0.73753  0.13769  1.0000
  H   H2630     1.0  0.67711  0.92757  0.19280  1.0000
  Fe  Fe337     1.0  0.73735  0.73579  0.18496  1.0000
  H   H2631     1.0  0.71064  0.80489  0.18987  1.0000
  H   H2632     1.0  0.68051  0.84980  0.16135  1.0000
  C   C1638     1.0  0.66565  0.83424  0.18983  1.0000
  S   S667      1.0  0.74576  0.75303  0.20135  1.0000
  C   C1639     1.0  0.52436  0.86314  0.21930  1.0000
  C   C1640     1.0  0.69214  0.75903  0.14377  1.0000
  H   H2633     1.0  0.70378  0.82280  0.15825  1.0000
  S   S668      1.0  0.66605  0.75172  0.12542  1.0000
  H   H2634     1.0  0.70704  0.84133  0.17010  1.0000
  C   C1641     1.0  0.72798  0.69703  0.13534  1.0000
  H   H2635     1.0  0.65185  0.79637  0.18300  1.0000
  H   H2636     1.0  0.67130  0.79810  0.16536  1.0000
  H   H2637     1.0  0.68181  0.88222  0.98413  1.0000
  H   H2638     1.0  0.95962  0.79296  0.11351  1.0000
  C   C1642     1.0  0.69329  0.83386  0.16664  1.0000
  C   C1643     1.0  0.78444  0.82924  0.22015  1.0000
  H   H2639     1.0  0.70490  0.94298  0.20368  1.0000
  C   C1644     1.0  0.97693  0.78615  0.10608  1.0000
  C   C1645     1.0  0.53955  0.67184  0.12871  1.0000
  C   C1646     1.0  0.97165  0.74397  0.11490  1.0000
  H   H2640     1.0  0.52838  0.84604  0.99540  1.0000
  S   S669      1.0  0.96980  0.66841  0.11571  1.0000
  N   N171      1.0  0.60569  0.86608  0.09061  1.0000
  C   C1647     1.0  0.61977  0.85890  0.10256  1.0000
  C   C1648     1.0  0.60293  0.89300  0.08512  1.0000
  C   C1649     1.0  0.58082  0.85971  0.09604  1.0000
  C   C1650     1.0  0.61919  0.85281  0.07873  1.0000
  H   H2641     1.0  0.63860  0.86352  0.09894  1.0000
  H   H2642     1.0  0.62226  0.83870  0.10695  1.0000
  H   H2643     1.0  0.60999  0.86842  0.11178  1.0000
  H   H2644     1.0  0.59240  0.89905  0.07606  1.0000
  H   H2645     1.0  0.59276  0.90357  0.09381  1.0000
  H   H2646     1.0  0.62134  0.89848  0.08093  1.0000
  H   H2647     1.0  0.57040  0.86872  0.10535  1.0000
  H   H2648     1.0  0.58210  0.83946  0.09993  1.0000
  H   H2649     1.0  0.56940  0.86548  0.08744  1.0000
  H   H2650     1.0  0.60964  0.85863  0.06927  1.0000
  H   H2651     1.0  0.62063  0.83245  0.08226  1.0000
  H   H2652     1.0  0.63840  0.85637  0.07475  1.0000
  H   H2653     1.0  0.99054  0.90179  0.19563  1.0000
  H   H2654     1.0  0.81467  0.67162  0.98645  1.0000
  C   C1651     1.0  0.52137  0.68191  0.10711  1.0000
  H   H2655     1.0  0.60578  0.96537  0.00139  1.0000
  H   H2656     1.0  0.71559  0.76132  0.15770  1.0000
  C   C1652     1.0  0.50972  0.88350  0.21194  1.0000
  H   H2657     1.0  0.73207  0.70789  0.16031  1.0000
  C   C1653     1.0  0.54275  0.85156  0.17922  1.0000
  C   C1654     1.0  0.66172  0.80886  0.17401  1.0000
  H   H2658     1.0  0.64743  0.82397  0.16945  1.0000
  H   H2659     1.0  0.65491  0.82354  0.19940  1.0000
  C   C1655     1.0  0.53684  0.71295  0.11411  1.0000
  H   H2660     1.0  0.58279  0.73106  0.06208  1.0000
  H   H2661     1.0  0.61078  0.65988  0.08551  1.0000
  H   H2662     1.0  0.93641  0.77427  0.10129  1.0000
  C   C1656     1.0  0.84150  0.71065  0.14202  1.0000
  H   H2663     1.0  0.68736  0.78599  0.19513  1.0000
  H   H2664     1.0  0.66194  0.94799  0.17873  1.0000
  C   C1657     1.0  0.54418  0.69586  0.12606  1.0000
  N   N172      1.0  0.67944  0.81875  0.17908  1.0000
  C   C1658     1.0  0.69711  0.79807  0.18583  1.0000
  H   H2665     1.0  0.68028  0.96835  0.20772  1.0000
  C   C1659     1.0  0.57003  0.68731  0.07579  1.0000
  C   C1660     1.0  0.67157  0.75036  0.14272  1.0000
  C   C1661     1.0  0.69964  0.75469  0.15711  1.0000
  H   H2666     1.0  0.53982  0.73158  0.11213  1.0000
  H   H2667     1.0  0.52446  0.84006  0.15891  1.0000
  H   H2668     1.0  0.54432  0.86151  0.21724  1.0000
  H   H2669     1.0  0.53769  0.82249  0.03362  1.0000
  H   H2670     1.0  0.78924  0.67934  0.13740  1.0000
  C   C1662     1.0  0.87475  0.73379  0.13574  1.0000
  S   S670      1.0  0.61441  0.73058  0.11230  1.0000
  S   S671      1.0  0.59196  0.75802  0.14034  1.0000
  H   H2671     1.0  0.99274  0.78301  0.11182  1.0000
  H   H2672     1.0  0.71824  0.93513  0.17866  1.0000
  S   S672      1.0  0.79173  0.70390  0.22362  1.0000
  H   H2673     1.0  0.98753  0.65410  0.02286  1.0000
  C   C1663     1.0  0.85407  0.69688  0.13128  1.0000
  S   S673      1.0  0.65071  0.94386  0.98270  1.0000
  C   C1664     1.0  0.74713  0.69358  0.15576  1.0000
  S   S674      1.0  0.91700  0.72452  0.11534  1.0000
  C   C1665     1.0  0.79173  0.80467  0.20153  1.0000
  H   H2674     1.0  0.80222  0.78902  0.19672  1.0000
  C   C1666     1.0  0.88754  0.71966  0.12517  1.0000
  H   H2675     1.0  0.70358  0.89763  0.98725  1.0000
  H   H2676     1.0  0.74762  0.78607  0.22323  1.0000
  C   C1667     1.0  0.76482  0.84520  0.21412  1.0000
  H   H2677     1.0  0.52970  0.81971  0.20374  1.0000
  H   H2678     1.0  0.95346  0.74910  0.12210  1.0000
  C   C1668     1.0  0.53442  0.87778  0.01023  1.0000
  Fe  Fe338     1.0  0.77896  0.72227  0.20252  1.0000
  H   H2679     1.0  0.65047  0.94196  0.22610  1.0000
  C   C1669     1.0  0.87708  0.70127  0.12293  1.0000
  S   S675      1.0  0.80452  0.74259  0.18477  1.0000
  C   C1670     1.0  0.85179  0.72922  0.14422  1.0000
  C   C1671     1.0  0.70906  0.95446  0.17472  1.0000
  C   C1672     1.0  0.54162  0.84124  0.02864  1.0000
  S   S676      1.0  0.67827  0.82640  0.99119  1.0000
  Fe  Fe339     1.0  0.79159  0.72504  0.17004  1.0000
  Fe  Fe340     1.0  0.59535  0.88249  0.98495  1.0000
  C   C1673     1.0  0.52547  0.70603  0.10469  1.0000
  C   C1674     1.0  0.77294  0.66284  0.22513  1.0000
  H   H2680     1.0  0.70993  0.97404  0.19739  1.0000
  H   H2681     1.0  0.74192  0.67534  0.16077  1.0000
  H   H2682     1.0  0.76753  0.66004  0.13876  1.0000
  C   C1675     1.0  0.52833  0.66479  0.11918  1.0000
  H   H2683     1.0  0.95659  0.78265  0.08423  1.0000
  H   H2684     1.0  0.60028  0.70711  0.05228  1.0000
  Fe  Fe341     1.0  0.62953  0.91241  0.99075  1.0000
  H   H2685     1.0  0.77501  0.68166  0.12224  1.0000
  S   S677      1.0  0.81333  0.70352  0.15263  1.0000
  H   H2686     1.0  0.54174  0.85816  0.18933  1.0000
  H   H2687     1.0  0.84606  0.68266  0.12943  1.0000
  H   H2688     1.0  0.71196  0.71073  0.13968  1.0000
  H   H2689     1.0  0.71112  0.86465  0.98782  1.0000
  C   C1676     1.0  0.67870  0.87236  0.22719  1.0000
  H   H2690     1.0  0.75859  0.67525  0.21980  1.0000
  H   H2691     1.0  0.55149  0.80319  0.19079  1.0000
  H   H2692     1.0  0.53789  0.86828  0.17092  1.0000
  H   H2693     1.0  0.55779  0.83559  0.00098  1.0000
  H   H2694     1.0  0.91751  0.67538  0.16070  1.0000
  H   H2695     1.0  0.49689  0.85382  0.19576  1.0000
  C   C1677     1.0  0.53738  0.83758  0.00499  1.0000
  H   H2696     1.0  0.65273  0.95313  0.19694  1.0000
  H   H2697     1.0  0.76424  0.69387  0.15946  1.0000
  C   C1678     1.0  0.70187  0.88270  0.98208  1.0000
  H   H2698     1.0  0.98919  0.68277  0.97991  1.0000
  H   H2699     1.0  0.97180  0.72605  0.11203  1.0000
  H   H2700     1.0  0.62800  0.91546  0.21919  1.0000
  H   H2701     1.0  0.51659  0.81147  0.16940  1.0000
  H   H2702     1.0  0.60716  0.71285  0.08850  1.0000
  H   H2703     1.0  0.78642  0.75841  0.22594  1.0000
  H   H2704     1.0  0.76028  0.72674  0.12160  1.0000
  S   S678      1.0  0.92897  0.66394  0.09719  1.0000
  H   H2705     1.0  0.92231  0.67874  0.14133  1.0000
  H   H2706     1.0  0.51955  0.79971  0.19547  1.0000
  H   H2707     1.0  0.72983  0.70118  0.12333  1.0000
  H   H2708     1.0  0.54516  0.65852  0.13796  1.0000
  H   H2709     1.0  0.89137  0.68262  0.15186  1.0000
  H   H2710     1.0  0.54838  0.81509  0.16467  1.0000
  H   H2711     1.0  0.98639  0.74077  0.12135  1.0000
  C   C1679     1.0  0.94040  0.65228  0.04913  1.0000
  H   H2712     1.0  0.57160  0.67884  0.06626  1.0000
  S   S679      1.0  0.60794  0.97618  0.18497  1.0000
  C   C1680     1.0  0.49989  0.84695  0.18551  1.0000
  H   H2713     1.0  0.49480  0.86324  0.17700  1.0000
  C   C1681     1.0  0.62648  0.98469  0.15557  1.0000
  C   C1682     1.0  0.74852  0.69695  0.45496  1.0000
  S   S680      1.0  0.95030  0.85309  0.47314  1.0000
  C   C1683     1.0  0.50321  0.80147  0.40870  1.0000
  H   H2714     1.0  0.74761  0.74046  0.23218  1.0000
  N   N173      1.0  0.69747  0.76752  0.43203  1.0000
  C   C1684     1.0  0.50180  0.83359  0.38738  1.0000
  H   H2715     1.0  0.68564  0.91189  0.38469  1.0000
  C   C1685     1.0  0.50513  0.84289  0.40990  1.0000
  N   N174      1.0  0.97461  0.95496  0.41934  1.0000
  H   H2716     1.0  0.81419  0.90917  0.42949  1.0000
  C   C1686     1.0  0.75867  0.88584  0.35076  1.0000
  H   H2717     1.0  0.74885  0.87712  0.32674  1.0000
  C   C1687     1.0  0.84479  0.86470  0.42973  1.0000
  H   H2718     1.0  0.95599  0.93733  0.43977  1.0000
  C   C1688     1.0  0.85651  0.65830  0.38871  1.0000
  Fe  Fe342     1.0  0.78164  0.91593  0.24779  1.0000
  S   S681      1.0  0.78894  0.87762  0.26102  1.0000
  S   S682      1.0  0.81099  0.93953  0.24013  1.0000
  Fe  Fe343     1.0  0.73067  0.91144  0.24497  1.0000
  S   S683      1.0  0.73353  0.87296  0.25805  1.0000
  C   C1689     1.0  0.74348  0.78714  0.23495  1.0000
  Fe  Fe344     1.0  0.74962  0.88730  0.27277  1.0000
  S   S684      1.0  0.73887  0.87361  0.29687  1.0000
  Fe  Fe345     1.0  0.77230  0.86668  0.24513  1.0000
  H   H2719     1.0  0.68817  0.91482  0.26858  1.0000
  S   S685      1.0  0.74346  0.92665  0.26080  1.0000
  H   H2720     1.0  0.69671  0.73039  0.44387  1.0000
  C   C1690     1.0  0.69185  0.88756  0.23066  1.0000
  H   H2721     1.0  0.94180  0.68474  0.39145  1.0000
  C   C1691     1.0  0.81037  0.96551  0.27593  1.0000
  H   H2722     1.0  0.75096  0.65951  0.45276  1.0000
  C   C1692     1.0  0.68405  0.78601  0.42151  1.0000
  C   C1693     1.0  0.84097  0.88446  0.44989  1.0000
  H   H2723     1.0  0.77934  0.88203  0.34784  1.0000
  H   H2724     1.0  0.82870  0.65987  0.40823  1.0000
  H   H2725     1.0  0.84005  0.91133  0.41459  1.0000
  Fe  Fe346     1.0  0.91528  0.91364  0.45200  1.0000
  C   C1694     1.0  0.75809  0.84250  0.35966  1.0000
  H   H2726     1.0  0.88719  0.87060  0.43540  1.0000
  H   H2727     1.0  0.54745  0.83500  0.39047  1.0000
  H   H2728     1.0  0.97565  0.95657  0.44124  1.0000
  S   S686      1.0  0.94748  0.88814  0.44155  1.0000
  Fe  Fe347     1.0  0.64455  0.86432  0.37357  1.0000
  S   S687      1.0  0.61727  0.87793  0.39236  1.0000
  S   S688      1.0  0.67143  0.82771  0.37506  1.0000
  Fe  Fe348     1.0  0.63046  0.91142  0.35244  1.0000
  S   S689      1.0  0.60195  0.92903  0.36935  1.0000
  S   S690      1.0  0.64141  0.93313  0.33009  1.0000
  Fe  Fe349     1.0  0.63069  0.91365  0.38338  1.0000
  Fe  Fe350     1.0  0.59070  0.89203  0.37671  1.0000
  S   S691      1.0  0.55033  0.88843  0.38551  1.0000
  S   S692      1.0  0.65999  0.89890  0.36586  1.0000
  S   S693      1.0  0.61712  0.87543  0.35851  1.0000
  C   C1695     1.0  0.86093  0.80747  0.46159  1.0000
  C   C1696     1.0  0.51315  0.84462  0.22916  1.0000
  C   C1697     1.0  0.66490  0.96639  0.35781  1.0000
  H   H2729     1.0  0.92787  0.66770  0.40834  1.0000
  C   C1698     1.0  0.53994  0.81822  0.39656  1.0000
  H   H2730     1.0  0.79761  0.74784  0.46923  1.0000
  H   H2731     1.0  0.88574  0.70564  0.37020  1.0000
  Fe  Fe351     1.0  0.79033  0.73477  0.43316  1.0000
  S   S694      1.0  0.79063  0.75079  0.40956  1.0000
  S   S695      1.0  0.77747  0.69895  0.44351  1.0000
  Fe  Fe352     1.0  0.81938  0.77120  0.43677  1.0000
  S   S696      1.0  0.82287  0.78989  0.41338  1.0000
  S   S697      1.0  0.83070  0.78210  0.45498  1.0000
  Fe  Fe353     1.0  0.78275  0.78764  0.41618  1.0000
  S   S698      1.0  0.75498  0.82217  0.40987  1.0000
  Fe  Fe354     1.0  0.83057  0.75142  0.40870  1.0000
  S   S699      1.0  0.86016  0.73686  0.39091  1.0000
  S   S700      1.0  0.77856  0.77150  0.43997  1.0000
  S   S701      1.0  0.83085  0.73298  0.43187  1.0000
  Fe  Fe355     1.0  0.92919  0.85742  0.45528  1.0000
  H   H2732     1.0  0.85583  0.95443  0.24016  1.0000
  H   H2733     1.0  0.54623  0.80416  0.38949  1.0000
  H   H2734     1.0  0.73205  0.77196  0.26373  1.0000
  C   C1699     1.0  0.50263  0.89810  0.38089  1.0000
  H   H2735     1.0  0.50976  0.84950  0.38046  1.0000
  H   H2736     1.0  0.86155  0.98140  0.32390  1.0000
  C   C1700     1.0  0.66807  0.92131  0.27276  1.0000
  H   H2737     1.0  0.72658  0.75424  0.41520  1.0000
  H   H2738     1.0  0.51189  0.83585  0.42032  1.0000
  C   C1701     1.0  0.69491  0.82609  0.38455  1.0000
  C   C1702     1.0  0.69434  0.84534  0.39140  1.0000
  C   C1703     1.0  0.71317  0.84398  0.39892  1.0000
  C   C1704     1.0  0.73246  0.82323  0.39984  1.0000
  C   C1705     1.0  0.73319  0.80397  0.39292  1.0000
  C   C1706     1.0  0.71441  0.80543  0.38525  1.0000
  H   H2739     1.0  0.67929  0.86125  0.39101  1.0000
  H   H2740     1.0  0.71257  0.85897  0.40424  1.0000
  H   H2741     1.0  0.74826  0.78807  0.39340  1.0000
  H   H2742     1.0  0.71497  0.79056  0.37988  1.0000
  H   H2743     1.0  0.75328  0.84541  0.37108  1.0000
  C   C1707     1.0  0.85839  0.70682  0.38991  1.0000
  C   C1708     1.0  0.84225  0.69386  0.40056  1.0000
  N   N175      1.0  0.75589  0.76455  0.24370  1.0000
  C   C1709     1.0  0.83448  0.90919  0.42659  1.0000
  H   H2744     1.0  0.62675  0.91936  0.29323  1.0000
  H   H2745     1.0  0.83051  0.70239  0.40934  1.0000
  H   H2746     1.0  0.70325  0.79492  0.44224  1.0000
  H   H2747     1.0  0.77625  0.85581  0.33121  1.0000
  C   C1710     1.0  0.89975  0.81654  0.44630  1.0000
  C   C1711     1.0  0.89601  0.80463  0.43602  1.0000
  C   C1712     1.0  0.87471  0.79436  0.43845  1.0000
  C   C1713     1.0  0.85720  0.79556  0.45131  1.0000
  H   H2748     1.0  0.70050  0.72893  0.47615  1.0000
  H   H2749     1.0  0.64761  0.90114  0.25710  1.0000
  H   H2750     1.0  0.90967  0.80332  0.42614  1.0000
  H   H2751     1.0  0.87206  0.78517  0.43047  1.0000
  C   C1714     1.0  0.81858  0.97591  0.43709  1.0000
  H   H2752     1.0  0.78730  0.66035  0.28196  1.0000
  C   C1715     1.0  0.85256  0.95198  0.44915  1.0000
  H   H2753     1.0  0.70482  0.76457  0.45326  1.0000
  H   H2754     1.0  0.85910  0.94146  0.45889  1.0000
  C   C1716     1.0  0.73996  0.67478  0.45779  1.0000
  C   C1717     1.0  0.88203  0.81811  0.45905  1.0000
  H   H2755     1.0  0.68659  0.87611  0.28576  1.0000
  C   C1718     1.0  0.93039  0.67029  0.39635  1.0000
  H   H2756     1.0  0.87961  0.90364  0.43300  1.0000
  C   C1719     1.0  0.51623  0.89848  0.35116  1.0000
  C   C1720     1.0  0.53465  0.89565  0.35939  1.0000
  C   C1721     1.0  0.52791  0.89512  0.37434  1.0000
  H   H2757     1.0  0.54873  0.81108  0.40629  1.0000
  H   H2758     1.0  0.75460  0.72583  0.24959  1.0000
  H   H2759     1.0  0.52151  0.89880  0.33962  1.0000
  H   H2760     1.0  0.55404  0.89349  0.35422  1.0000
  H   H2761     1.0  0.76013  0.78401  0.25924  1.0000
  H   H2762     1.0  0.72295  0.79047  0.23858  1.0000
  C   C1722     1.0  0.71233  0.89082  0.30610  1.0000
  C   C1723     1.0  0.70334  0.91557  0.30044  1.0000
  C   C1724     1.0  0.68169  0.92869  0.30794  1.0000
  C   C1725     1.0  0.66898  0.91703  0.32105  1.0000
  C   C1726     1.0  0.67810  0.89236  0.32675  1.0000
  C   C1727     1.0  0.69976  0.87932  0.31930  1.0000
  H   H2763     1.0  0.71315  0.92463  0.29036  1.0000
  H   H2764     1.0  0.67477  0.94784  0.30356  1.0000
  H   H2765     1.0  0.66822  0.88313  0.33677  1.0000
  H   H2766     1.0  0.70645  0.86009  0.32362  1.0000
  H   H2767     1.0  0.75347  0.88965  0.36200  1.0000
  H   H2768     1.0  0.64652  0.87228  0.26952  1.0000
  H   H2769     1.0  0.51092  0.79366  0.41878  1.0000
  H   H2770     1.0  0.76138  0.75145  0.26568  1.0000
  N   N176      1.0  0.51254  0.82403  0.40064  1.0000
  H   H2771     1.0  0.88486  0.82704  0.46710  1.0000
  N   N177      1.0  0.84899  0.88646  0.43402  1.0000
  H   H2772     1.0  0.61782  0.89477  0.28814  1.0000
  H   H2773     1.0  0.50230  0.84465  0.28335  1.0000
  H   H2774     1.0  0.66385  0.79081  0.42603  1.0000
  H   H2775     1.0  0.77870  0.83720  0.35686  1.0000
  H   H2776     1.0  0.83726  0.92593  0.42959  1.0000
  H   H2777     1.0  0.51310  0.85959  0.40448  1.0000
  H   H2778     1.0  0.74796  0.84504  0.33332  1.0000
  H   H2779     1.0  0.84753  0.80836  0.47160  1.0000
  H   H2780     1.0  0.72498  0.74613  0.24812  1.0000
  C   C1728     1.0  0.86098  0.97042  0.42366  1.0000
  C   C1729     1.0  0.80364  0.95433  0.26629  1.0000
  C   C1730     1.0  0.81987  0.95068  0.25326  1.0000
  C   C1731     1.0  0.84307  0.95758  0.25012  1.0000
  H   H2781     1.0  0.88394  0.66271  0.36910  1.0000
  H   H2782     1.0  0.66043  0.93476  0.26369  1.0000
  H   H2783     1.0  0.78572  0.94903  0.26878  1.0000
  C   C1732     1.0  0.83336  0.97294  0.27261  1.0000
  H   H2784     1.0  0.94991  0.93454  0.41566  1.0000
  H   H2785     1.0  0.75021  0.82645  0.35940  1.0000
  H   H2786     1.0  0.99024  0.91607  0.42324  1.0000
  N   N178      1.0  0.65477  0.90050  0.27809  1.0000
  H   H2787     1.0  0.71297  0.88745  0.34629  1.0000
  C   C1733     1.0  0.66758  0.94353  0.39449  1.0000
  C   C1734     1.0  0.74520  0.74335  0.24345  1.0000
  C   C1735     1.0  0.72100  0.87077  0.35368  1.0000
  C   C1736     1.0  0.71206  0.93296  0.38570  1.0000
  H   H2788     1.0  0.65757  0.86604  0.29339  1.0000
  C   C1737     1.0  0.75570  0.86050  0.33461  1.0000
  H   H2789     1.0  0.75168  0.90307  0.34338  1.0000
  H   H2790     1.0  0.94604  0.97011  0.43580  1.0000
  H   H2791     1.0  0.68788  0.73690  0.42654  1.0000
  S   S702      1.0  0.69642  0.93161  0.23598  1.0000
  N   N179      1.0  0.74838  0.86489  0.34966  1.0000
  C   C1738     1.0  0.95663  0.95223  0.41119  1.0000
  H   H2792     1.0  0.66432  0.89093  0.29921  1.0000
  C   C1739     1.0  0.69508  0.77798  0.44504  1.0000
  H   H2793     1.0  0.65559  0.95067  0.36351  1.0000
  H   H2794     1.0  0.73460  0.74666  0.43281  1.0000
  S   S703      1.0  0.93416  0.91434  0.46986  1.0000
  C   C1740     1.0  0.86955  0.95662  0.43622  1.0000
  S   S704      1.0  0.63711  0.93888  0.39644  1.0000
  C   C1741     1.0  0.71563  0.95347  0.39012  1.0000
  H   H2795     1.0  0.66674  0.93156  0.28147  1.0000
  C   C1742     1.0  0.82713  0.96185  0.44961  1.0000
  H   H2796     1.0  0.67774  0.96765  0.36465  1.0000
  H   H2797     1.0  0.99205  0.97939  0.40137  1.0000
  H   H2798     1.0  0.86786  0.97354  0.25736  1.0000
  C   C1743     1.0  0.84983  0.96860  0.25979  1.0000
  H   H2799     1.0  0.84391  0.90057  0.45352  1.0000
  C   C1744     1.0  0.62845  0.90997  0.28403  1.0000
  H   H2800     1.0  0.82091  0.88360  0.45341  1.0000
  C   C1745     1.0  0.87258  0.67124  0.37797  1.0000
  Fe  Fe356     1.0  0.96559  0.88661  0.46013  1.0000
  H   H2801     1.0  0.71488  0.87437  0.36494  1.0000
  C   C1746     1.0  0.65623  0.88817  0.26596  1.0000
  H   H2802     1.0  0.78206  0.72891  0.46342  1.0000
  C   C1747     1.0  0.73431  0.71653  0.46159  1.0000
  H   H2803     1.0  0.72791  0.92081  0.38067  1.0000
  H   H2804     1.0  0.82484  0.86323  0.43272  1.0000
  S   S705      1.0  0.92662  0.82936  0.44274  1.0000
  H   H2805     1.0  0.85160  0.86749  0.45583  1.0000
  H   H2806     1.0  0.49709  0.89859  0.39232  1.0000
  H   H2807     1.0  0.71248  0.85527  0.35318  1.0000
  H   H2808     1.0  0.67588  0.88108  0.26117  1.0000
  H   H2809     1.0  0.85544  0.84728  0.43518  1.0000
  H   H2810     1.0  0.66684  0.74882  0.44156  1.0000
  C   C1748     1.0  0.66632  0.88258  0.28959  1.0000
  H   H2811     1.0  0.82464  0.66288  0.23736  1.0000
  C   C1749     1.0  0.67119  0.96387  0.39907  1.0000
  H   H2812     1.0  0.73298  0.77763  0.42267  1.0000
  S   S706      1.0  0.90163  0.94644  0.43550  1.0000
  H   H2813     1.0  0.88255  0.88877  0.41804  1.0000
  H   H2814     1.0  0.74091  0.73358  0.45960  1.0000
  C   C1750     1.0  0.68812  0.92794  0.38792  1.0000
  C   C1751     1.0  0.71149  0.71389  0.47093  1.0000
  C   C1752     1.0  0.87572  0.88745  0.42992  1.0000
  H   H2815     1.0  0.85077  0.86542  0.41784  1.0000
  C   C1753     1.0  0.78740  0.73226  0.47303  1.0000
  C   C1754     1.0  0.96257  0.95487  0.43469  1.0000
  H   H2816     1.0  0.69129  0.80348  0.41846  1.0000
  H   H2817     1.0  0.79177  0.77451  0.23855  1.0000
  H   H2818     1.0  0.50822  0.78689  0.40201  1.0000
  H   H2819     1.0  0.78237  0.68541  0.47593  1.0000
  C   C1755     1.0  0.84127  0.66972  0.39993  1.0000
  C   C1756     1.0  0.72404  0.76124  0.42539  1.0000
  C   C1757     1.0  0.87346  0.69553  0.37855  1.0000
  S   S707      1.0  0.74582  0.95955  0.38682  1.0000
  C   C1758     1.0  0.71708  0.67224  0.46699  1.0000
  H   H2820     1.0  0.68599  0.77919  0.41132  1.0000
  H   H2821     1.0  0.67527  0.78307  0.45030  1.0000
  H   H2822     1.0  0.87411  0.97397  0.41362  1.0000
  H   H2823     1.0  0.81407  0.95891  0.45974  1.0000
  H   H2824     1.0  0.67634  0.96166  0.34741  1.0000
  C   C1759     1.0  0.69514  0.96890  0.39685  1.0000
  S   S708      1.0  0.89563  0.88312  0.46450  1.0000
  C   C1760     1.0  0.68672  0.74496  0.43617  1.0000
  H   H2825     1.0  0.61921  0.92361  0.27562  1.0000
  H   H2826     1.0  0.93992  0.96739  0.41180  1.0000
  C   C1761     1.0  0.75214  0.76808  0.25879  1.0000
  H   H2827     1.0  0.82001  0.69727  0.45997  1.0000
  H   H2828     1.0  0.52455  0.82876  0.23473  1.0000
  C   C1762     1.0  0.78281  0.75966  0.23761  1.0000
  H   H2829     1.0  0.79762  0.96868  0.28588  1.0000
  H   H2830     1.0  0.50556  0.81930  0.38060  1.0000
  H   H2831     1.0  0.91168  0.67782  0.39351  1.0000
  C   C1763     1.0  0.80999  0.65584  0.23517  1.0000
  C   C1764     1.0  0.70279  0.69177  0.47358  1.0000
  H   H2832     1.0  0.96495  0.95250  0.39952  1.0000
  C   C1765     1.0  0.82514  0.70194  0.46932  1.0000
  S   S709      1.0  0.96737  0.97521  0.26125  1.0000
  C   C1766     1.0  0.83550  0.97980  0.42404  1.0000
  H   H2833     1.0  0.62163  0.97204  0.34945  1.0000
  S   S710      1.0  0.78967  0.83107  0.23706  1.0000
  H   H2834     1.0  0.95830  0.66451  0.36997  1.0000
  H   H2835     1.0  0.61935  0.97841  0.37413  1.0000
  C   C1767     1.0  0.98081  0.97643  0.24277  1.0000
  H   H2836     1.0  0.71047  0.65516  0.46893  1.0000
  H   H2837     1.0  0.92761  0.65925  0.37143  1.0000
  H   H2838     1.0  0.82024  0.98324  0.34044  1.0000
  H   H2839     1.0  0.65539  0.97590  0.40424  1.0000
  H   H2840     1.0  0.79252  0.74187  0.24331  1.0000
  C   C1768     1.0  0.98308  0.97857  0.41300  1.0000
  H   H2841     1.0  0.70984  0.87983  0.23356  1.0000
  H   H2842     1.0  0.83610  0.71691  0.46487  1.0000
  H   H2843     1.0  0.74975  0.80375  0.23583  1.0000
  C   C1769     1.0  0.68157  0.91262  0.23043  1.0000
  S   S711      1.0  0.76819  0.90414  0.23082  1.0000
  H   H2844     1.0  0.83757  0.68532  0.47423  1.0000
  C   C1770     1.0  0.79164  0.67206  0.22811  1.0000
  H   H2845     1.0  0.69777  0.98473  0.40029  1.0000
  H   H2846     1.0  0.64318  0.98483  0.33456  1.0000
  S   S712      1.0  0.85331  0.83601  0.60327  1.0000
  S   S713      1.0  0.91159  0.91951  0.55533  1.0000
  H   H2847     1.0  0.86356  0.92566  0.52440  1.0000
  S   S714      1.0  0.80053  0.67397  0.66282  1.0000
  C   C1771     1.0  0.92511  0.95314  0.64053  1.0000
  C   C1772     1.0  0.90149  0.93673  0.62822  1.0000
  H   H2848     1.0  0.92867  0.86116  0.72335  1.0000
  H   H2849     1.0  0.85135  0.97394  0.54670  1.0000
  Fe  Fe357     1.0  0.82353  0.73066  0.68793  1.0000
  S   S715      1.0  0.79105  0.76136  0.69242  1.0000
  S   S716      1.0  0.86251  0.72751  0.69149  1.0000
  Fe  Fe358     1.0  0.79431  0.70556  0.67465  1.0000
  S   S717      1.0  0.75949  0.73399  0.67821  1.0000
  H   H2850     1.0  0.82205  0.69852  0.49792  1.0000
  Fe  Fe359     1.0  0.78454  0.76160  0.67036  1.0000
  S   S718      1.0  0.77203  0.79689  0.65516  1.0000
  Fe  Fe360     1.0  0.76890  0.73116  0.69990  1.0000
  H   H2851     1.0  0.84642  0.68425  0.66711  1.0000
  S   S719      1.0  0.81886  0.73342  0.66513  1.0000
  S   S720      1.0  0.80189  0.70021  0.69711  1.0000
  C   C1773     1.0  0.78363  0.97872  0.59568  1.0000
  H   H2852     1.0  0.93965  0.72433  0.72456  1.0000
  S   S721      1.0  0.89659  0.87436  0.50474  1.0000
  H   H2853     1.0  0.81520  0.93810  0.55662  1.0000
  C   C1774     1.0  0.94150  0.87191  0.71611  1.0000
  C   C1775     1.0  0.91034  0.95142  0.61510  1.0000
  C   C1776     1.0  0.87188  0.66232  0.68831  1.0000
  H   H2854     1.0  0.85834  0.66144  0.65599  1.0000
  C   C1777     1.0  0.84585  0.76024  0.72662  1.0000
  S   S722      1.0  0.83336  0.90495  0.61123  1.0000
  H   H2855     1.0  0.85576  0.67687  0.69163  1.0000
  H   H2856     1.0  0.82590  0.74585  0.71506  1.0000
  C   C1778     1.0  0.96539  0.86027  0.71039  1.0000
  S   S723      1.0  0.73904  0.73113  0.71987  1.0000
  H   H2857     1.0  0.59670  0.97049  0.65218  1.0000
  C   C1779     1.0  0.55849  0.94946  0.66826  1.0000
  H   H2858     1.0  0.51197  0.74338  0.71211  1.0000
  C   C1780     1.0  0.83525  0.97759  0.61894  1.0000
  C   C1781     1.0  0.75083  0.67866  0.66209  1.0000
  H   H2859     1.0  0.85379  0.96555  0.61643  1.0000
  H   H2860     1.0  0.71805  0.66110  0.70737  1.0000
  C   C1782     1.0  0.53476  0.74055  0.72767  1.0000
  H   H2861     1.0  0.74679  0.69140  0.66944  1.0000
  H   H2862     1.0  0.58684  0.92948  0.68849  1.0000
  C   C1783     1.0  0.55881  0.97501  0.68486  1.0000
  H   H2863     1.0  0.74542  0.69025  0.70564  1.0000
  C   C1784     1.0  0.78262  0.96915  0.61048  1.0000
  S   S724      1.0  0.84850  0.90136  0.57664  1.0000
  S   S725      1.0  0.86669  0.94322  0.58830  1.0000
  C   C1785     1.0  0.90355  0.88532  0.51863  1.0000
  C   C1786     1.0  0.89323  0.87640  0.53306  1.0000
  C   C1787     1.0  0.89636  0.88622  0.54440  1.0000
  H   H2864     1.0  0.88256  0.86196  0.53548  1.0000
  H   H2865     1.0  0.88844  0.87905  0.55548  1.0000
  C   C1788     1.0  0.83032  0.82559  0.61752  1.0000
  C   C1789     1.0  0.83407  0.80059  0.62414  1.0000
  C   C1790     1.0  0.81639  0.79171  0.63580  1.0000
  C   C1791     1.0  0.79464  0.80770  0.64073  1.0000
  C   C1792     1.0  0.79064  0.83264  0.63392  1.0000
  C   C1793     1.0  0.80862  0.84168  0.62244  1.0000
  H   H2866     1.0  0.85082  0.78810  0.62030  1.0000
  H   H2867     1.0  0.81957  0.77245  0.64082  1.0000
  H   H2868     1.0  0.77373  0.84506  0.63763  1.0000
  H   H2869     1.0  0.80550  0.86095  0.61725  1.0000
  C   C1794     1.0  0.93415  0.89766  0.71246  1.0000
  C   C1795     1.0  0.95055  0.91187  0.70295  1.0000
  C   C1796     1.0  0.97427  0.90022  0.69695  1.0000
  Fe  Fe361     1.0  0.91756  0.88113  0.48162  1.0000
  H   H2870     1.0  0.86258  0.97286  0.63907  1.0000
  C   C1797     1.0  0.86467  0.74223  0.70520  1.0000
  C   C1798     1.0  0.88773  0.74661  0.70601  1.0000
  H   H2871     1.0  0.90397  0.74146  0.69798  1.0000
  C   C1799     1.0  0.71179  0.67571  0.71360  1.0000
  C   C1800     1.0  0.63705  0.65807  0.69549  1.0000
  H   H2872     1.0  0.67247  0.65910  0.67123  1.0000
  H   H2873     1.0  0.90745  0.76175  0.71743  1.0000
  Fe  Fe362     1.0  0.88435  0.91196  0.57634  1.0000
  H   H2874     1.0  0.79132  0.95020  0.61405  1.0000
  C   C1801     1.0  0.81036  0.71509  0.49238  1.0000
  S   S726      1.0  0.59982  0.68930  0.72343  1.0000
  Fe  Fe363     1.0  0.96471  0.96306  0.67953  1.0000
  C   C1802     1.0  0.59440  0.94316  0.67921  1.0000
  H   H2875     1.0  0.71235  0.68197  0.66109  1.0000
  C   C1803     1.0  0.84374  0.74920  0.71551  1.0000
  Fe  Fe364     1.0  0.83121  0.93088  0.58986  1.0000
  H   H2876     1.0  0.92561  0.91077  0.50451  1.0000
  S   S727      1.0  0.94136  0.94416  0.69924  1.0000
  H   H2877     1.0  0.64909  0.67146  0.69465  1.0000
  C   C1804     1.0  0.58493  0.97969  0.66112  1.0000
  H   H2878     1.0  0.93064  0.95377  0.65040  1.0000
  S   S728      1.0  0.98190  0.94624  0.65981  1.0000
  C   C1805     1.0  0.83476  0.97103  0.52329  1.0000
  C   C1806     1.0  0.86261  0.66946  0.66437  1.0000
  C   C1807     1.0  0.50356  0.77672  0.72081  1.0000
  C   C1808     1.0  0.93380  0.96799  0.62745  1.0000
  C   C1809     1.0  0.85667  0.95574  0.54324  1.0000
  C   C1810     1.0  0.92638  0.96712  0.61474  1.0000
  C   C1811     1.0  0.84545  0.92715  0.53214  1.0000
  C   C1812     1.0  0.72729  0.69218  0.71261  1.0000
  H   H2879     1.0  0.80738  0.97071  0.55037  1.0000
  H   H2880     1.0  0.82134  0.73011  0.48876  1.0000
  N   N180      1.0  0.57420  0.96180  0.67335  1.0000
  C   C1813     1.0  0.88977  0.75799  0.71703  1.0000
  H   H2881     1.0  0.56981  0.98491  0.68890  1.0000
  H   H2882     1.0  0.77002  0.73847  0.48058  1.0000
  H   H2883     1.0  0.83165  0.92336  0.52683  1.0000
  H   H2884     1.0  0.91568  0.90661  0.71696  1.0000
  H   H2885     1.0  0.56936  0.93925  0.65956  1.0000
  H   H2886     1.0  0.84777  0.91208  0.54175  1.0000
  H   H2887     1.0  0.98706  0.91108  0.68964  1.0000
  C   C1814     1.0  0.90966  0.90523  0.54139  1.0000
  H   H2888     1.0  0.79922  0.67251  0.49047  1.0000
  Fe  Fe365     1.0  0.85441  0.87653  0.59784  1.0000
  H   H2889     1.0  0.95873  0.69394  0.72551  1.0000
  H   H2890     1.0  0.90470  0.95082  0.60526  1.0000
  N   N181      1.0  0.83763  0.95165  0.53634  1.0000
  H   H2891     1.0  0.85941  0.94141  0.55307  1.0000
  H   H2892     1.0  0.93306  0.97860  0.60459  1.0000
  C   C1815     1.0  0.92055  0.91377  0.52698  1.0000
  H   H2893     1.0  0.87889  0.67845  0.65941  1.0000
  C   C1816     1.0  0.91753  0.90383  0.51561  1.0000
  S   S729      1.0  0.89191  0.88470  0.59655  1.0000
  S   S730      1.0  0.49713  0.96084  0.68854  1.0000
  H   H2894     1.0  0.53474  0.65629  0.48307  1.0000
  H   H2895     1.0  0.62047  0.66815  0.69070  1.0000
  H   H2896     1.0  0.93105  0.92833  0.52459  1.0000
  H   H2897     1.0  0.79390  0.72121  0.50058  1.0000
  H   H2898     1.0  0.87511  0.95488  0.53581  1.0000
  H   H2899     1.0  0.55003  0.96228  0.69423  1.0000
  H   H2900     1.0  0.85257  0.97067  0.51528  1.0000
  H   H2901     1.0  0.54981  0.93609  0.67729  1.0000
  S   S731      1.0  0.87990  0.91832  0.62934  1.0000
  C   C1817     1.0  0.71947  0.71086  0.72080  1.0000
  H   H2902     1.0  0.60649  0.95197  0.68317  1.0000
  H   H2903     1.0  0.88813  0.67159  0.68397  1.0000
  C   C1818     1.0  0.90892  0.93762  0.64091  1.0000
  C   C1819     1.0  0.51642  0.75274  0.71940  1.0000
  H   H2904     1.0  0.82238  0.96539  0.62568  1.0000
  C   C1820     1.0  0.76997  0.98400  0.62071  1.0000
  N   N182      1.0  0.86054  0.84262  0.65046  1.0000
  C   C1821     1.0  0.87666  0.82332  0.65917  1.0000
  C   C1822     1.0  0.83535  0.83694  0.65379  1.0000
  C   C1823     1.0  0.87100  0.84331  0.63486  1.0000
  C   C1824     1.0  0.85912  0.86693  0.65398  1.0000
  H   H2905     1.0  0.87803  0.80472  0.65680  1.0000
  H   H2906     1.0  0.86931  0.82230  0.67102  1.0000
  H   H2907     1.0  0.89584  0.82700  0.65690  1.0000
  H   H2908     1.0  0.82266  0.85115  0.64742  1.0000
  H   H2909     1.0  0.83573  0.81878  0.65117  1.0000
  H   H2910     1.0  0.82687  0.83611  0.66549  1.0000
  H   H2911     1.0  0.85899  0.85729  0.62797  1.0000
  H   H2912     1.0  0.87271  0.82520  0.63177  1.0000
  H   H2913     1.0  0.88974  0.84820  0.63182  1.0000
  H   H2914     1.0  0.84733  0.88196  0.64743  1.0000
  H   H2915     1.0  0.87782  0.87182  0.65160  1.0000
  H   H2916     1.0  0.85116  0.86725  0.66563  1.0000
  N   N183      1.0  0.75664  0.74740  0.63301  1.0000
  C   C1825     1.0  0.75236  0.72926  0.62559  1.0000
  C   C1826     1.0  0.75888  0.77090  0.62267  1.0000
  C   C1827     1.0  0.77983  0.73754  0.63876  1.0000
  C   C1828     1.0  0.73558  0.75194  0.64511  1.0000
  H   H2917     1.0  0.75089  0.71124  0.63311  1.0000
  H   H2918     1.0  0.76786  0.72544  0.61637  1.0000
  H   H2919     1.0  0.73484  0.73589  0.62124  1.0000
  H   H2920     1.0  0.76198  0.78495  0.62807  1.0000
  H   H2921     1.0  0.77485  0.76829  0.61352  1.0000
  H   H2922     1.0  0.74178  0.77891  0.61804  1.0000
  H   H2923     1.0  0.78363  0.75085  0.64435  1.0000
  H   H2924     1.0  0.79616  0.73370  0.62999  1.0000
  H   H2925     1.0  0.77872  0.72000  0.64674  1.0000
  H   H2926     1.0  0.73835  0.76544  0.65102  1.0000
  H   H2927     1.0  0.73335  0.73460  0.65314  1.0000
  H   H2928     1.0  0.71776  0.75954  0.64119  1.0000
  S   S732      1.0  0.67380  0.68918  0.48486  1.0000
  S   S733      1.0  0.79980  0.96059  0.58271  1.0000
  C   C1829     1.0  0.73132  0.67317  0.65742  1.0000
  H   H2929     1.0  0.90205  0.92637  0.65111  1.0000
  Fe  Fe366     1.0  0.87060  0.91482  0.60857  1.0000
  H   H2930     1.0  0.54292  0.96308  0.66391  1.0000
  C   C1830     1.0  0.81368  0.95266  0.54670  1.0000
  Fe  Fe367     1.0  0.96736  0.98369  0.64757  1.0000
  H   H2931     1.0  0.60641  0.93280  0.67081  1.0000
  C   C1831     1.0  0.98167  0.87445  0.70069  1.0000
  C   C1832     1.0  0.68823  0.67821  0.72253  1.0000
  H   H2932     1.0  0.83067  0.97370  0.64760  1.0000
  S   S734      1.0  0.97594  0.82837  0.71588  1.0000
  C   C1833     1.0  0.78824  0.68984  0.48511  1.0000
  H   H2933     1.0  0.64396  0.65610  0.66723  1.0000
  H   H2934     1.0  0.79877  0.94987  0.54187  1.0000
  C   C1834     1.0  0.77541  0.66726  0.65745  1.0000
  S   S735      1.0  0.66961  0.65692  0.72377  1.0000
  H   H2935     1.0  0.98181  0.95064  0.60617  1.0000
  H   H2936     1.0  0.76901  0.97647  0.63216  1.0000
  H   H2937     1.0  0.54413  0.72180  0.72684  1.0000
  C   C1835     1.0  0.73622  0.65618  0.64814  1.0000
  H   H2938     1.0  0.77102  0.69521  0.49302  1.0000
  H   H2939     1.0  0.82056  0.96848  0.51779  1.0000
  N   N184      1.0  0.80279  0.70974  0.47999  1.0000
  C   C1836     1.0  0.84398  0.98521  0.64058  1.0000
  H   H2940     1.0  0.82818  0.65323  0.68679  1.0000
  C   C1837     1.0  0.86882  0.76463  0.72746  1.0000
  H   H2941     1.0  0.95073  0.66151  0.74725  1.0000
  Fe  Fe368     1.0  0.92150  0.87724  0.86934  1.0000
  S   S736      1.0  0.95659  0.84837  0.86670  1.0000
  S   S737      1.0  0.92782  0.91670  0.86104  1.0000
  Fe  Fe369     1.0  0.88955  0.83784  0.88299  1.0000
  S   S738      1.0  0.92224  0.80648  0.88191  1.0000
  S   S739      1.0  0.85020  0.83242  0.89285  1.0000
  Fe  Fe370     1.0  0.94155  0.83028  0.88921  1.0000
  S   S740      1.0  0.96329  0.81875  0.90736  1.0000
  Fe  Fe371     1.0  0.93423  0.82743  0.85941  1.0000
  S   S741      1.0  0.95003  0.80420  0.84204  1.0000
  S   S742      1.0  0.90762  0.86017  0.89233  1.0000
  S   S743      1.0  0.90025  0.85767  0.86001  1.0000
  H   H2942     1.0  0.54829  0.66072  0.93028  1.0000
  Fe  Fe372     1.0  0.77820  0.72751  0.91321  1.0000
  S   S744      1.0  0.77085  0.74466  0.93283  1.0000
  S   S745      1.0  0.81265  0.73406  0.89631  1.0000
  Fe  Fe373     1.0  0.73440  0.70039  0.92494  1.0000
  S   S746      1.0  0.72509  0.71523  0.94563  1.0000
  C   C1838     1.0  0.54077  0.75262  0.73704  1.0000
  Fe  Fe374     1.0  0.73087  0.75122  0.93124  1.0000
  Fe  Fe375     1.0  0.76618  0.70676  0.94520  1.0000
  H   H2943     1.0  0.67890  0.91155  0.96088  1.0000
  S   S747      1.0  0.73823  0.73717  0.91050  1.0000
  S   S748      1.0  0.77537  0.68896  0.92570  1.0000
  C   C1839     1.0  0.90452  0.94043  0.88428  1.0000
  C   C1840     1.0  0.71050  0.78664  0.95963  1.0000
  Fe  Fe376     1.0  0.90631  0.78429  0.74571  1.0000
  H   H2944     1.0  0.81094  0.66143  0.94444  1.0000
  C   C1841     1.0  0.54452  0.82792  0.96036  1.0000
  Fe  Fe377     1.0  0.92525  0.80708  0.76585  1.0000
  S   S749      1.0  0.96524  0.79516  0.75581  1.0000
  S   S750      1.0  0.91287  0.83265  0.78212  1.0000
  H   H2945     1.0  0.66363  0.72846  0.96607  1.0000
  C   C1842     1.0  0.56275  0.80706  0.96368  1.0000
  Fe  Fe378     1.0  0.95455  0.75945  0.75603  1.0000
  H   H2946     1.0  0.74221  0.90192  0.96879  1.0000
  S   S751      1.0  0.91253  0.82228  0.74457  1.0000
  S   S752      1.0  0.91548  0.77021  0.76799  1.0000
  H   H2947     1.0  0.89745  0.92378  0.88953  1.0000
  H   H2948     1.0  0.97378  0.92421  0.87191  1.0000
  H   H2949     1.0  0.96133  0.71399  0.73667  1.0000
  C   C1843     1.0  0.62956  0.67363  0.90212  1.0000
  H   H2950     1.0  0.65810  0.72299  0.89205  1.0000
  H   H2951     1.0  0.65213  0.83769  0.96725  1.0000
  N   N185      1.0  0.95804  0.87918  0.75450  1.0000
  C   C1844     1.0  0.89850  0.96084  0.89129  1.0000
  Fe  Fe379     1.0  0.62983  0.66580  0.73497  1.0000
  H   H2952     1.0  0.50027  0.80752  0.73099  1.0000
  C   C1845     1.0  0.81019  0.66885  0.96538  1.0000
  H   H2953     1.0  0.66749  0.71587  0.94249  1.0000
  C   C1846     1.0  0.66035  0.73551  0.93781  1.0000
  H   H2954     1.0  0.74746  0.89027  0.95233  1.0000
  C   C1847     1.0  0.53893  0.71643  0.90756  1.0000
  Fe  Fe380     1.0  0.58037  0.69854  0.74505  1.0000
  H   H2955     1.0  0.66180  0.69938  0.73723  1.0000
  S   S753      1.0  0.52518  0.74768  0.90758  1.0000
  H   H2956     1.0  0.64047  0.67485  0.78045  1.0000
  H   H2957     1.0  0.73483  0.67434  0.89635  1.0000
  S   S754      1.0  0.63460  0.88682  0.97521  1.0000
  C   C1848     1.0  0.70878  0.86704  0.96003  1.0000
  C   C1849     1.0  0.59937  0.65342  0.79668  1.0000
  C   C1850     1.0  0.97034  0.72409  0.92955  1.0000
  H   H2958     1.0  0.99116  0.89672  0.90800  1.0000
  H   H2959     1.0  0.49758  0.92126  0.89737  1.0000
  H   H2960     1.0  0.81509  0.72770  0.95666  1.0000
  C   C1851     1.0  0.91087  0.69083  0.73711  1.0000
  C   C1852     1.0  0.92231  0.98401  0.87074  1.0000
  H   H2961     1.0  0.71654  0.86941  0.94820  1.0000
  H   H2962     1.0  0.92749  0.72271  0.75770  1.0000
  H   H2963     1.0  0.95384  0.68147  0.75832  1.0000
  C   C1853     1.0  0.56543  0.85302  0.96899  1.0000
  H   H2964     1.0  0.57186  0.67836  0.88406  1.0000
  C   C1854     1.0  0.54908  0.67415  0.92024  1.0000
  H   H2965     1.0  0.60980  0.74670  0.96436  1.0000
  S   S755      1.0  0.61249  0.67843  0.75602  1.0000
  C   C1855     1.0  0.58221  0.80922  0.96975  1.0000
  H   H2966     1.0  0.52941  0.82642  0.95571  1.0000
  C   C1856     1.0  0.82243  0.66266  0.97721  1.0000
  C   C1857     1.0  0.90730  0.98276  0.88455  1.0000
  H   H2967     1.0  0.68981  0.72788  0.73605  1.0000
  N   N186      1.0  0.63113  0.69980  0.89624  1.0000
  H   H2968     1.0  0.94540  0.91025  0.76527  1.0000
  C   C1858     1.0  0.53790  0.69898  0.92046  1.0000
  C   C1859     1.0  0.91496  0.71731  0.75221  1.0000
  C   C1860     1.0  0.69551  0.79670  0.94922  1.0000
  H   H2969     1.0  0.92631  0.66869  0.76230  1.0000
  H   H2970     1.0  0.67099  0.69150  0.89018  1.0000
  H   H2971     1.0  0.62468  0.77655  0.93388  1.0000
  H   H2972     1.0  0.92044  0.67665  0.73038  1.0000
  H   H2973     1.0  0.65171  0.78422  0.93709  1.0000
  H   H2974     1.0  0.72666  0.77227  0.95758  1.0000
  H   H2975     1.0  0.53368  0.78663  0.74490  1.0000
  C   C1861     1.0  0.55099  0.70891  0.89441  1.0000
  C   C1862     1.0  0.56247  0.68408  0.89421  1.0000
  H   H2976     1.0  0.55163  0.72235  0.88437  1.0000
  C   C1863     1.0  0.93279  0.87868  0.75289  1.0000
  C   C1864     1.0  0.84077  0.80420  0.89468  1.0000
  C   C1865     1.0  0.81580  0.80275  0.90038  1.0000
  C   C1866     1.0  0.80715  0.78117  0.90113  1.0000
  C   C1867     1.0  0.82336  0.76098  0.89597  1.0000
  C   C1868     1.0  0.84848  0.76221  0.89048  1.0000
  C   C1869     1.0  0.85723  0.78365  0.89002  1.0000
  H   H2977     1.0  0.80293  0.81856  0.90401  1.0000
  H   H2978     1.0  0.78773  0.78050  0.90529  1.0000
  H   H2979     1.0  0.86117  0.74651  0.88663  1.0000
  H   H2980     1.0  0.87661  0.78439  0.88594  1.0000
  C   C1870     1.0  0.94062  0.81288  0.82509  1.0000
  C   C1871     1.0  0.94711  0.79577  0.81580  1.0000
  C   C1872     1.0  0.93895  0.80167  0.80249  1.0000
  C   C1873     1.0  0.92425  0.82478  0.79843  1.0000
  C   C1874     1.0  0.91808  0.84204  0.80760  1.0000
  C   C1875     1.0  0.92620  0.83612  0.82091  1.0000
  H   H2981     1.0  0.95830  0.77777  0.81896  1.0000
  H   H2982     1.0  0.94384  0.78827  0.79547  1.0000
  H   H2983     1.0  0.90683  0.86002  0.80445  1.0000
  H   H2984     1.0  0.92133  0.84953  0.82792  1.0000
  C   C1876     1.0  0.50273  0.71912  0.77551  1.0000
  C   C1877     1.0  0.92825  0.96365  0.86372  1.0000
  C   C1878     1.0  0.60515  0.66056  0.80825  1.0000
  H   H2985     1.0  0.97258  0.88548  0.73156  1.0000
  Fe  Fe381     1.0  0.51114  0.75921  0.92936  1.0000
  C   C1879     1.0  0.66008  0.67471  0.77480  1.0000
  H   H2986     1.0  0.84925  0.75955  0.92251  1.0000
  S   S756      1.0  0.61903  0.65279  0.83441  1.0000
  H   H2987     1.0  0.96544  0.71391  0.92244  1.0000
  H   H2988     1.0  0.70650  0.91503  0.94746  1.0000
  H   H2989     1.0  0.50420  0.87983  0.91295  1.0000
  H   H2990     1.0  0.70099  0.92651  0.96404  1.0000
  H   H2991     1.0  0.95991  0.71882  0.94076  1.0000
  N   N187      1.0  0.92851  0.69812  0.74367  1.0000
  H   H2992     1.0  0.91862  0.88303  0.76259  1.0000
  S   S757      1.0  0.97588  0.72080  0.76244  1.0000
  H   H2993     1.0  0.60494  0.67982  0.80779  1.0000
  C   C1880     1.0  0.91940  0.94178  0.87041  1.0000
  C   C1881     1.0  0.62722  0.70627  0.88109  1.0000
  H   H2994     1.0  0.95543  0.87947  0.90558  1.0000
  H   H2995     1.0  0.87165  0.71408  0.95366  1.0000
  H   H2996     1.0  0.67690  0.74405  0.93255  1.0000
  C   C1882     1.0  0.86235  0.70672  0.94712  1.0000
  H   H2997     1.0  0.85145  0.69346  0.95479  1.0000
  C   C1883     1.0  0.86113  0.74406  0.92875  1.0000
  H   H2998     1.0  0.63292  0.66781  0.91343  1.0000
  N   N188      1.0  0.84618  0.72674  0.93882  1.0000
  C   C1884     1.0  0.96406  0.86151  0.76770  1.0000
  Fe  Fe382     1.0  0.58199  0.65607  0.73072  1.0000
  C   C1885     1.0  0.83426  0.71598  0.93040  1.0000
  H   H2999     1.0  0.65050  0.73560  0.92911  1.0000
  H   H3000     1.0  0.89956  0.71096  0.76074  1.0000
  H   H3001     1.0  0.61104  0.67007  0.90220  1.0000
  S   S758      1.0  0.94472  0.77104  0.73393  1.0000
  H   H3002     1.0  0.50864  0.75624  0.78688  1.0000
  N   N189      1.0  0.64399  0.74893  0.94902  1.0000
  H   H3003     1.0  0.97778  0.90549  0.75693  1.0000
  H   H3004     1.0  0.83506  0.74863  0.95550  1.0000
  C   C1886     1.0  0.98562  0.90533  0.87280  1.0000
  C   C1887     1.0  0.62206  0.73741  0.95554  1.0000
  H   H3005     1.0  0.96354  0.74421  0.92578  1.0000
  C   C1888     1.0  0.56155  0.66669  0.90716  1.0000
  N   N190      1.0  0.98373  0.89225  0.88807  1.0000
  N   N191      1.0  0.71223  0.88699  0.96637  1.0000
  H   H3006     1.0  0.61413  0.71106  0.91662  1.0000
  H   H3007     1.0  0.51802  0.71973  0.76581  1.0000
  H   H3008     1.0  0.61045  0.73888  0.94741  1.0000
  C   C1889     1.0  0.82030  0.65709  0.95352  1.0000
  C   C1890     1.0  0.63568  0.77499  0.94232  1.0000
  H   H3009     1.0  0.61225  0.73553  0.90096  1.0000
  H   H3010     1.0  0.67509  0.75529  0.95582  1.0000
  H   H3011     1.0  0.93160  0.86009  0.75161  1.0000
  N   N192      1.0  0.86162  0.80803  0.84461  1.0000
  C   C1891     1.0  0.85015  0.78613  0.84742  1.0000
  C   C1892     1.0  0.86467  0.81923  0.82900  1.0000
  C   C1893     1.0  0.88622  0.80046  0.84887  1.0000
  C   C1894     1.0  0.84552  0.82632  0.85317  1.0000
  H   H3012     1.0  0.84750  0.77733  0.85913  1.0000
  H   H3013     1.0  0.86191  0.77191  0.84118  1.0000
  H   H3014     1.0  0.83154  0.79112  0.84432  1.0000
  H   H3015     1.0  0.87762  0.80636  0.82221  1.0000
  H   H3016     1.0  0.84663  0.82439  0.82522  1.0000
  H   H3017     1.0  0.87246  0.83629  0.82666  1.0000
  H   H3018     1.0  0.89508  0.81661  0.84730  1.0000
  H   H3019     1.0  0.89923  0.78726  0.84234  1.0000
  H   H3020     1.0  0.88485  0.79143  0.86046  1.0000
  H   H3021     1.0  0.85387  0.84287  0.85160  1.0000
  H   H3022     1.0  0.84258  0.81843  0.86498  1.0000
  H   H3023     1.0  0.82688  0.83273  0.85013  1.0000
  Fe  Fe383     1.0  0.95190  0.80793  0.73463  1.0000
  H   H3024     1.0  0.64179  0.69490  0.87406  1.0000
  S   S759      1.0  0.70222  0.78619  0.93277  1.0000
  S   S760      1.0  0.56188  0.77817  0.96024  1.0000
  C   C1895     1.0  0.68388  0.81412  0.97539  1.0000
  H   H3025     1.0  0.52842  0.70452  0.93061  1.0000
  C   C1896     1.0  0.94033  0.67643  0.75330  1.0000
  S   S761      1.0  0.51824  0.79563  0.93101  1.0000
  Fe  Fe384     1.0  0.52771  0.77575  0.95258  1.0000
  C   C1897     1.0  0.94789  0.70800  0.73208  1.0000
  C   C1898     1.0  0.70452  0.66176  0.91226  1.0000
  S   S762      1.0  0.52351  0.73863  0.95013  1.0000
  S   S763      1.0  0.70468  0.67928  0.92513  1.0000
  H   H3026     1.0  0.53164  0.86687  0.96049  1.0000
  C   C1899     1.0  0.68017  0.69712  0.73054  1.0000
  H   H3027     1.0  0.65961  0.69890  0.90787  1.0000
  H   H3028     1.0  0.62757  0.71751  0.96027  1.0000
  C   C1900     1.0  0.61178  0.71560  0.90512  1.0000
  C   C1901     1.0  0.82681  0.74022  0.94894  1.0000
  H   H3029     1.0  0.87070  0.75239  0.93466  1.0000
  H   H3030     1.0  0.70071  0.65979  0.75565  1.0000
  H   H3031     1.0  0.82289  0.73065  0.92357  1.0000
  H   H3032     1.0  0.82162  0.70398  0.93760  1.0000
  C   C1902     1.0  0.95899  0.90438  0.75572  1.0000
  H   H3033     1.0  0.81412  0.75530  0.94303  1.0000
  C   C1903     1.0  0.95751  0.89076  0.89441  1.0000
  C   C1904     1.0  0.73901  0.88711  0.96408  1.0000
  H   H3034     1.0  0.93970  0.96494  0.85298  1.0000
  H   H3035     1.0  0.92733  0.89217  0.74324  1.0000
  S   S764      1.0  0.78314  0.69225  0.96538  1.0000
  H   H3036     1.0  0.51719  0.76227  0.76758  1.0000
  H   H3037     1.0  0.89606  0.68319  0.74556  1.0000
  H   H3038     1.0  0.90662  0.73429  0.74521  1.0000
  H   H3039     1.0  0.62782  0.72602  0.87634  1.0000
  H   H3040     1.0  0.87547  0.73467  0.92069  1.0000
  H   H3041     1.0  0.84811  0.70477  0.92302  1.0000
  H   H3042     1.0  0.94569  0.90941  0.89487  1.0000
  H   H3043     1.0  0.59443  0.66720  0.78746  1.0000
  H   H3044     1.0  0.60890  0.70306  0.88036  1.0000
  S   S765      1.0  0.87052  0.77772  0.74198  1.0000
  C   C1905     1.0  0.54586  0.85082  0.96302  1.0000
  H   H3045     1.0  0.62372  0.78582  0.95048  1.0000
  C   C1906     1.0  0.52869  0.77700  0.73793  1.0000
  S   S766      1.0  0.56182  0.73703  0.74854  1.0000
  H   H3046     1.0  0.71794  0.84854  0.96531  1.0000
  C   C1907     1.0  0.97623  0.87218  0.74168  1.0000
  H   H3047     1.0  0.95448  0.91812  0.74589  1.0000
  C   C1908     1.0  0.67444  0.81508  0.95203  1.0000
  C   C1909     1.0  0.65785  0.74781  0.96044  1.0000
  C   C1910     1.0  0.50104  0.76149  0.77672  1.0000
  C   C1911     1.0  0.99413  0.80228  0.90447  1.0000
  H   H3048     1.0  0.87696  0.69591  0.93985  1.0000
  H   H3049     1.0  0.88686  0.95969  0.90197  1.0000
  H   H3050     1.0  0.59614  0.79311  0.97259  1.0000
  C   C1912     1.0  0.69595  0.71325  0.72983  1.0000
  S   S767      1.0  0.55968  0.66719  0.75161  1.0000
  C   C1913     1.0  0.58369  0.83215  0.97227  1.0000
  C   C1914     1.0  0.66847  0.82359  0.96515  1.0000
  H   H3051     1.0  0.95048  0.86603  0.77758  1.0000
  H   H3052     1.0  0.51246  0.88375  0.88602  1.0000
  H   H3053     1.0  0.96340  0.84234  0.76710  1.0000
  H   H3054     1.0  0.59284  0.71306  0.90508  1.0000
  H   H3055     1.0  0.94974  0.88214  0.88776  1.0000
  H   H3056     1.0  0.64348  0.66128  0.89546  1.0000
  H   H3057     1.0  0.97917  0.89538  0.86618  1.0000
  C   C1915     1.0  0.70479  0.79552  0.97266  1.0000
  H   H3058     1.0  0.98169  0.92514  0.89599  1.0000
  H   H3059     1.0  0.66267  0.82277  0.94404  1.0000
  C   C1916     1.0  0.65599  0.70354  0.89660  1.0000
  H   H3060     1.0  0.51166  0.71234  0.78520  1.0000
  C   C1917     1.0  0.69919  0.91106  0.95933  1.0000
  H   H3061     1.0  0.99234  0.85604  0.88278  1.0000
  H   H3062     1.0  0.90135  0.70698  0.73000  1.0000
  H   H3063     1.0  0.66813  0.68513  0.78034  1.0000
  C   C1918     1.0  0.50979  0.78886  0.73006  1.0000
  H   H3064     1.0  0.74929  0.86916  0.96930  1.0000
  H   H3065     1.0  0.64658  0.75878  0.96873  1.0000
  H   H3066     1.0  0.65981  0.68519  0.76352  1.0000
  S   S768      1.0  0.56575  0.88164  0.97303  1.0000
  H   H3067     1.0  0.59893  0.83363  0.97679  1.0000
  C   C1919     1.0  0.72077  0.66317  0.89884  1.0000
  H   H3068     1.0  0.68874  0.86655  0.96152  1.0000
  H   H3069     1.0  0.82955  0.76537  0.73462  1.0000
  H   H3070     1.0  0.98293  0.86135  0.76935  1.0000
  H   H3071     1.0  0.97547  0.85354  0.74016  1.0000
  C   C1920     1.0  0.99270  0.90594  0.89639  1.0000
  H   H3072     1.0  0.70943  0.66004  0.77232  1.0000
