data_image0
_chemical_formula_structural       C2HCHC3HFeNH3CH5CH3CH2SFeHSFeC2FeSCSHC2SHC3H2SCH2CH3CH6SCH2SCNH2CFeSHSHS2FeSFeSHC7H4CSH3C3H3NC2NCH4FeHSH3CH2SH4C2H3C2H2SH2SFeS3FeNHC6FeH2SC2SHC2HC2H5CH5C2H2CH2CSHCHSH2CFeHSFeS3FeS2CSNCHCHC6H5FeH2FeH2SH2CH2C2SCH5CSC6H12CHCH2CNC2HCH2FeH3FeSFeSCFeSFeS3HFeS2FeHFeSHSH2C7H3CSCHC7H12C2N2SC2HSH3C2H2CNH3SH5CH5CH2S2H5CHSH2CHSHSH2CHCSH3C4H2SHSHC2HNFeS2H3CH3CFeHS2H2SC6H4FeHCH3NCSHFeHCHNH3SCFeHCH3C2HC2FeHC2H4CSHSCSC8FeH3SNCH7C2H7CHFeS2HCSHFeSHNHC7H8CFeHCH2S2HSHCH2SH4FeHNS5FeHCFeSC4H3SC4HCH2C2H4SCFeH4NC2H2C2H5CSH3SH2CFeNSHCSHC7H4CH3FeCH2CH3CSHFeSH2FeS2FeSHSC4H2CH3C2HCHSH2C2H3CH3CHCH2CHCNFeS3NHSHC2FeHC6H6FeH4C2HCHCH4C2H4CH3NHC3H4FeC2H2CSFeSHSH2SC2FeH4C6H4SH2CHCFeHCHSCHCH2C2FeHCSH3CHSH6FeS2CHSCHCNH2C6H5CNHCNH2FeHSH2Fe2C4HCH3FeSFeSC6H9SNHSHSH2C2NH2S2FeSFeSH5C6H3CH4CSC3H3FeCHNHCH2CSHSCHFeCFeC4HSH4CH3C3FeSH5CHC6H5CHNSHSC2HNC2H4SH4C2HSCSHSH4CHSHFeS3H2CH3C6H3NH2NC2HFeH3CH4CH2FeH3NFeCH6SH2SHC6H7CSCHSH3FeH3FeS2H2FeHCHSHSHCSHC6FeH2SCH2CHNSCH3FeHN2CH2C2H3CH4CHCHSH2CHSCS2FeSFeSFeS2FeSHSCH2C6H3C6H4NH4FeH3C3H2C2H3CH2FeHCHN2H2CHC2H3CH4CH2CHC2HC2HSCSH2CHCH2CH2SCHSH2SH2FeC2H2CSH3CH2CHCH2NHFeH3CNHS2FeCFeSFeHSFeHCSC6H5CHCHCH3SH2CNHSCHCHSH5FeSH2CH2CSCHSH3NS2C6H4C6H2FeHC3H2CHFe2HNC4H6CHS2HCHSH2CFeH3SHSFeSFeSC2HSFeH3CH2C6H4C2SC2H6CSH2NH4C2HNH2FeH2C3H2C2H3CHCH2SH5CSHSFeHFeSHCSCSCH3CHCH2C3HCH2C4HCH3CNC2H8CHCNHNH3CH3FeH2
_chemical_formula_sum              "C480 H768 Fe96 N48 S192"
_cell_length_a       53.5189
_cell_length_b       34.2166
_cell_length_c       51.1861
_cell_angle_alpha    90.1425
_cell_angle_beta     103.198
_cell_angle_gamma    90.3483

_space_group_name_H-M_alt    "P 1"
_space_group_IT_number       1

loop_
  _space_group_symop_operation_xyz
  'x, y, z'

loop_
  _atom_site_type_symbol
  _atom_site_label
  _atom_site_symmetry_multiplicity
  _atom_site_fract_x
  _atom_site_fract_y
  _atom_site_fract_z
  _atom_site_occupancy
  C   C1        1.0  0.08888  0.24415  0.30978  1.0000
  C   C2        1.0  0.06738  0.23897  0.26299  1.0000
  H   H1        1.0  0.06104  0.20851  0.26583  1.0000
  C   C3        1.0  0.12024  0.51484  0.43976  1.0000
  H   H2        1.0  0.06394  0.31731  0.26692  1.0000
  C   C4        1.0  0.10324  0.03227  0.44978  1.0000
  C   C5        1.0  0.09401  0.12134  0.35374  1.0000
  C   C6        1.0  0.07922  0.18615  0.36416  1.0000
  H   H3        1.0  0.09702  0.30284  0.27758  1.0000
  Fe  Fe1       1.0  0.03632  0.35660  0.33424  1.0000
  N   N1        1.0  0.06978  0.26235  0.28776  1.0000
  H   H4        1.0  0.05505  0.14181  0.34097  1.0000
  H   H5        1.0  0.08334  0.21355  0.31338  1.0000
  H   H6        1.0  0.07998  0.32107  0.30142  1.0000
  C   C7        1.0  0.04465  0.26370  0.29509  1.0000
  H   H7        1.0  0.03940  0.39844  0.45827  1.0000
  H   H8        1.0  0.08987  0.09308  0.34416  1.0000
  H   H9        1.0  0.05169  0.46544  0.47665  1.0000
  H   H10       1.0  0.10827  0.24338  0.30536  1.0000
  H   H11       1.0  0.14996  0.04012  0.41491  1.0000
  C   C8        1.0  0.08660  0.51734  0.39931  1.0000
  H   H12       1.0  0.05307  0.25195  0.24602  1.0000
  H   H13       1.0  0.15319  0.03201  0.45003  1.0000
  H   H14       1.0  0.04595  0.28084  0.31376  1.0000
  C   C9        1.0  0.14050  0.04488  0.43187  1.0000
  H   H15       1.0  0.03387  0.11648  0.05756  1.0000
  H   H16       1.0  0.23576  0.03503  0.36225  1.0000
  S   S1        1.0  0.05341  0.21976  0.36096  1.0000
  Fe  Fe2       1.0  0.06733  0.36769  0.39140  1.0000
  H   H17       1.0  0.08603  0.23724  0.25692  1.0000
  S   S2        1.0  0.09836  0.40248  0.41999  1.0000
  Fe  Fe3       1.0  0.05030  0.28508  0.37011  1.0000
  C   C10       1.0  0.10423  0.19520  0.37816  1.0000
  C   C11       1.0  0.12387  0.16717  0.38036  1.0000
  Fe  Fe4       1.0  0.14517  0.03460  0.35371  1.0000
  S   S3        1.0  0.04649  0.31853  0.40731  1.0000
  C   C12       1.0  0.07429  0.14910  0.35194  1.0000
  S   S4        1.0  0.14414  0.09519  0.37289  1.0000
  H   H18       1.0  0.09056  0.26027  0.32904  1.0000
  C   C13       1.0  0.07813  0.30253  0.28317  1.0000
  C   C14       1.0  0.11892  0.13007  0.36821  1.0000
  S   S5        1.0  0.07402  0.33206  0.35659  1.0000
  H   H19       1.0  0.27574  0.07520  0.37067  1.0000
  C   C15       1.0  0.08467  0.47621  0.39898  1.0000
  C   C16       1.0  0.10050  0.45420  0.41911  1.0000
  C   C17       1.0  0.11824  0.47375  0.43949  1.0000
  H   H20       1.0  0.07123  0.46155  0.38292  1.0000
  H   H21       1.0  0.13066  0.45701  0.45507  1.0000
  S   S6        1.0  0.03157  0.37252  0.29062  1.0000
  C   C18       1.0  0.27498  0.04764  0.36012  1.0000
  H   H22       1.0  0.10837  0.22351  0.38767  1.0000
  H   H23       1.0  0.14305  0.17427  0.39162  1.0000
  C   C19       1.0  0.03344  0.41249  0.43826  1.0000
  H   H24       1.0  0.10178  0.06378  0.45471  1.0000
  H   H25       1.0  0.03822  0.50770  0.45775  1.0000
  H   H26       1.0  0.13988  0.07710  0.43482  1.0000
  C   C20       1.0  0.04464  0.47714  0.45603  1.0000
  H   H27       1.0  0.09673  0.07868  0.40615  1.0000
  H   H28       1.0  0.06142  0.47839  0.44655  1.0000
  H   H29       1.0  0.02977  0.27796  0.27926  1.0000
  H   H30       1.0  0.03772  0.23398  0.29894  1.0000
  H   H31       1.0  0.05032  0.41255  0.42908  1.0000
  H   H32       1.0  0.27444  0.02568  0.01860  1.0000
  S   S7        1.0  0.03177  0.39623  0.36770  1.0000
  C   C21       1.0  0.09809  0.04667  0.40274  1.0000
  H   H33       1.0  0.03121  0.47038  0.40245  1.0000
  H   H34       1.0  0.10600  0.04317  0.38459  1.0000
  S   S8        1.0  0.16203  0.02605  0.31765  1.0000
  C   C22       1.0  0.25229  0.02495  0.35537  1.0000
  N   N2        1.0  0.11451  0.02724  0.42621  1.0000
  H   H35       1.0  0.02886  0.09403  0.02490  1.0000
  H   H36       1.0  0.07831  0.03426  0.39784  1.0000
  C   C23       1.0  0.09856  0.46449  0.72559  1.0000
  Fe  Fe5       1.0  0.05047  0.18952  0.84333  1.0000
  S   S9        1.0  0.10935  0.46068  0.82876  1.0000
  H   H37       1.0  0.17326  0.16259  0.91456  1.0000
  S   S10       1.0  0.09065  0.19600  0.86863  1.0000
  H   H38       1.0  0.15497  0.15304  0.93931  1.0000
  S   S11       1.0  0.03811  0.24883  0.85430  1.0000
  S   S12       1.0  0.06329  0.22600  0.91648  1.0000
  Fe  Fe6       1.0  0.07710  0.25303  0.88224  1.0000
  S   S13       1.0  0.10692  0.30171  0.89319  1.0000
  Fe  Fe7       1.0  0.07489  0.16879  0.90139  1.0000
  S   S14       1.0  0.09703  0.13122  0.93512  1.0000
  H   H39       1.0  0.05943  0.44360  0.74780  1.0000
  C   C24       1.0  0.14238  0.03579  0.94765  1.0000
  C   C25       1.0  0.10907  0.41672  0.84704  1.0000
  C   C26       1.0  0.12772  0.40879  0.87036  1.0000
  C   C27       1.0  0.12676  0.37345  0.88423  1.0000
  C   C28       1.0  0.10720  0.34573  0.87497  1.0000
  C   C29       1.0  0.08859  0.35363  0.85160  1.0000
  C   C30       1.0  0.08955  0.38896  0.83773  1.0000
  H   H40       1.0  0.14285  0.42987  0.87775  1.0000
  H   H41       1.0  0.14123  0.36765  0.90229  1.0000
  H   H42       1.0  0.07344  0.33256  0.84426  1.0000
  H   H43       1.0  0.07501  0.39483  0.81974  1.0000
  C   C31       1.0  0.13163  0.04737  0.89979  1.0000
  S   S15       1.0  0.16935  0.51696  0.81657  1.0000
  H   H44       1.0  0.05608  0.02572  0.93954  1.0000
  H   H45       1.0  0.11731  0.22037  0.92318  1.0000
  H   H46       1.0  0.08942  0.43367  0.77108  1.0000
  C   C32       1.0  0.12845  0.06917  0.95145  1.0000
  C   C33       1.0  0.11554  0.09114  0.92941  1.0000
  C   C34       1.0  0.11724  0.08032  0.90354  1.0000
  H   H47       1.0  0.12735  0.07764  0.97155  1.0000
  H   H48       1.0  0.10740  0.09716  0.88644  1.0000
  H   H49       1.0  0.16051  0.26975  0.91123  1.0000
  N   N3        1.0  0.15800  0.21384  0.92972  1.0000
  C   C35       1.0  0.18106  0.22058  0.95147  1.0000
  C   C36       1.0  0.15630  0.17204  0.92204  1.0000
  N   N4        1.0  0.08964  0.48523  0.74710  1.0000
  C   C37       1.0  0.13491  0.22482  0.93921  1.0000
  H   H50       1.0  0.18284  0.25188  0.95770  1.0000
  H   H51       1.0  0.19887  0.21252  0.94502  1.0000
  H   H52       1.0  0.18032  0.20289  0.96951  1.0000
  H   H53       1.0  0.14245  0.23375  0.88948  1.0000
  Fe  Fe8       1.0  0.13844  0.51038  0.83967  1.0000
  H   H54       1.0  0.11206  0.44059  0.73393  1.0000
  S   S16       1.0  0.04199  0.17441  0.79915  1.0000
  H   H55       1.0  0.13530  0.25625  0.94504  1.0000
  H   H56       1.0  0.13263  0.20681  0.95662  1.0000
  H   H57       1.0  0.13889  0.16585  0.90592  1.0000
  C   C38       1.0  0.15964  0.23797  0.90623  1.0000
  H   H58       1.0  0.08274  0.02461  0.92377  1.0000
  H   H59       1.0  0.17685  0.23071  0.89847  1.0000
  S   S17       1.0  0.03594  0.15662  0.87483  1.0000
  H   H60       1.0  0.08221  0.45122  0.71074  1.0000
  H   H61       1.0  0.12579  0.47938  0.77555  1.0000
  H   H62       1.0  0.06952  0.47219  0.77797  1.0000
  H   H63       1.0  0.10884  0.48475  0.71455  1.0000
  C   C39       1.0  0.07634  0.45741  0.76147  1.0000
  C   C40       1.0  0.11198  0.50234  0.76617  1.0000
  H   H64       1.0  0.10594  0.51770  0.78283  1.0000
  H   H65       1.0  0.05481  0.50501  0.72058  1.0000
  H   H66       1.0  0.13295  0.03903  0.87974  1.0000
  C   C41       1.0  0.14401  0.02480  0.92178  1.0000
  C   C42       1.0  0.07183  0.51671  0.73530  1.0000
  H   H67       1.0  0.03349  0.05885  0.72367  1.0000
  H   H68       1.0  0.12250  0.52384  0.75628  1.0000
  S   S18       1.0  0.08534  0.82593  0.10269  1.0000
  H   H69       1.0  0.05667  0.86670  0.25548  1.0000
  H   H70       1.0  0.13111  0.82719  0.08207  1.0000
  S   S19       1.0  0.15290  0.93143  0.32362  1.0000
  Fe  Fe9       1.0  0.13000  0.98242  0.30391  1.0000
  S   S20       1.0  0.10986  0.98556  0.25981  1.0000
  S   S21       1.0  0.18307  0.68132  0.50651  1.0000
  S   S22       1.0  0.11168  0.99417  0.33857  1.0000
  Fe  Fe10      1.0  0.18385  0.97597  0.34005  1.0000
  N   N5        1.0  0.11791  0.87491  0.17724  1.0000
  H   H71       1.0  0.13422  0.52936  0.45542  1.0000
  C   C43       1.0  0.10446  0.53688  0.41964  1.0000
  C   C44       1.0  0.05703  0.92799  0.20340  1.0000
  C   C45       1.0  0.07495  0.95563  0.21690  1.0000
  C   C46       1.0  0.08655  0.95112  0.24423  1.0000
  C   C47       1.0  0.07990  0.91896  0.25810  1.0000
  C   C48       1.0  0.06175  0.89149  0.24464  1.0000
  Fe  Fe11      1.0  0.04560  0.83470  0.10972  1.0000
  H   H72       1.0  0.07993  0.98061  0.20615  1.0000
  H   H73       1.0  0.08877  0.91530  0.27918  1.0000
  S   S23       1.0  0.22328  0.58243  0.50205  1.0000
  C   C49       1.0  0.09093  0.84190  0.07170  1.0000
  C   C50       1.0  0.07107  0.85725  0.05184  1.0000
  S   S24       1.0  0.22416  0.95753  0.33780  1.0000
  H   H74       1.0  0.04810  0.93190  0.18241  1.0000
  C   C51       1.0  0.12045  0.85125  0.04214  1.0000
  C   C52       1.0  0.11565  0.83909  0.06683  1.0000
  H   H75       1.0  0.05198  0.85963  0.05539  1.0000
  C   C53       1.0  0.26204  0.93225  0.03511  1.0000
  C   C54       1.0  0.12936  0.89113  0.20416  1.0000
  H   H76       1.0  0.11458  0.90492  0.21328  1.0000
  H   H77       1.0  0.13874  0.86805  0.21826  1.0000
  H   H78       1.0  0.08918  0.83258  0.15943  1.0000
  H   H79       1.0  0.13950  0.84873  0.03847  1.0000
  H   H80       1.0  0.10602  0.82150  0.19307  1.0000
  C   C55       1.0  0.11635  0.67104  0.35323  1.0000
  H   H81       1.0  0.08222  0.85911  0.18712  1.0000
  H   H82       1.0  0.14405  0.91399  0.20336  1.0000
  H   H83       1.0  0.09083  0.92161  0.16675  1.0000
  H   H84       1.0  0.14719  0.83151  0.17916  1.0000
  H   H85       1.0  0.15344  0.87712  0.16435  1.0000
  C   C56       1.0  0.09798  0.84574  0.17933  1.0000
  C   C57       1.0  0.13807  0.85597  0.16622  1.0000
  H   H86       1.0  0.13001  0.84361  0.14582  1.0000
  H   H87       1.0  0.09748  0.89544  0.13863  1.0000
  C   C58       1.0  0.10621  0.90676  0.15916  1.0000
  H   H88       1.0  0.12068  0.92935  0.15713  1.0000
  H   H89       1.0  0.12451  0.98053  0.40254  1.0000
  C   C59       1.0  0.25127  0.98884  0.34228  1.0000
  S   S25       1.0  0.02846  0.86019  0.20057  1.0000
  H   H90       1.0  0.11637  0.64042  0.36074  1.0000
  C   C60       1.0  0.05042  0.89581  0.21723  1.0000
  H   H91       1.0  0.10082  0.70590  0.39385  1.0000
  S   S26       1.0  0.23712  0.89757  0.03249  1.0000
  H   H92       1.0  0.13224  0.71523  0.41424  1.0000
  H   H93       1.0  0.12161  0.66593  0.40640  1.0000
  C   C61       1.0  0.12111  0.69604  0.39813  1.0000
  Fe  Fe12      1.0  0.16375  0.69883  0.46412  1.0000
  H   H94       1.0  0.09597  0.68050  0.34744  1.0000
  S   S27       1.0  0.17688  0.75269  0.44434  1.0000
  Fe  Fe13      1.0  0.13498  0.62104  0.45210  1.0000
  S   S28       1.0  0.15192  0.59787  0.49285  1.0000
  S   S29       1.0  0.10647  0.58869  0.41925  1.0000
  S   S30       1.0  0.03237  0.79877  0.14084  1.0000
  Fe  Fe14      1.0  0.18951  0.62337  0.48868  1.0000
  S   S31       1.0  0.12426  0.67898  0.46754  1.0000
  S   S32       1.0  0.17314  0.64197  0.44624  1.0000
  C   C62       1.0  0.11624  0.98516  0.42034  1.0000
  S   S33       1.0  0.11965  0.90151  0.38367  1.0000
  N   N6        1.0  0.13171  0.69718  0.37391  1.0000
  C   C63       1.0  0.15864  0.68383  0.38073  1.0000
  H   H95       1.0  0.16756  0.68547  0.36316  1.0000
  C   C64       1.0  0.13077  0.73766  0.36368  1.0000
  H   H96       1.0  0.03569  0.68813  0.50820  1.0000
  C   C65       1.0  0.16041  0.79401  0.42799  1.0000
  C   C66       1.0  0.17384  0.82018  0.41493  1.0000
  C   C67       1.0  0.16161  0.85296  0.40112  1.0000
  C   C68       1.0  0.13575  0.86009  0.40029  1.0000
  C   C69       1.0  0.12224  0.83381  0.41324  1.0000
  C   C70       1.0  0.13445  0.80088  0.42698  1.0000
  H   H97       1.0  0.19390  0.81512  0.41553  1.0000
  H   H98       1.0  0.17227  0.87287  0.39127  1.0000
  H   H99       1.0  0.10224  0.83913  0.41279  1.0000
  H   H100      1.0  0.12388  0.78118  0.43704  1.0000
  H   H101      1.0  0.07443  0.53406  0.38354  1.0000
  Fe  Fe15      1.0  0.13735  0.94596  0.35966  1.0000
  H   H102      1.0  0.14287  0.75769  0.37863  1.0000
  H   H103      1.0  0.08359  0.01935  0.44611  1.0000
  Fe  Fe16      1.0  0.14433  0.65690  0.50846  1.0000
  H   H104      1.0  0.12404  0.67045  0.33479  1.0000
  H   H105      1.0  0.11091  0.74939  0.35930  1.0000
  S   S34       1.0  0.16970  0.98724  0.37756  1.0000
  H   H106      1.0  0.15999  0.65299  0.38779  1.0000
  H   H107      1.0  0.17061  0.70206  0.39704  1.0000
  C   C71       1.0  0.07581  0.86909  0.02712  1.0000
  H   H108      1.0  0.09707  0.97060  0.41580  1.0000
  H   H109      1.0  0.13802  0.73955  0.34501  1.0000
  C   C72       1.0  0.10046  0.86603  0.02215  1.0000
  C   C73       1.0  0.25795  0.96896  0.02297  1.0000
  S   S35       1.0  0.03700  0.89267  0.12617  1.0000
  C   C74       1.0  0.27291  0.97606  0.33353  1.0000
  H   H110      1.0  0.27219  0.94827  0.32323  1.0000
  H   H111      1.0  0.12871  0.96932  0.43736  1.0000
  H   H112      1.0  0.11510  0.01777  0.46782  1.0000
  H   H113      1.0  0.08139  0.53860  0.72466  1.0000
  H   H114      1.0  0.26839  0.53737  0.52198  1.0000
  C   C75       1.0  0.25556  0.55597  0.83482  1.0000
  S   S36       1.0  0.06539  0.76375  0.60048  1.0000
  C   C76       1.0  0.11312  0.68032  0.56152  1.0000
  C   C77       1.0  0.10847  0.71846  0.55200  1.0000
  C   C78       1.0  0.09408  0.74401  0.56434  1.0000
  C   C79       1.0  0.08396  0.73139  0.58594  1.0000
  C   C80       1.0  0.08852  0.69319  0.59531  1.0000
  C   C81       1.0  0.10316  0.66784  0.58323  1.0000
  H   H115      1.0  0.04416  0.64688  0.57679  1.0000
  H   H116      1.0  0.09070  0.77363  0.55709  1.0000
  H   H117      1.0  0.08116  0.68342  0.61220  1.0000
  H   H118      1.0  0.10681  0.63843  0.59080  1.0000
  H   H119      1.0  0.18931  0.61555  0.92755  1.0000
  H   H120      1.0  0.24367  0.58724  0.59611  1.0000
  H   H121      1.0  0.20178  0.61132  0.89809  1.0000
  H   H122      1.0  0.23579  0.56531  0.56340  1.0000
  H   H123      1.0  0.20677  0.57256  0.92197  1.0000
  H   H124      1.0  0.21914  0.62636  0.97170  1.0000
  H   H125      1.0  0.22790  0.54025  0.59120  1.0000
  H   H126      1.0  0.20816  0.61164  0.61651  1.0000
  C   C82       1.0  0.05553  0.95806  0.91247  1.0000
  H   H127      1.0  0.19235  0.56479  0.61081  1.0000
  C   C83       1.0  0.25955  0.54014  0.86058  1.0000
  H   H128      1.0  0.15213  0.01884  0.96472  1.0000
  H   H129      1.0  0.06271  0.96943  0.89514  1.0000
  C   C84       1.0  0.20597  0.62796  0.56487  1.0000
  N   N7        1.0  0.20358  0.58901  0.57646  1.0000
  C   C85       1.0  0.18485  0.56507  0.55717  1.0000
  C   C86       1.0  0.19455  0.59358  0.60151  1.0000
  H   H130      1.0  0.11618  0.72842  0.53537  1.0000
  C   C87       1.0  0.22884  0.56958  0.58215  1.0000
  H   H131      1.0  0.16561  0.57903  0.55222  1.0000
  H   H132      1.0  0.18250  0.53546  0.56522  1.0000
  Fe  Fe17      1.0  0.03715  0.73989  0.62357  1.0000
  H   H133      1.0  0.23923  0.97613  0.01079  1.0000
  H   H134      1.0  0.27026  0.62219  0.93280  1.0000
  H   H135      1.0  0.11253  0.96012  0.95833  1.0000
  Fe  Fe18      1.0  0.14483  0.88225  0.98156  1.0000
  S   S37       1.0  0.14466  0.88161  0.93754  1.0000
  Fe  Fe19      1.0  0.20234  0.89738  0.99753  1.0000
  S   S38       1.0  0.20614  0.89947  0.95484  1.0000
  C   C88       1.0  0.04051  0.66772  0.52547  1.0000
  Fe  Fe20      1.0  0.16986  0.93464  0.94707  1.0000
  S   S39       1.0  0.16110  0.98296  0.91616  1.0000
  Fe  Fe21      1.0  0.18052  0.84629  0.94874  1.0000
  S   S40       1.0  0.19214  0.79965  0.92219  1.0000
  S   S41       1.0  0.16819  0.93753  0.99049  1.0000
  S   S42       1.0  0.17867  0.84183  0.99209  1.0000
  H   H136      1.0  0.24830  0.61325  0.90107  1.0000
  Fe  Fe22      1.0  0.14928  0.59317  0.86430  1.0000
  S   S43       1.0  0.18012  0.60550  0.84228  1.0000
  S   S44       1.0  0.13569  0.63672  0.89129  1.0000
  Fe  Fe23      1.0  0.19294  0.54449  0.85426  1.0000
  H   H137      1.0  0.08461  0.66926  0.69379  1.0000
  Fe  Fe24      1.0  0.15336  0.57720  0.80698  1.0000
  S   S45       1.0  0.14686  0.60344  0.76543  1.0000
  H   H138      1.0  0.07642  0.95959  0.98042  1.0000
  S   S46       1.0  0.12149  0.56965  0.82817  1.0000
  H   H139      1.0  0.10691  0.96316  0.92245  1.0000
  H   H140      1.0  0.08429  0.64532  0.80684  1.0000
  C   C89       1.0  0.09661  0.71475  0.78867  1.0000
  C   C90       1.0  0.06612  0.64204  0.72231  1.0000
  C   C91       1.0  0.06980  0.62000  0.74591  1.0000
  C   C92       1.0  0.09445  0.60807  0.75914  1.0000
  C   C93       1.0  0.11570  0.61812  0.74896  1.0000
  C   C94       1.0  0.11207  0.64017  0.72531  1.0000
  C   C95       1.0  0.08731  0.65223  0.71200  1.0000
  H   H141      1.0  0.05342  0.61201  0.75390  1.0000
  H   H142      1.0  0.09683  0.59070  0.77698  1.0000
  H   H143      1.0  0.12843  0.64806  0.71726  1.0000
  C   C96       1.0  0.23492  0.61494  0.96295  1.0000
  S   S47       1.0  0.02913  0.67603  0.62806  1.0000
  C   C97       1.0  0.08744  0.66973  0.82164  1.0000
  H   H144      1.0  0.04522  0.63886  0.51784  1.0000
  C   C98       1.0  0.07504  0.01201  0.94040  1.0000
  C   C99       1.0  0.17553  0.75518  0.91346  1.0000
  C   C100      1.0  0.15546  0.74330  0.92501  1.0000
  C   C101      1.0  0.14340  0.70684  0.91806  1.0000
  C   C102      1.0  0.15137  0.68209  0.89965  1.0000
  C   C103      1.0  0.17125  0.69422  0.88791  1.0000
  C   C104      1.0  0.18321  0.73065  0.89475  1.0000
  H   H145      1.0  0.14943  0.76204  0.93946  1.0000
  H   H146      1.0  0.12794  0.69773  0.92716  1.0000
  H   H147      1.0  0.17754  0.67564  0.87366  1.0000
  H   H148      1.0  0.19866  0.73986  0.88568  1.0000
  H   H149      1.0  0.21254  0.62561  0.54584  1.0000
  H   H150      1.0  0.04400  0.96585  0.96118  1.0000
  H   H151      1.0  0.06079  0.92090  0.95934  1.0000
  H   H152      1.0  0.14578  0.69993  0.81338  1.0000
  H   H153      1.0  0.11638  0.71889  0.85674  1.0000
  H   H154      1.0  0.17550  0.60834  0.59759  1.0000
  H   H155      1.0  0.18725  0.64349  0.56033  1.0000
  H   H156      1.0  0.05378  0.92570  0.91018  1.0000
  C   C105      1.0  0.20596  0.60496  0.91988  1.0000
  C   C106      1.0  0.25457  0.59662  0.51926  1.0000
  N   N8        1.0  0.23028  0.62366  0.93399  1.0000
  N   N9        1.0  0.07303  0.96900  0.93822  1.0000
  S   S48       1.0  0.03465  0.65566  0.70664  1.0000
  C   C107      1.0  0.25161  0.60824  0.92312  1.0000
  C   C108      1.0  0.22854  0.66642  0.92997  1.0000
  H   H157      1.0  0.24634  0.68170  0.94076  1.0000
  S   S49       1.0  0.13114  0.64704  0.54706  1.0000
  H   H158      1.0  0.24684  0.65823  0.51997  1.0000
  H   H159      1.0  0.12420  0.75217  0.83277  1.0000
  H   H160      1.0  0.09773  0.92000  0.93798  1.0000
  C   C109      1.0  0.10966  0.73040  0.83598  1.0000
  C   C110      1.0  0.26102  0.63563  0.52595  1.0000
  H   H161      1.0  0.06026  0.88041  0.01174  1.0000
  H   H162      1.0  0.06847  0.68336  0.82093  1.0000
  C   C111      1.0  0.13099  0.67912  0.81727  1.0000
  N   N10       1.0  0.10615  0.69854  0.81586  1.0000
  H   H163      1.0  0.13844  0.66605  0.83737  1.0000
  H   H164      1.0  0.09409  0.69149  0.77300  1.0000
  H   H165      1.0  0.09422  0.65666  0.84196  1.0000
  S   S50       1.0  0.10524  0.88061  0.99056  1.0000
  H   H166      1.0  0.09140  0.74619  0.83525  1.0000
  H   H167      1.0  0.07766  0.72913  0.78666  1.0000
  H   H168      1.0  0.11021  0.73675  0.78373  1.0000
  H   H169      1.0  0.22551  0.67400  0.90834  1.0000
  H   H170      1.0  0.22009  0.64681  0.57872  1.0000
  C   C112      1.0  0.06301  0.95330  0.96074  1.0000
  H   H171      1.0  0.12917  0.65516  0.80224  1.0000
  H   H172      1.0  0.25369  0.57607  0.92611  1.0000
  H   H173      1.0  0.08817  0.02121  0.95960  1.0000
  H   H174      1.0  0.03595  0.96997  0.91097  1.0000
  H   H175      1.0  0.27323  0.57417  0.80291  1.0000
  C   C113      1.0  0.09865  0.95245  0.93923  1.0000
  H   H176      1.0  0.19105  0.56106  0.53799  1.0000
  H   H177      1.0  0.21223  0.67896  0.93736  1.0000
  S   S51       1.0  0.03612  0.75578  0.66615  1.0000
  S   S52       1.0  0.16316  0.53327  0.87830  1.0000
  H   H178      1.0  0.04360  0.98902  0.73359  1.0000
  H   H179      1.0  0.03044  0.60724  0.55508  1.0000
  H   H180      1.0  0.06465  0.53274  0.75104  1.0000
  H   H181      1.0  0.23636  0.56348  0.82406  1.0000
  H   H182      1.0  0.23612  0.58286  0.96661  1.0000
  C   C114      1.0  0.27324  0.56762  0.52709  1.0000
  H   H183      1.0  0.05830  0.67911  0.53911  1.0000
  S   S53       1.0  0.23384  0.53260  0.87642  1.0000
  H   H184      1.0  0.25320  0.62843  0.97425  1.0000
  H   H185      1.0  0.03140  0.71441  0.56502  1.0000
  C   C115      1.0  0.02659  0.63688  0.56212  1.0000
  H   H186      1.0  0.37497  0.06343  0.20126  1.0000
  S   S54       1.0  0.38218  0.08188  0.32457  1.0000
  H   H187      1.0  0.49566  0.19651  0.06113  1.0000
  S   S55       1.0  0.39635  0.02829  0.37824  1.0000
  H   H188      1.0  0.43043  0.10340  0.14024  1.0000
  H   H189      1.0  0.43712  0.05790  0.20746  1.0000
  C   C116      1.0  0.36675  0.13591  0.39342  1.0000
  H   H190      1.0  0.45324  0.10418  0.21451  1.0000
  C   C117      1.0  0.51410  0.15353  0.48851  1.0000
  S   S56       1.0  0.45302  0.08779  0.09595  1.0000
  H   H191      1.0  0.47784  0.10558  0.15191  1.0000
  H   H192      1.0  0.43021  0.13017  0.17033  1.0000
  H   H193      1.0  0.45870  0.40177  0.48792  1.0000
  C   C118      1.0  0.43286  0.13524  0.05257  1.0000
  C   C119      1.0  0.45420  0.12576  0.07290  1.0000
  C   C120      1.0  0.47683  0.14797  0.07584  1.0000
  C   C121      1.0  0.47819  0.17944  0.05857  1.0000
  H   H194      1.0  0.49340  0.14091  0.09155  1.0000
  H   H195      1.0  0.39475  0.15510  0.35840  1.0000
  S   S57       1.0  0.52024  0.25821  0.47034  1.0000
  H   H196      1.0  0.48758  0.48854  0.46222  1.0000
  S   S58       1.0  0.51134  0.31441  0.02548  1.0000
  H   H197      1.0  0.38113  0.14133  0.41251  1.0000
  C   C122      1.0  0.46887  0.42033  0.47575  1.0000
  C   C123      1.0  0.45487  0.04015  0.16404  1.0000
  H   H198      1.0  0.41528  0.11849  0.05023  1.0000
  N   N11       1.0  0.45431  0.07935  0.17610  1.0000
  Fe  Fe25      1.0  0.42262  0.04033  0.08721  1.0000
  S   S59       1.0  0.45725  0.23045  0.01771  1.0000
  S   S60       1.0  0.32539  0.06261  0.35932  1.0000
  H   H199      1.0  0.34845  0.12686  0.39859  1.0000
  H   H200      1.0  0.40305  0.18810  0.38629  1.0000
  H   H201      1.0  0.49349  0.12126  0.44072  1.0000
  C   C124      1.0  0.43405  0.16728  0.03566  1.0000
  H   H202      1.0  0.47771  0.40041  0.46321  1.0000
  H   H203      1.0  0.47148  0.05992  0.21609  1.0000
  H   H204      1.0  0.45576  0.04220  0.14259  1.0000
  C   C125      1.0  0.35558  0.20420  0.39076  1.0000
  Fe  Fe26      1.0  0.48446  0.25475  0.48602  1.0000
  H   H205      1.0  0.52117  0.18004  0.44129  1.0000
  S   S61       1.0  0.45065  0.21424  0.47074  1.0000
  S   S62       1.0  0.48135  0.31983  0.48962  1.0000
  H   H206      1.0  0.35277  0.23106  0.37823  1.0000
  H   H207      1.0  0.37341  0.11050  0.38326  1.0000
  S   S63       1.0  0.44870  0.10963  0.36816  1.0000
  C   C126      1.0  0.45034  0.18533  0.44222  1.0000
  C   C127      1.0  0.43508  0.15140  0.43782  1.0000
  C   C128      1.0  0.43456  0.12766  0.41524  1.0000
  C   C129      1.0  0.44910  0.13809  0.39684  1.0000
  C   C130      1.0  0.46447  0.17189  0.40135  1.0000
  C   C131      1.0  0.46513  0.19545  0.42400  1.0000
  H   H208      1.0  0.42384  0.14328  0.45208  1.0000
  H   H209      1.0  0.42305  0.10125  0.41212  1.0000
  H   H210      1.0  0.47574  0.18006  0.38711  1.0000
  H   H211      1.0  0.47672  0.22179  0.42710  1.0000
  Fe  Fe27      1.0  0.51939  0.32279  0.47794  1.0000
  H   H212      1.0  0.34807  0.13757  0.34014  1.0000
  C   C132      1.0  0.45672  0.18946  0.03856  1.0000
  H   H213      1.0  0.33728  0.19795  0.39687  1.0000
  H   H214      1.0  0.32440  0.15495  0.35669  1.0000
  H   H215      1.0  0.33969  0.18834  0.33794  1.0000
  N   N12       1.0  0.48842  0.44558  0.49302  1.0000
  C   C133      1.0  0.34298  0.16276  0.35163  1.0000
  S   S64       1.0  0.38011  0.04557  0.25635  1.0000
  H   H216      1.0  0.45413  0.43784  0.46188  1.0000
  Fe  Fe28      1.0  0.41790  0.06392  0.35385  1.0000
  H   H217      1.0  0.37048  0.21098  0.40933  1.0000
  C   C134      1.0  0.38764  0.18030  0.36842  1.0000
  H   H218      1.0  0.38547  0.20544  0.35436  1.0000
  N   N13       1.0  0.36325  0.17080  0.37603  1.0000
  H   H219      1.0  0.51807  0.40209  0.49952  1.0000
  H   H220      1.0  0.46096  0.48991  0.49649  1.0000
  H   H221      1.0  0.41328  0.08445  0.16378  1.0000
  S   S65       1.0  0.38991  0.03713  0.10806  1.0000
  C   C135      1.0  0.43102  0.10024  0.16203  1.0000
  Fe  Fe29      1.0  0.36097  0.04163  0.34649  1.0000
  H   H222      1.0  0.49529  0.08669  0.18345  1.0000
  C   C136      1.0  0.47580  0.47127  0.50932  1.0000
  H   H223      1.0  0.47763  0.13150  0.18236  1.0000
  H   H224      1.0  0.50332  0.08313  0.46465  1.0000
  H   H225      1.0  0.41736  0.17500  0.02028  1.0000
  C   C137      1.0  0.45406  0.07522  0.20479  1.0000
  C   C138      1.0  0.47731  0.10177  0.17343  1.0000
  H   H226      1.0  0.49789  0.17110  0.47706  1.0000
  C   C139      1.0  0.38368  0.03486  0.20459  1.0000
  C   C140      1.0  0.51056  0.10608  0.45284  1.0000
  Fe  Fe30      1.0  0.38836  0.02938  0.30046  1.0000
  H   H227      1.0  0.51090  0.45081  0.46334  1.0000
  C   C141      1.0  0.50757  0.42104  0.51100  1.0000
  C   C142      1.0  0.50141  0.46957  0.47603  1.0000
  H   H228      1.0  0.52020  0.09121  0.43849  1.0000
  H   H229      1.0  0.38562  0.02721  0.16338  1.0000
  H   H230      1.0  0.50600  0.13225  0.50079  1.0000
  H   H231      1.0  0.51657  0.48852  0.48838  1.0000
  C   C143      1.0  0.29664  0.03469  0.35147  1.0000
  S   S66       1.0  0.52449  0.37293  0.45079  1.0000
  H   H232      1.0  0.40328  0.45754  0.92184  1.0000
  S   S67       1.0  0.49756  0.34901  0.56603  1.0000
  C   C144      1.0  0.43941  0.43596  0.64818  1.0000
  S   S68       1.0  0.40144  0.46205  0.54574  1.0000
  C   C145      1.0  0.42754  0.37363  0.62651  1.0000
  C   C146      1.0  0.40586  0.39727  0.66004  1.0000
  C   C147      1.0  0.47065  0.37998  0.56031  1.0000
  C   C148      1.0  0.44925  0.37282  0.53938  1.0000
  C   C149      1.0  0.42813  0.39816  0.53518  1.0000
  C   C150      1.0  0.42834  0.43102  0.55169  1.0000
  C   C151      1.0  0.44992  0.43848  0.57239  1.0000
  C   C152      1.0  0.47088  0.41282  0.57684  1.0000
  Fe  Fe31      1.0  0.39952  0.51375  0.57294  1.0000
  H   H233      1.0  0.42406  0.42375  0.94273  1.0000
  H   H234      1.0  0.45058  0.46413  0.58482  1.0000
  H   H235      1.0  0.48750  0.41870  0.59292  1.0000
  S   S69       1.0  0.50504  0.24687  0.52914  1.0000
  N   N14       1.0  0.41785  0.40871  0.63785  1.0000
  C   C153      1.0  0.39855  0.42812  0.61667  1.0000
  H   H236      1.0  0.39855  0.42334  0.66905  1.0000
  H   H237      1.0  0.45417  0.42249  0.66448  1.0000
  H   H238      1.0  0.38230  0.40819  0.60784  1.0000
  H   H239      1.0  0.40706  0.43825  0.60000  1.0000
  H   H240      1.0  0.38929  0.37711  0.65296  1.0000
  H   H241      1.0  0.44244  0.35847  0.64179  1.0000
  H   H242      1.0  0.43270  0.46304  0.65654  1.0000
  C   C154      1.0  0.44042  0.47110  0.98464  1.0000
  C   C155      1.0  0.41223  0.45027  0.94311  1.0000
  H   H243      1.0  0.44909  0.44496  0.63206  1.0000
  H   H244      1.0  0.39035  0.45415  0.62463  1.0000
  H   H245      1.0  0.39607  0.51048  0.96880  1.0000
  H   H246      1.0  0.41181  0.35229  0.61869  1.0000
  H   H247      1.0  0.41982  0.38244  0.67641  1.0000
  H   H248      1.0  0.43635  0.38135  0.60946  1.0000
  H   H249      1.0  0.49930  0.30193  0.91926  1.0000
  C   C156      1.0  0.40659  0.51750  0.74779  1.0000
  H   H250      1.0  0.44874  0.34732  0.52674  1.0000
  Fe  Fe32      1.0  0.51860  0.31874  0.98400  1.0000
  S   S70       1.0  0.51543  0.37322  0.95835  1.0000
  S   S71       1.0  0.49949  0.26161  0.97052  1.0000
  H   H251      1.0  0.46172  0.46948  0.94296  1.0000
  C   C157      1.0  0.44785  0.49362  0.94243  1.0000
  S   S72       1.0  0.38991  0.50889  0.66657  1.0000
  H   H252      1.0  0.38458  0.47953  0.71724  1.0000
  Fe  Fe33      1.0  0.40941  0.48117  0.85870  1.0000
  S   S73       1.0  0.41413  0.41843  0.87290  1.0000
  H   H253      1.0  0.50615  0.23089  0.91694  1.0000
  N   N15       1.0  0.42794  0.48308  0.95704  1.0000
  H   H254      1.0  0.49639  0.23196  0.88100  1.0000
  C   C158      1.0  0.41138  0.51723  0.95799  1.0000
  C   C159      1.0  0.48730  0.38417  0.93410  1.0000
  C   C160      1.0  0.46510  0.36117  0.93082  1.0000
  C   C161      1.0  0.44301  0.37113  0.91128  1.0000
  C   C162      1.0  0.44281  0.40462  0.89541  1.0000
  C   C163      1.0  0.46517  0.42710  0.89838  1.0000
  C   C164      1.0  0.48736  0.41678  0.91757  1.0000
  H   H255      1.0  0.46488  0.33588  0.94343  1.0000
  H   H256      1.0  0.42580  0.35344  0.90895  1.0000
  H   H257      1.0  0.46540  0.45245  0.88593  1.0000
  H   H258      1.0  0.50458  0.43442  0.91981  1.0000
  H   H259      1.0  0.43926  0.50024  0.92097  1.0000
  H   H260      1.0  0.45306  0.44531  0.98453  1.0000
  H   H261      1.0  0.48911  0.30399  0.88342  1.0000
  H   H262      1.0  0.39651  0.44217  0.95304  1.0000
  C   C165      1.0  0.39682  0.50517  0.72115  1.0000
  Fe  Fe34      1.0  0.50479  0.31257  0.53145  1.0000
  H   H263      1.0  0.40192  0.50133  0.76417  1.0000
  C   C166      1.0  0.51311  0.23575  0.89827  1.0000
  H   H264      1.0  0.42597  0.46279  0.99624  1.0000
  H   H265      1.0  0.49835  0.40134  0.52324  1.0000
  S   S74       1.0  0.44197  0.52345  0.86040  1.0000
  S   S75       1.0  0.38767  0.49997  0.81767  1.0000
  H   H266      1.0  0.48989  0.49073  0.52270  1.0000
  S   S76       1.0  0.38695  0.52029  0.88001  1.0000
  H   H267      1.0  0.45254  0.49509  0.99568  1.0000
  C   C167      1.0  0.50623  0.30526  0.90047  1.0000
  H   H268      1.0  0.46599  0.45382  0.52238  1.0000
  H   H269      1.0  0.45892  0.52003  0.95119  1.0000
  S   S77       1.0  0.36574  0.52295  0.59159  1.0000
  H   H270      1.0  0.51758  0.27797  0.85531  1.0000
  H   H271      1.0  0.28781  0.51820  0.89423  1.0000
  H   H272      1.0  0.52211  0.43894  0.52507  1.0000
  H   H273      1.0  0.51472  0.33514  0.90104  1.0000
  Fe  Fe35      1.0  0.49560  0.25415  0.01298  1.0000
  H   H274      1.0  0.41149  0.39215  0.51915  1.0000
  N   N16       1.0  0.52513  0.27479  0.89831  1.0000
  S   S78       1.0  0.42583  0.01366  0.32854  1.0000
  S   S79       1.0  0.36439  0.99020  0.32040  1.0000
  S   S80       1.0  0.43796  0.98086  0.10071  1.0000
  S   S81       1.0  0.40688  0.94973  0.16017  1.0000
  S   S82       1.0  0.37903  0.94800  0.08256  1.0000
  Fe  Fe36      1.0  0.40377  0.97639  0.11913  1.0000
  H   H275      1.0  0.35068  0.89578  0.36611  1.0000
  C   C168      1.0  0.48284  0.86194  0.07280  1.0000
  Fe  Fe37      1.0  0.41183  0.95882  0.06287  1.0000
  S   S83       1.0  0.41963  0.91792  0.03104  1.0000
  C   C169      1.0  0.51616  0.92085  0.02245  1.0000
  C   C170      1.0  0.30210  0.98814  0.04365  1.0000
  C   C171      1.0  0.30635  0.95095  0.05491  1.0000
  C   C172      1.0  0.32606  0.89555  0.40662  1.0000
  H   H276      1.0  0.49373  0.86036  0.09336  1.0000
  H   H277      1.0  0.30592  0.89364  0.39453  1.0000
  H   H278      1.0  0.33069  0.98656  0.10542  1.0000
  S   S84       1.0  0.51789  0.81044  0.06175  1.0000
  C   C173      1.0  0.29537  0.99906  0.33780  1.0000
  C   C174      1.0  0.49038  0.83973  0.05289  1.0000
  C   C175      1.0  0.46128  0.88626  0.06625  1.0000
  C   C176      1.0  0.44699  0.88817  0.03977  1.0000
  H   H279      1.0  0.43831  0.66798  0.50639  1.0000
  C   C177      1.0  0.29471  0.95719  0.12797  1.0000
  H   H280      1.0  0.32081  0.92185  0.35622  1.0000
  H   H281      1.0  0.41399  0.93213  0.21625  1.0000
  C   C178      1.0  0.38867  0.01862  0.23040  1.0000
  C   C179      1.0  0.40565  0.96095  0.21296  1.0000
  H   H282      1.0  0.32281  0.98645  0.17512  1.0000
  H   H283      1.0  0.35095  0.94750  0.36216  1.0000
  H   H284      1.0  0.33049  0.01563  0.13448  1.0000
  H   H285      1.0  0.32777  0.91274  0.10889  1.0000
  S   S85       1.0  0.52045  0.87113  0.43316  1.0000
  C   C180      1.0  0.40062  0.97725  0.18715  1.0000
  Fe  Fe38      1.0  0.50446  0.77253  0.50332  1.0000
  H   H286      1.0  0.32497  0.94347  0.06682  1.0000
  H   H287      1.0  0.40370  0.96890  0.25445  1.0000
  H   H288      1.0  0.45554  0.90311  0.08176  1.0000
  H   H289      1.0  0.33645  0.99100  0.39374  1.0000
  N   N17       1.0  0.32273  0.95442  0.13877  1.0000
  C   C181      1.0  0.39982  0.98166  0.23461  1.0000
  C   C182      1.0  0.38974  0.01439  0.18309  1.0000
  H   H290      1.0  0.34945  0.95422  0.17717  1.0000
  H   H291      1.0  0.51685  0.69012  0.51099  1.0000
  C   C183      1.0  0.33576  0.98650  0.12774  1.0000
  C   C184      1.0  0.32855  0.95757  0.16838  1.0000
  H   H292      1.0  0.33550  0.86721  0.40438  1.0000
  H   H293      1.0  0.32667  0.97128  0.42237  1.0000
  H   H294      1.0  0.32524  0.89873  0.42805  1.0000
  H   H295      1.0  0.31845  0.93451  0.17740  1.0000
  H   H296      1.0  0.32287  0.89153  0.13935  1.0000
  C   C185      1.0  0.33202  0.91643  0.13105  1.0000
  S   S86       1.0  0.50384  0.83827  0.50246  1.0000
  H   H297      1.0  0.50820  0.91722  0.04060  1.0000
  H   H298      1.0  0.35694  0.98373  0.13411  1.0000
  H   H299      1.0  0.36453  0.91413  0.01789  1.0000
  S   S87       1.0  0.39891  0.01861  0.04792  1.0000
  H   H300      1.0  0.37729  0.90289  0.41184  1.0000
  H   H301      1.0  0.30654  0.96511  0.38941  1.0000
  C   C186      1.0  0.47617  0.84173  0.02637  1.0000
  Fe  Fe39      1.0  0.40146  0.97904  0.35090  1.0000
  N   N18       1.0  0.34002  0.92858  0.39781  1.0000
  S   S88       1.0  0.40805  0.91987  0.37093  1.0000
  H   H302      1.0  0.36718  0.93402  0.43586  1.0000
  C   C187      1.0  0.32687  0.96557  0.40102  1.0000
  S   S89       1.0  0.46998  0.73373  0.50228  1.0000
  H   H303      1.0  0.35322  0.91372  0.13859  1.0000
  C   C188      1.0  0.34051  0.92310  0.36930  1.0000
  C   C189      1.0  0.43935  0.90786  0.38900  1.0000
  C   C190      1.0  0.46090  0.92871  0.38547  1.0000
  C   C191      1.0  0.48566  0.91731  0.39919  1.0000
  C   C192      1.0  0.48903  0.88561  0.41701  1.0000
  C   C193      1.0  0.46744  0.86534  0.42104  1.0000
  C   C194      1.0  0.44272  0.87618  0.40685  1.0000
  H   H304      1.0  0.45854  0.95306  0.37171  1.0000
  H   H305      1.0  0.50224  0.93309  0.39593  1.0000
  H   H306      1.0  0.46981  0.84077  0.43462  1.0000
  H   H307      1.0  0.42619  0.85979  0.40962  1.0000
  C   C195      1.0  0.36663  0.93010  0.41417  1.0000
  H   H308      1.0  0.37767  0.95469  0.40789  1.0000
  H   H309      1.0  0.31173  0.98902  0.33070  1.0000
  H   H310      1.0  0.34960  0.95699  0.02735  1.0000
  Fe  Fe40      1.0  0.36753  0.00908  0.06990  1.0000
  C   C196      1.0  0.27789  0.99698  0.02750  1.0000
  H   H311      1.0  0.28962  0.89484  0.06021  1.0000
  H   H312      1.0  0.28967  0.95513  0.10564  1.0000
  C   C197      1.0  0.28634  0.92333  0.05097  1.0000
  H   H313      1.0  0.52168  0.65456  0.48689  1.0000
  H   H314      1.0  0.28714  0.98552  0.13349  1.0000
  H   H315      1.0  0.28419  0.93327  0.13567  1.0000
  C   C198      1.0  0.45448  0.86586  0.01985  1.0000
  S   S90       1.0  0.52242  0.76654  0.46788  1.0000
  H   H316      1.0  0.43749  0.02272  0.16489  1.0000
  Fe  Fe41      1.0  0.52498  0.83213  0.46954  1.0000
  S   S91       1.0  0.32660  0.02412  0.04947  1.0000
  H   H317      1.0  0.33078  0.91365  0.01703  1.0000
  H   H318      1.0  0.47185  0.02315  0.17452  1.0000
  Fe  Fe42      1.0  0.36764  0.58588  0.57989  1.0000
  S   S92       1.0  0.39512  0.60291  0.61854  1.0000
  S   S93       1.0  0.33608  0.63020  0.56530  1.0000
  Fe  Fe43      1.0  0.42594  0.58833  0.59675  1.0000
  S   S94       1.0  0.46105  0.62711  0.60068  1.0000
  H   H319      1.0  0.43092  0.72163  0.56786  1.0000
  S   S95       1.0  0.39859  0.57520  0.55754  1.0000
  C   C199      1.0  0.34245  0.63459  0.78092  1.0000
  C   C200      1.0  0.46488  0.65467  0.57281  1.0000
  C   C201      1.0  0.48348  0.68451  0.57633  1.0000
  C   C202      1.0  0.48560  0.70872  0.55474  1.0000
  H   H320      1.0  0.31226  0.97960  0.95861  1.0000
  H   H321      1.0  0.38039  0.66371  0.75997  1.0000
  C   C203      1.0  0.44896  0.64844  0.54741  1.0000
  H   H322      1.0  0.49582  0.68958  0.59598  1.0000
  H   H323      1.0  0.49945  0.73240  0.55781  1.0000
  H   H324      1.0  0.43494  0.62519  0.54429  1.0000
  C   C204      1.0  0.30478  0.61644  0.54779  1.0000
  C   C205      1.0  0.29824  0.57743  0.54131  1.0000
  H   H325      1.0  0.31249  0.55485  0.54703  1.0000
  C   C206      1.0  0.46909  0.70307  0.52956  1.0000
  H   H326      1.0  0.50528  0.94471  0.01024  1.0000
  S   S96       1.0  0.32715  0.56036  0.82064  1.0000
  H   H327      1.0  0.39282  0.62547  0.78317  1.0000
  H   H328      1.0  0.51078  0.63692  0.54155  1.0000
  C   C207      1.0  0.42856  0.57097  0.73159  1.0000
  C   C208      1.0  0.30151  0.55217  0.83652  1.0000
  H   H329      1.0  0.36573  0.68346  0.53512  1.0000
  H   H330      1.0  0.29098  0.67572  0.54504  1.0000
  H   H331      1.0  0.30083  0.95192  0.98345  1.0000
  C   C209      1.0  0.36283  0.97053  0.98104  1.0000
  H   H332      1.0  0.32183  0.89280  0.96933  1.0000
  H   H333      1.0  0.36792  0.56596  0.78460  1.0000
  H   H334      1.0  0.32268  0.62321  0.77983  1.0000
  C   C210      1.0  0.35528  0.57323  0.76485  1.0000
  H   H335      1.0  0.39801  0.75872  0.53630  1.0000
  C   C211      1.0  0.27649  0.56201  0.82287  1.0000
  H   H336      1.0  0.35371  0.62845  0.80162  1.0000
  H   H337      1.0  0.38128  0.95420  0.98578  1.0000
  C   C212      1.0  0.45097  0.67267  0.52592  1.0000
  H   H338      1.0  0.34134  0.66685  0.77847  1.0000
  C   C213      1.0  0.33844  0.62415  0.73343  1.0000
  N   N19       1.0  0.34122  0.94593  0.98508  1.0000
  Fe  Fe44      1.0  0.41864  0.56371  0.87988  1.0000
  S   S97       1.0  0.43529  0.59130  0.92047  1.0000
  S   S98       1.0  0.43407  0.56813  0.78623  1.0000
  S   S99       1.0  0.39801  0.59048  0.84102  1.0000
  N   N20       1.0  0.35413  0.61592  0.76054  1.0000
  H   H339      1.0  0.34688  0.61045  0.71765  1.0000
  S   S100      1.0  0.51088  0.73743  0.93160  1.0000
  H   H340      1.0  0.33383  0.92133  0.94535  1.0000
  C   C214      1.0  0.30552  0.53644  0.86233  1.0000
  C   C215      1.0  0.31740  0.96920  0.97972  1.0000
  Fe  Fe45      1.0  0.41831  0.54593  0.82109  1.0000
  H   H341      1.0  0.38984  0.61790  0.74802  1.0000
  C   C216      1.0  0.45595  0.63224  0.92301  1.0000
  C   C217      1.0  0.46313  0.64775  0.90053  1.0000
  C   C218      1.0  0.47972  0.68036  0.90337  1.0000
  C   C219      1.0  0.48928  0.69754  0.92866  1.0000
  C   C220      1.0  0.48208  0.68196  0.95110  1.0000
  C   C221      1.0  0.46553  0.64939  0.94828  1.0000
  H   H342      1.0  0.45581  0.63477  0.88095  1.0000
  H   H343      1.0  0.48511  0.69235  0.88588  1.0000
  H   H344      1.0  0.48897  0.69526  0.97058  1.0000
  H   H345      1.0  0.45988  0.63774  0.96571  1.0000
  H   H346      1.0  0.37637  0.68693  0.59579  1.0000
  H   H347      1.0  0.33601  0.56057  0.76463  1.0000
  Fe  Fe46      1.0  0.36825  0.54335  0.83941  1.0000
  H   H348      1.0  0.48173  0.82443  0.01093  1.0000
  H   H349      1.0  0.42119  0.74266  0.59607  1.0000
  H   H350      1.0  0.35567  0.89382  0.97043  1.0000
  H   H351      1.0  0.42352  0.57466  0.68847  1.0000
  C   C222      1.0  0.38513  0.75525  0.55048  1.0000
  C   C223      1.0  0.38038  0.63155  0.76298  1.0000
  H   H352      1.0  0.35966  0.98101  0.96000  1.0000
  C   C224      1.0  0.42239  0.55060  0.75312  1.0000
  H   H353      1.0  0.42269  0.54271  0.96806  1.0000
  C   C225      1.0  0.37296  0.71470  0.58422  1.0000
  H   H354      1.0  0.51199  0.89334  0.01057  1.0000
  H   H355      1.0  0.44092  0.59647  0.73556  1.0000
  H   H356      1.0  0.31859  0.61235  0.73095  1.0000
  H   H357      1.0  0.35246  0.71411  0.57313  1.0000
  C   C226      1.0  0.41728  0.71835  0.58121  1.0000
  C   C227      1.0  0.41869  0.55872  0.70490  1.0000
  H   H358      1.0  0.36497  0.75605  0.53845  1.0000
  H   H359      1.0  0.38820  0.78106  0.56413  1.0000
  H   H360      1.0  0.42204  0.69052  0.59248  1.0000
  H   H361      1.0  0.36547  0.99677  0.99434  1.0000
  C   C228      1.0  0.33798  0.91196  0.96670  1.0000
  H   H362      1.0  0.33704  0.65611  0.72948  1.0000
  H   H363      1.0  0.39858  0.68691  0.53217  1.0000
  H   H364      1.0  0.37559  0.73925  0.59888  1.0000
  N   N21       1.0  0.39035  0.71838  0.56567  1.0000
  H   H365      1.0  0.44342  0.86710  0.99935  1.0000
  C   C229      1.0  0.38604  0.68506  0.54673  1.0000
  C   C230      1.0  0.28606  0.64546  0.54013  1.0000
  C   C231      1.0  0.28460  0.53056  0.87433  1.0000
  H   H366      1.0  0.40187  0.52712  0.93747  1.0000
  H   H367      1.0  0.39011  0.65693  0.55759  1.0000
  H   H368      1.0  0.36298  0.55797  0.74920  1.0000
  H   H369      1.0  0.31947  0.99548  0.99298  1.0000
  Fe  Fe47      1.0  0.39553  0.53915  0.62885  1.0000
  C   C232      1.0  0.40276  0.52574  0.69961  1.0000
  C   C233      1.0  0.34675  0.93199  0.01307  1.0000
  H   H370      1.0  0.32470  0.52872  0.87299  1.0000
  H   H371      1.0  0.51612  0.60120  0.51777  1.0000
  C   C234      1.0  0.52595  0.62008  0.53480  1.0000
  S   S101      1.0  0.42908  0.52594  0.61077  1.0000
  Fe  Fe48      1.0  0.70167  0.49624  0.15851  1.0000
  S   S102      1.0  0.61736  0.47329  0.09037  1.0000
  H   H372      1.0  0.68884  0.45412  0.49619  1.0000
  S   S103      1.0  0.66851  0.45743  0.16259  1.0000
  H   H373      1.0  0.56373  0.13294  0.49998  1.0000
  H   H374      1.0  0.62214  0.48728  0.27219  1.0000
  S   S104      1.0  0.57919  0.29751  0.07414  1.0000
  C   C235      1.0  0.68332  0.42721  0.09707  1.0000
  C   C236      1.0  0.68063  0.43008  0.48205  1.0000
  Fe  Fe49      1.0  0.54957  0.28431  0.03589  1.0000
  H   H375      1.0  0.69696  0.44658  0.11107  1.0000
  H   H376      1.0  0.66023  0.42547  0.48302  1.0000
  H   H377      1.0  0.65202  0.36538  0.08363  1.0000
  H   H378      1.0  0.56341  0.50519  0.08550  1.0000
  C   C237      1.0  0.60634  0.42461  0.08663  1.0000
  C   C238      1.0  0.61321  0.39764  0.10747  1.0000
  C   C239      1.0  0.60475  0.35863  0.10350  1.0000
  C   C240      1.0  0.58912  0.34664  0.07884  1.0000
  C   C241      1.0  0.58200  0.37381  0.05817  1.0000
  C   C242      1.0  0.59067  0.41267  0.06204  1.0000
  H   H379      1.0  0.62483  0.40683  0.12666  1.0000
  H   H380      1.0  0.61004  0.33772  0.11961  1.0000
  H   H381      1.0  0.56994  0.36476  0.03913  1.0000
  H   H382      1.0  0.58528  0.43340  0.04585  1.0000
  S   S105      1.0  0.73819  0.46317  0.15770  1.0000
  H   H383      1.0  0.54390  0.09025  0.49954  1.0000
  H   H384      1.0  0.73145  0.42522  0.49979  1.0000
  C   C243      1.0  0.53735  0.16332  0.45376  1.0000
  H   H385      1.0  0.68338  0.43651  0.07628  1.0000
  C   C244      1.0  0.68882  0.37451  0.12907  1.0000
  Fe  Fe50      1.0  0.68943  0.51901  0.44257  1.0000
  H   H386      1.0  0.56118  0.09743  0.47360  1.0000
  C   C245      1.0  0.72234  0.40152  0.48577  1.0000
  H   H387      1.0  0.76346  0.49735  0.40247  1.0000
  S   S106      1.0  0.64943  0.51149  0.44902  1.0000
  C   C246      1.0  0.75510  0.47237  0.45367  1.0000
  H   H388      1.0  0.67653  0.32953  0.08494  1.0000
  C   C247      1.0  0.76633  0.48848  0.15481  1.0000
  H   H389      1.0  0.73100  0.51461  0.39678  1.0000
  H   H390      1.0  0.77204  0.14105  0.02348  1.0000
  C   C248      1.0  0.71675  0.37997  0.09830  1.0000
  C   C249      1.0  0.75290  0.49378  0.47633  1.0000
  Fe  Fe51      1.0  0.67119  0.52146  0.38147  1.0000
  H   H391      1.0  0.55061  0.18478  0.46642  1.0000
  C   C250      1.0  0.55018  0.11256  0.48660  1.0000
  S   S107      1.0  0.53328  0.22354  0.02639  1.0000
  H   H392      1.0  0.74750  0.51576  0.37016  1.0000
  H   H393      1.0  0.73072  0.39817  0.11299  1.0000
  H   H394      1.0  0.66372  0.35729  0.46894  1.0000
  C   C251      1.0  0.65213  0.50685  0.30544  1.0000
  H   H395      1.0  0.72273  0.34894  0.10153  1.0000
  S   S108      1.0  0.64108  0.49593  0.22457  1.0000
  H   H396      1.0  0.68040  0.44058  0.46150  1.0000
  H   H397      1.0  0.68378  0.37249  0.44731  1.0000
  H   H398      1.0  0.72911  0.16384  0.02815  1.0000
  H   H399      1.0  0.73448  0.37503  0.49040  1.0000
  H   H400      1.0  0.69475  0.33531  0.47200  1.0000
  H   H401      1.0  0.66905  0.37823  0.13220  1.0000
  Fe  Fe52      1.0  0.64467  0.46787  0.41551  1.0000
  S   S109      1.0  0.62988  0.51136  0.38272  1.0000
  S   S110      1.0  0.63270  0.40643  0.42377  1.0000
  C   C252      1.0  0.65586  0.50480  0.25870  1.0000
  H   H402      1.0  0.54797  0.14956  0.43985  1.0000
  S   S111      1.0  0.68528  0.47329  0.41074  1.0000
  C   C253      1.0  0.75006  0.52014  0.39219  1.0000
  H   H403      1.0  0.70199  0.39283  0.14439  1.0000
  C   C254      1.0  0.64155  0.49860  0.27818  1.0000
  N   N22       1.0  0.69566  0.39381  0.48787  1.0000
  H   H404      1.0  0.69416  0.34342  0.13330  1.0000
  H   H405      1.0  0.73873  0.46905  0.43705  1.0000
  C   C255      1.0  0.55515  0.38265  0.44481  1.0000
  C   C256      1.0  0.57469  0.35488  0.45041  1.0000
  C   C257      1.0  0.59845  0.36262  0.44399  1.0000
  C   C258      1.0  0.60302  0.39847  0.43255  1.0000
  C   C259      1.0  0.58375  0.42671  0.42772  1.0000
  C   C260      1.0  0.55979  0.41862  0.43355  1.0000
  H   H406      1.0  0.57127  0.32704  0.45898  1.0000
  H   H407      1.0  0.61320  0.34054  0.44763  1.0000
  H   H408      1.0  0.58705  0.45433  0.41877  1.0000
  H   H409      1.0  0.54473  0.44015  0.42901  1.0000
  H   H410      1.0  0.71862  0.38851  0.07786  1.0000
  C   C261      1.0  0.67222  0.36119  0.08191  1.0000
  N   N23       1.0  0.69027  0.38566  0.10156  1.0000
  H   H411      1.0  0.66383  0.43283  0.10028  1.0000
  C   C262      1.0  0.68406  0.36327  0.46826  1.0000
  N   N24       1.0  0.52804  0.13384  0.47042  1.0000
  H   H412      1.0  0.67288  0.36860  0.06092  1.0000
  H   H413      1.0  0.77283  0.51340  0.51568  1.0000
  Fe  Fe53      1.0  0.64584  0.49178  0.12810  1.0000
  H   H414      1.0  0.64093  0.50181  0.32025  1.0000
  S   S112      1.0  0.72402  0.51779  0.47789  1.0000
  H   H415      1.0  0.52683  0.17393  0.50256  1.0000
  H   H416      1.0  0.72300  0.41111  0.46517  1.0000
  Fe  Fe54      1.0  0.54084  0.25417  0.51385  1.0000
  Fe  Fe55      1.0  0.65957  0.50518  0.18932  1.0000
  C   C263      1.0  0.77433  0.49700  0.49800  1.0000
  C   C264      1.0  0.68091  0.51946  0.26666  1.0000
  C   C265      1.0  0.67714  0.52154  0.31341  1.0000
  C   C266      1.0  0.69550  0.38058  0.51529  1.0000
  H   H417      1.0  0.69219  0.52410  0.25189  1.0000
  C   C267      1.0  0.76647  0.08890  0.65945  1.0000
  H   H418      1.0  0.71895  0.07535  0.74810  1.0000
  H   H419      1.0  0.74797  0.03666  0.64071  1.0000
  H   H420      1.0  0.60959  0.06607  0.59909  1.0000
  Fe  Fe56      1.0  0.64203  0.08758  0.64563  1.0000
  S   S113      1.0  0.60731  0.12721  0.63516  1.0000
  Fe  Fe57      1.0  0.70038  0.07702  0.65767  1.0000
  S   S114      1.0  0.54284  0.31935  0.52013  1.0000
  C   C268      1.0  0.58385  0.19016  0.55422  1.0000
  C   C269      1.0  0.56998  0.19550  0.57401  1.0000
  C   C270      1.0  0.57775  0.17673  0.59895  1.0000
  C   C271      1.0  0.59950  0.15269  0.60437  1.0000
  C   C272      1.0  0.61340  0.14747  0.58457  1.0000
  C   C273      1.0  0.60551  0.16597  0.55956  1.0000
  H   H421      1.0  0.55332  0.21417  0.57017  1.0000
  H   H422      1.0  0.56687  0.18088  0.61414  1.0000
  H   H423      1.0  0.63027  0.12932  0.58851  1.0000
  H   H424      1.0  0.61644  0.16192  0.54441  1.0000
  H   H425      1.0  0.70503  0.17586  0.99878  1.0000
  H   H426      1.0  0.54314  0.30929  0.87270  1.0000
  H   H427      1.0  0.71382  0.16828  0.95379  1.0000
  H   H428      1.0  0.54820  0.25752  0.87106  1.0000
  H   H429      1.0  0.56256  0.08371  0.55633  1.0000
  S   S115      1.0  0.66952  0.07536  0.61948  1.0000
  N   N25       1.0  0.57457  0.03495  0.58260  1.0000
  H   H430      1.0  0.52706  0.21198  0.89747  1.0000
  S   S116      1.0  0.68148  0.03556  0.95162  1.0000
  H   H431      1.0  0.73287  0.20664  0.00892  1.0000
  S   S117      1.0  0.73862  0.10916  0.66698  1.0000
  H   H432      1.0  0.60494  0.05419  0.56419  1.0000
  H   H433      1.0  0.73437  0.09740  0.00971  1.0000
  C   C274      1.0  0.54735  0.27802  0.92143  1.0000
  C   C275      1.0  0.55930  0.07074  0.57518  1.0000
  N   N26       1.0  0.73964  0.15214  0.99083  1.0000
  H   H434      1.0  0.77561  0.18301  0.00338  1.0000
  H   H435      1.0  0.57866  0.04432  0.62494  1.0000
  S   S118      1.0  0.70360  0.09943  0.91403  1.0000
  S   S119      1.0  0.54754  0.19034  0.95594  1.0000
  Fe  Fe58      1.0  0.66980  0.09389  0.93287  1.0000
  S   S120      1.0  0.66265  0.14545  0.95792  1.0000
  Fe  Fe59      1.0  0.67902  0.06876  0.87832  1.0000
  S   S121      1.0  0.67380  0.09485  0.83670  1.0000
  H   H436      1.0  0.56458  0.09351  0.59109  1.0000
  H   H437      1.0  0.53841  0.06482  0.57256  1.0000
  H   H438      1.0  0.62318  0.04532  0.80099  1.0000
  H   H439      1.0  0.77484  0.07245  0.71661  1.0000
  H   H440      1.0  0.66016  0.08104  0.73927  1.0000
  C   C276      1.0  0.63058  0.15745  0.95747  1.0000
  C   C277      1.0  0.61016  0.13720  0.94099  1.0000
  C   C278      1.0  0.58477  0.14756  0.94078  1.0000
  C   C279      1.0  0.57965  0.17792  0.95722  1.0000
  C   C280      1.0  0.60004  0.19817  0.97377  1.0000
  C   C281      1.0  0.62547  0.18800  0.97382  1.0000
  H   H441      1.0  0.61390  0.11352  0.92845  1.0000
  H   H442      1.0  0.56904  0.13175  0.92801  1.0000
  H   H443      1.0  0.59622  0.22157  0.98654  1.0000
  C   C282      1.0  0.76881  0.05982  0.76671  1.0000
  H   H444      1.0  0.74457  0.15138  0.95030  1.0000
  H   H445      1.0  0.74163  0.19925  0.96355  1.0000
  H   H446      1.0  0.76057  0.09182  0.92253  1.0000
  H   H447      1.0  0.70666  0.35320  0.52038  1.0000
  C   C283      1.0  0.67575  0.06897  0.80736  1.0000
  S   S122      1.0  0.64422  0.06829  0.89592  1.0000
  C   C284      1.0  0.66702  0.06684  0.75841  1.0000
  C   C285      1.0  0.66733  0.08719  0.78238  1.0000
  C   C286      1.0  0.72614  0.17573  0.00748  1.0000
  H   H448      1.0  0.66065  0.11706  0.78154  1.0000
  H   H449      1.0  0.56208  0.25542  0.92066  1.0000
  H   H450      1.0  0.55666  0.30734  0.92262  1.0000
  Fe  Fe60      1.0  0.66889  0.03085  0.68932  1.0000
  C   C287      1.0  0.73471  0.16853  0.96344  1.0000
  H   H451      1.0  0.70405  0.40309  0.53052  1.0000
  N   N27       1.0  0.75220  0.04533  0.74138  1.0000
  H   H452      1.0  0.75799  0.06173  0.78288  1.0000
  C   C288      1.0  0.76754  0.15287  0.00272  1.0000
  H   H453      1.0  0.73904  0.09315  0.97629  1.0000
  H   H454      1.0  0.71740  0.06148  0.71407  1.0000
  C   C289      1.0  0.76591  0.05256  0.64676  1.0000
  S   S123      1.0  0.67314  0.09510  0.68312  1.0000
  H   H455      1.0  0.64120  0.20372  0.98664  1.0000
  S   S124      1.0  0.55818  0.29312  0.99544  1.0000
  C   C290      1.0  0.73051  0.07234  0.73268  1.0000
  H   H456      1.0  0.75493  0.03296  0.70091  1.0000
  Fe  Fe61      1.0  0.71385  0.03950  0.93030  1.0000
  C   C291      1.0  0.68451  0.03047  0.80826  1.0000
  Fe  Fe62      1.0  0.53848  0.23528  0.98482  1.0000
  C   C292      1.0  0.73014  0.11137  0.98961  1.0000
  C   C293      1.0  0.60190  0.04348  0.58373  1.0000
  C   C294      1.0  0.53389  0.28014  0.87319  1.0000
  C   C295      1.0  0.76712  0.04322  0.72040  1.0000
  H   H457      1.0  0.70904  0.10968  0.98154  1.0000
  S   S125      1.0  0.57432  0.21217  0.52236  1.0000
  H   H458      1.0  0.60975  0.05045  0.84333  1.0000
  H   H459      1.0  0.73710  0.10200  0.72819  1.0000
  H   H460      1.0  0.54132  0.27347  0.94054  1.0000
  H   H461      1.0  0.67557  0.37464  0.51743  1.0000
  C   C296      1.0  0.67500  0.02798  0.75929  1.0000
  H   H462      1.0  0.58014  0.02507  0.82984  1.0000
  H   H463      1.0  0.72219  0.58561  0.38921  1.0000
  H   H464      1.0  0.58622  0.53216  0.10990  1.0000
  C   C297      1.0  0.66172  0.60560  0.22223  1.0000
  C   C298      1.0  0.76789  0.52925  0.15621  1.0000
  C   C299      1.0  0.69146  0.52790  0.29391  1.0000
  Fe  Fe63      1.0  0.66857  0.56942  0.15144  1.0000
  S   S126      1.0  0.65940  0.63365  0.14597  1.0000
  H   H465      1.0  0.56918  0.83788  0.39444  1.0000
  H   H466      1.0  0.55437  0.86876  0.03467  1.0000
  H   H467      1.0  0.65032  0.67688  0.23778  1.0000
  H   H468      1.0  0.61626  0.57100  0.20147  1.0000
  H   H469      1.0  0.58359  0.52801  0.04993  1.0000
  C   C300      1.0  0.63593  0.66332  0.22099  1.0000
  H   H470      1.0  0.61679  0.67550  0.22141  1.0000
  C   C301      1.0  0.61531  0.66391  0.06062  1.0000
  C   C302      1.0  0.61459  0.68916  0.08200  1.0000
  C   C303      1.0  0.62867  0.68032  0.10809  1.0000
  C   C304      1.0  0.64324  0.64600  0.11295  1.0000
  C   C305      1.0  0.64416  0.62119  0.09146  1.0000
  C   C306      1.0  0.63049  0.63032  0.06541  1.0000
  H   H471      1.0  0.60294  0.71520  0.07853  1.0000
  H   H472      1.0  0.62796  0.69984  0.12456  1.0000
  H   H473      1.0  0.65563  0.59510  0.09480  1.0000
  H   H474      1.0  0.63151  0.61098  0.04894  1.0000
  H   H475      1.0  0.66727  0.61450  0.20340  1.0000
  C   C307      1.0  0.54867  0.96592  0.04556  1.0000
  H   H476      1.0  0.67674  0.61673  0.23942  1.0000
  N   N28       1.0  0.56760  0.56565  0.07560  1.0000
  S   S127      1.0  0.67931  0.52748  0.12211  1.0000
  H   H477      1.0  0.61565  0.75974  0.44989  1.0000
  S   S128      1.0  0.69422  0.54177  0.18783  1.0000
  C   C308      1.0  0.58721  0.55685  0.06030  1.0000
  C   C309      1.0  0.62971  0.60836  0.24860  1.0000
  H   H478      1.0  0.54179  0.59138  0.04175  1.0000
  N   N29       1.0  0.63602  0.62025  0.22308  1.0000
  C   C310      1.0  0.61678  0.60354  0.20034  1.0000
  C   C311      1.0  0.61109  0.77141  0.42901  1.0000
  H   H479      1.0  0.74231  0.55977  0.43465  1.0000
  H   H480      1.0  0.61060  0.61941  0.25019  1.0000
  H   H481      1.0  0.60674  0.55539  0.07377  1.0000
  H   H482      1.0  0.66222  0.57317  0.22309  1.0000
  S   S129      1.0  0.57840  0.78566  0.04004  1.0000
  H   H483      1.0  0.62907  0.78414  0.42516  1.0000
  H   H484      1.0  0.60549  0.74588  0.41532  1.0000
  H   H485      1.0  0.62123  0.61146  0.18077  1.0000
  H   H486      1.0  0.59714  0.61416  0.20016  1.0000
  C   C312      1.0  0.74175  0.58900  0.38538  1.0000
  C   C313      1.0  0.55750  0.89681  0.04594  1.0000
  H   H487      1.0  0.59320  0.60310  0.10345  1.0000
  S   S130      1.0  0.63373  0.53569  0.15487  1.0000
  C   C314      1.0  0.58486  0.81581  0.39761  1.0000
  S   S131      1.0  0.69117  0.53287  0.34736  1.0000
  H   H488      1.0  0.64425  0.61932  0.26629  1.0000
  S   S132      1.0  0.59575  0.67102  0.02822  1.0000
  H   H489      1.0  0.77518  0.54440  0.44178  1.0000
  H   H490      1.0  0.55081  0.80327  0.42764  1.0000
  H   H491      1.0  0.52685  0.57462  0.06777  1.0000
  H   H492      1.0  0.53877  0.99110  0.03394  1.0000
  C   C315      1.0  0.76124  0.56505  0.42961  1.0000
  H   H493      1.0  0.57049  0.77122  0.45136  1.0000
  S   S133      1.0  0.56411  0.83294  0.49741  1.0000
  H   H494      1.0  0.55875  0.70025  0.45152  1.0000
  Fe  Fe64      1.0  0.55981  0.76770  0.49846  1.0000
  S   S134      1.0  0.59434  0.72883  0.50007  1.0000
  S   S135      1.0  0.67797  0.56835  0.41334  1.0000
  S   S136      1.0  0.60539  0.60031  0.41364  1.0000
  H   H495      1.0  0.58264  0.85513  0.44308  1.0000
  H   H496      1.0  0.55252  0.53956  0.10712  1.0000
  C   C316      1.0  0.57377  0.60346  0.08971  1.0000
  H   H497      1.0  0.54154  0.96357  0.06430  1.0000
  H   H498      1.0  0.56053  0.75699  0.41675  1.0000
  H   H499      1.0  0.64070  0.67289  0.20184  1.0000
  C   C317      1.0  0.59679  0.69257  0.47617  1.0000
  C   C318      1.0  0.61963  0.67122  0.47951  1.0000
  C   C319      1.0  0.62246  0.64233  0.46079  1.0000
  C   C320      1.0  0.60249  0.63487  0.43844  1.0000
  C   C321      1.0  0.57957  0.65609  0.43521  1.0000
  C   C322      1.0  0.57661  0.68458  0.45411  1.0000
  H   H500      1.0  0.63529  0.67711  0.49662  1.0000
  H   H501      1.0  0.64018  0.62617  0.46345  1.0000
  H   H502      1.0  0.56401  0.65027  0.41800  1.0000
  N   N30       1.0  0.59037  0.80072  0.42535  1.0000
  H   H503      1.0  0.60343  0.82270  0.46557  1.0000
  H   H504      1.0  0.58774  0.57959  0.04491  1.0000
  N   N31       1.0  0.54401  0.92933  0.02974  1.0000
  C   C323      1.0  0.59835  0.83337  0.44447  1.0000
  C   C324      1.0  0.56699  0.78221  0.43045  1.0000
  H   H505      1.0  0.60205  0.83012  0.39297  1.0000
  Fe  Fe65      1.0  0.63738  0.55590  0.41638  1.0000
  H   H506      1.0  0.57365  0.62782  0.07529  1.0000
  H   H507      1.0  0.73955  0.58538  0.36333  1.0000
  H   H508      1.0  0.62911  0.57591  0.25033  1.0000
  C   C325      1.0  0.54214  0.56795  0.05692  1.0000
  H   H509      1.0  0.55056  0.89229  0.06464  1.0000
  H   H510      1.0  0.61545  0.84902  0.44070  1.0000
  H   H511      1.0  0.75149  0.54601  0.15866  1.0000
  H   H512      1.0  0.57857  0.79192  0.38271  1.0000
  C   C326      1.0  0.56731  0.53436  0.09540  1.0000
  H   H513      1.0  0.57863  0.90186  0.05151  1.0000
  H   H514      1.0  0.55969  0.61081  0.10191  1.0000
  Fe  Fe66      1.0  0.53541  0.78748  0.02876  1.0000
  H   H515      1.0  0.54529  0.69198  0.49815  1.0000
  H   H516      1.0  0.56953  0.97314  0.05138  1.0000
  H   H517      1.0  0.57942  0.64251  0.51230  1.0000
  N   N32       1.0  0.75960  0.55990  0.40058  1.0000
  Fe  Fe67      1.0  0.57468  0.72830  0.01842  1.0000
  C   C327      1.0  0.53159  0.67184  0.50474  1.0000
  H   H518      1.0  0.55595  0.60550  0.49956  1.0000
  H   H519      1.0  0.74832  0.61941  0.39093  1.0000
  H   H520      1.0  0.71086  0.53913  0.29995  1.0000
  H   H521      1.0  0.53697  0.53986  0.04591  1.0000
  H   H522      1.0  0.76756  0.59511  0.43652  1.0000
  H   H523      1.0  0.61046  0.93867  0.80619  1.0000
  S   S137      1.0  0.55353  0.87194  0.56784  1.0000
  H   H524      1.0  0.60084  0.94268  0.83753  1.0000
  H   H525      1.0  0.60590  0.64852  0.94385  1.0000
  S   S138      1.0  0.65816  0.96782  0.59624  1.0000
  H   H526      1.0  0.55421  0.62974  0.97935  1.0000
  C   C328      1.0  0.58377  0.89544  0.57623  1.0000
  C   C329      1.0  0.59918  0.89896  0.55765  1.0000
  C   C330      1.0  0.62229  0.92041  0.56427  1.0000
  C   C331      1.0  0.63012  0.93856  0.58945  1.0000
  C   C332      1.0  0.61503  0.93428  0.60825  1.0000
  C   C333      1.0  0.59188  0.91292  0.60162  1.0000
  H   H527      1.0  0.59313  0.88580  0.53804  1.0000
  H   H528      1.0  0.63395  0.92345  0.54968  1.0000
  H   H529      1.0  0.62123  0.94729  0.62794  1.0000
  H   H530      1.0  0.58018  0.91002  0.61619  1.0000
  H   H531      1.0  0.54225  0.59984  0.91982  1.0000
  H   H532      1.0  0.61395  0.01711  0.58916  1.0000
  H   H533      1.0  0.58305  0.99475  0.61560  1.0000
  C   C334      1.0  0.54847  0.64929  0.96169  1.0000
  S   S139      1.0  0.69194  0.00871  0.89299  1.0000
  C   C335      1.0  0.55856  0.67411  0.92117  1.0000
  H   H534      1.0  0.54394  0.95791  0.99225  1.0000
  S   S140      1.0  0.53170  0.72706  0.01084  1.0000
  H   H535      1.0  0.53809  0.67098  0.91025  1.0000
  H   H536      1.0  0.54317  0.68848  0.55770  1.0000
  H   H537      1.0  0.52815  0.64263  0.95174  1.0000
  Fe  Fe68      1.0  0.65849  0.00993  0.91303  1.0000
  H   H538      1.0  0.54900  0.67969  0.96950  1.0000
  H   H539      1.0  0.59365  0.02080  0.78581  1.0000
  H   H540      1.0  0.58044  0.96126  0.80728  1.0000
  Fe  Fe69      1.0  0.53313  0.75772  0.97251  1.0000
  S   S141      1.0  0.69758  0.01304  0.66563  1.0000
  S   S142      1.0  0.57615  0.75631  0.97913  1.0000
  H   H541      1.0  0.58502  0.85722  0.94503  1.0000
  H   H542      1.0  0.62397  0.99892  0.78496  1.0000
  Fe  Fe70      1.0  0.57594  0.81401  0.99997  1.0000
  H   H543      1.0  0.57065  0.67141  0.90627  1.0000
  C   C336      1.0  0.59246  0.65115  0.95743  1.0000
  H   H544      1.0  0.56092  0.70451  0.92925  1.0000
  S   S143      1.0  0.62952  0.95990  0.90580  1.0000
  H   H545      1.0  0.55138  0.01482  0.60919  1.0000
  S   S144      1.0  0.75371  0.02385  0.95411  1.0000
  H   H546      1.0  0.56676  0.01348  0.54199  1.0000
  C   C337      1.0  0.55745  0.67086  0.55005  1.0000
  S   S145      1.0  0.67411  0.00096  0.72971  1.0000
  H   H547      1.0  0.57506  0.60081  0.91688  1.0000
  C   C338      1.0  0.60927  0.89224  0.97575  1.0000
  C   C339      1.0  0.62642  0.92405  0.98085  1.0000
  C   C340      1.0  0.63279  0.94497  0.95961  1.0000
  C   C341      1.0  0.62195  0.93430  0.93304  1.0000
  C   C342      1.0  0.60463  0.90263  0.92791  1.0000
  C   C343      1.0  0.59830  0.88161  0.94918  1.0000
  Fe  Fe71      1.0  0.66414  0.01239  0.62991  1.0000
  H   H548      1.0  0.64611  0.96928  0.96383  1.0000
  H   H549      1.0  0.59614  0.89422  0.90741  1.0000
  S   S146      1.0  0.54168  0.76903  0.53393  1.0000
  C   C344      1.0  0.64073  0.99039  0.83795  1.0000
  H   H550      1.0  0.57459  0.60307  0.53361  1.0000
  H   H551      1.0  0.53519  0.60080  0.55169  1.0000
  C   C345      1.0  0.68382  0.00990  0.78428  1.0000
  H   H552      1.0  0.57718  0.97716  0.56703  1.0000
  N   N33       1.0  0.61390  0.99636  0.82336  1.0000
  S   S147      1.0  0.60189  0.86723  0.00326  1.0000
  C   C346      1.0  0.74220  0.00603  0.74559  1.0000
  H   H553      1.0  0.65166  0.97331  0.82583  1.0000
  H   H554      1.0  0.63498  0.93244  0.00134  1.0000
  H   H555      1.0  0.64185  0.97422  0.85698  1.0000
  Fe  Fe72      1.0  0.54295  0.83441  0.53037  1.0000
  H   H556      1.0  0.56799  0.65273  0.56698  1.0000
  N   N34       1.0  0.54487  0.64646  0.52683  1.0000
  N   N35       1.0  0.56550  0.64495  0.94286  1.0000
  C   C347      1.0  0.56544  0.00404  0.56239  1.0000
  H   H557      1.0  0.69023  0.97990  0.78508  1.0000
  H   H558      1.0  0.59535  0.68068  0.96685  1.0000
  C   C348      1.0  0.60079  0.95803  0.81829  1.0000
  C   C349      1.0  0.56240  0.60522  0.93112  1.0000
  H   H559      1.0  0.56722  0.58247  0.94695  1.0000
  H   H560      1.0  0.59835  0.62976  0.97403  1.0000
  H   H561      1.0  0.54520  0.99543  0.56168  1.0000
  C   C350      1.0  0.55370  0.93375  0.00506  1.0000
  H   H562      1.0  0.75796  0.98471  0.75215  1.0000
  H   H563      1.0  0.60156  0.00759  0.85983  1.0000
  H   H564      1.0  0.57158  0.69162  0.54461  1.0000
  H   H565      1.0  0.73055  0.00667  0.76105  1.0000
  C   C351      1.0  0.57174  0.02160  0.60923  1.0000
  H   H566      1.0  0.55074  0.90651  0.99275  1.0000
  C   C352      1.0  0.60070  0.02092  0.83977  1.0000
  H   H567      1.0  0.72940  0.99444  0.72683  1.0000
  S   S148      1.0  0.53295  0.81845  0.98968  1.0000
  H   H568      1.0  0.69169  0.01652  0.82743  1.0000
  H   H569      1.0  0.65078  0.01882  0.84326  1.0000
  C   C353      1.0  0.61358  0.01613  0.79762  1.0000
  H   H570      1.0  0.57471  0.94006  0.00980  1.0000
  S   S149      1.0  0.63508  0.02441  0.65421  1.0000
  C   C354      1.0  0.56452  0.62324  0.51769  1.0000
  S   S150      1.0  0.87108  0.15473  0.04705  1.0000
  S   S151      1.0  0.93177  0.17880  0.06394  1.0000
  Fe  Fe73      1.0  0.90885  0.12357  0.05517  1.0000
  S   S152      1.0  0.91949  0.07921  0.08862  1.0000
  Fe  Fe74      1.0  0.89436  0.21029  0.05325  1.0000
  S   S153      1.0  0.88299  0.25201  0.08307  1.0000
  Fe  Fe75      1.0  0.91372  0.46559  0.13298  1.0000
  S   S154      1.0  0.88657  0.45800  0.16037  1.0000
  S   S155      1.0  0.92096  0.42874  0.09866  1.0000
  Fe  Fe76      1.0  0.92011  0.47751  0.19311  1.0000
  S   S156      1.0  0.92547  0.45059  0.23439  1.0000
  H   H571      1.0  0.88179  0.49926  0.22278  1.0000
  S   S157      1.0  0.94778  0.47982  0.16637  1.0000
  C   C355      1.0  0.00761  0.04879  0.05708  1.0000
  H   H572      1.0  0.00276  0.33235  0.44261  1.0000
  H   H573      1.0  0.84303  0.40776  0.21925  1.0000
  C   C356      1.0  0.00213  0.39451  0.27523  1.0000
  C   C357      1.0  0.99828  0.40807  0.24877  1.0000
  C   C358      1.0  0.97492  0.42551  0.23607  1.0000
  C   C359      1.0  0.95521  0.42930  0.24973  1.0000
  C   C360      1.0  0.95904  0.41557  0.27617  1.0000
  C   C361      1.0  0.98244  0.39835  0.28893  1.0000
  H   H574      1.0  0.98754  0.51467  0.11973  1.0000
  H   H575      1.0  0.97219  0.43585  0.21570  1.0000
  H   H576      1.0  0.94390  0.41831  0.28688  1.0000
  C   C362      1.0  0.89418  0.30082  0.08730  1.0000
  C   C363      1.0  0.90894  0.31727  0.07082  1.0000
  C   C364      1.0  0.91711  0.35650  0.07457  1.0000
  C   C365      1.0  0.91075  0.37939  0.09492  1.0000
  C   C366      1.0  0.89623  0.36276  0.11159  1.0000
  C   C367      1.0  0.88791  0.32365  0.10772  1.0000
  H   H577      1.0  0.91382  0.29995  0.05500  1.0000
  H   H578      1.0  0.92831  0.36916  0.06158  1.0000
  H   H579      1.0  0.89121  0.38014  0.12728  1.0000
  H   H580      1.0  0.87644  0.31116  0.12049  1.0000
  N   N36       1.0  0.90090  0.16831  0.14087  1.0000
  H   H581      1.0  0.88476  0.12978  0.10797  1.0000
  H   H582      1.0  0.01343  0.40522  0.23807  1.0000
  H   H583      1.0  0.99922  0.11378  0.08286  1.0000
  H   H584      1.0  0.87239  0.42840  0.21396  1.0000
  Fe  Fe77      1.0  0.93124  0.17943  0.02000  1.0000
  H   H585      1.0  0.84249  0.43973  0.19136  1.0000
  H   H586      1.0  0.82688  0.46980  0.14671  1.0000
  H   H587      1.0  0.90891  0.21385  0.17075  1.0000
  C   C368      1.0  0.85175  0.43462  0.21282  1.0000
  C   C369      1.0  0.97860  0.07855  0.01934  1.0000
  C   C370      1.0  0.82113  0.47618  0.22731  1.0000
  H   H588      1.0  0.85268  0.43451  0.26558  1.0000
  H   H589      1.0  0.92968  0.15246  0.11964  1.0000
  C   C371      1.0  0.98555  0.10816  0.06332  1.0000
  C   C372      1.0  0.81064  0.48640  0.14973  1.0000
  H   H590      1.0  0.01628  0.03086  0.04332  1.0000
  H   H591      1.0  0.00746  0.49882  0.41349  1.0000
  H   H592      1.0  0.94012  0.18751  0.14617  1.0000
  C   C373      1.0  0.93969  0.37851  0.45359  1.0000
  H   H593      1.0  0.92275  0.03981  0.03933  1.0000
  H   H594      1.0  0.92209  0.39132  0.45655  1.0000
  Fe  Fe78      1.0  0.86327  0.42748  0.50481  1.0000
  H   H595      1.0  0.81815  0.50129  0.24009  1.0000
  C   C374      1.0  0.86134  0.46048  0.25792  1.0000
  H   H596      1.0  0.81115  0.45025  0.23334  1.0000
  N   N37       1.0  0.99774  0.08627  0.04466  1.0000
  N   N38       1.0  0.84873  0.46866  0.22965  1.0000
  H   H597      1.0  0.96208  0.06116  0.02287  1.0000
  H   H598      1.0  0.98888  0.48997  0.06206  1.0000
  C   C375      1.0  0.93432  0.03549  0.08231  1.0000
  H   H599      1.0  0.92373  0.14467  0.17742  1.0000
  C   C376      1.0  0.77874  0.45577  0.45224  1.0000
  C   C377      1.0  0.92352  0.17802  0.13006  1.0000
  H   H600      1.0  0.91335  0.10957  0.15087  1.0000
  H   H601      1.0  0.91929  0.20230  0.11532  1.0000
  H   H602      1.0  0.86216  0.14754  0.12621  1.0000
  C   C378      1.0  0.87945  0.15560  0.11878  1.0000
  H   H603      1.0  0.87604  0.19724  0.16230  1.0000
  H   H604      1.0  0.89090  0.12808  0.16909  1.0000
  H   H605      1.0  0.94002  0.28120  0.48773  1.0000
  H   H606      1.0  0.98519  0.38790  0.30931  1.0000
  C   C379      1.0  0.89317  0.20328  0.15403  1.0000
  H   H607      1.0  0.88818  0.22789  0.13953  1.0000
  H   H608      1.0  0.87372  0.17918  0.10373  1.0000
  C   C380      1.0  0.90751  0.13627  0.16050  1.0000
  H   H609      1.0  0.01234  0.13801  0.02937  1.0000
  C   C381      1.0  0.01920  0.10962  0.03891  1.0000
  C   C382      1.0  0.00197  0.45120  0.45345  1.0000
  H   H610      1.0  0.92362  0.50783  0.07287  1.0000
  C   C383      1.0  0.94012  0.50641  0.06300  1.0000
  C   C384      1.0  0.98073  0.34820  0.47151  1.0000
  H   H611      1.0  0.97384  0.47056  0.10255  1.0000
  S   S158      1.0  0.01279  0.30851  0.34593  1.0000
  C   C385      1.0  0.95803  0.36493  0.47559  1.0000
  S   S159      1.0  0.95337  0.36821  0.50849  1.0000
  H   H612      1.0  0.81448  0.48341  0.51327  1.0000
  H   H613      1.0  0.92395  0.19991  0.50382  1.0000
  C   C386      1.0  0.98526  0.34543  0.44558  1.0000
  H   H614      1.0  0.90847  0.25971  0.47764  1.0000
  C   C387      1.0  0.97029  0.50206  0.10578  1.0000
  H   H615      1.0  0.01865  0.39354  0.42544  1.0000
  H   H616      1.0  0.88600  0.23676  0.51194  1.0000
  C   C388      1.0  0.86082  0.50341  0.22050  1.0000
  H   H617      1.0  0.81128  0.48346  0.20631  1.0000
  H   H618      1.0  0.99975  0.45030  0.40030  1.0000
  S   S160      1.0  0.97280  0.35980  0.39099  1.0000
  C   C389      1.0  0.94424  0.37582  0.42766  1.0000
  H   H619      1.0  0.96875  0.09204  0.06745  1.0000
  S   S161      1.0  0.83015  0.44157  0.46964  1.0000
  H   H620      1.0  0.99491  0.33740  0.48849  1.0000
  H   H621      1.0  0.94277  0.47488  0.05886  1.0000
  S   S162      1.0  0.87824  0.36582  0.50641  1.0000
  H   H622      1.0  0.02251  0.05353  0.07593  1.0000
  H   H623      1.0  0.98566  0.43389  0.44141  1.0000
  Fe  Fe79      1.0  0.01118  0.34568  0.38161  1.0000
  C   C390      1.0  0.80034  0.45978  0.47361  1.0000
  C   C391      1.0  0.79795  0.47995  0.49672  1.0000
  H   H624      1.0  0.93011  0.38676  0.41069  1.0000
  H   H625      1.0  0.91293  0.30660  0.49388  1.0000
  C   C392      1.0  0.96712  0.35965  0.42359  1.0000
  S   S163      1.0  0.90277  0.45567  0.51295  1.0000
  H   H626      1.0  0.95435  0.50319  0.11626  1.0000
  H   H627      1.0  0.85985  0.48575  0.27118  1.0000
  H   H628      1.0  0.97848  0.13701  0.05488  1.0000
  C   C393      1.0  0.01515  0.46879  0.41293  1.0000
  H   H629      1.0  0.88219  0.45439  0.26019  1.0000
  H   H630      1.0  0.78039  0.43984  0.43443  1.0000
  C   C394      1.0  0.92140  0.27703  0.49367  1.0000
  H   H631      1.0  0.99204  0.03100  0.06238  1.0000
  C   C395      1.0  0.78776  0.46712  0.15151  1.0000
  H   H632      1.0  0.95550  0.22130  0.51370  1.0000
  H   H633      1.0  0.99466  0.48096  0.45606  1.0000
  N   N39       1.0  0.02379  0.45247  0.44020  1.0000
  H   H634      1.0  0.00741  0.43731  0.47359  1.0000
  Fe  Fe80      1.0  0.87915  0.52220  0.15405  1.0000
  H   H635      1.0  0.78663  0.43558  0.15019  1.0000
  H   H636      1.0  0.93444  0.52171  0.04343  1.0000
  H   H637      1.0  0.85253  0.50955  0.19897  1.0000
  C   C396      1.0  0.98499  0.52096  0.06647  1.0000
  N   N40       1.0  0.96360  0.52367  0.08022  1.0000
  H   H638      1.0  0.94261  0.18198  0.85234  1.0000
  S   S164      1.0  0.91871  0.39171  0.56169  1.0000
  S   S165      1.0  0.86064  0.42789  0.54784  1.0000
  Fe  Fe81      1.0  0.90112  0.45128  0.55646  1.0000
  C   C397      1.0  0.87663  0.36678  0.64970  1.0000
  Fe  Fe82      1.0  0.87871  0.36851  0.55028  1.0000
  S   S166      1.0  0.86324  0.32012  0.57249  1.0000
  Fe  Fe83      1.0  0.91909  0.12586  0.64785  1.0000
  H   H639      1.0  0.92429  0.37596  0.64217  1.0000
  S   S167      1.0  0.93259  0.18143  0.63080  1.0000
  Fe  Fe84      1.0  0.87931  0.06500  0.65533  1.0000
  H   H640      1.0  0.87358  0.44321  0.60684  1.0000
  C   C398      1.0  0.81201  0.05733  0.64928  1.0000
  S   S168      1.0  0.95183  0.09077  0.67197  1.0000
  C   C399      1.0  0.88271  0.28217  0.58928  1.0000
  C   C400      1.0  0.87108  0.24919  0.59786  1.0000
  C   C401      1.0  0.88605  0.21810  0.61084  1.0000
  C   C402      1.0  0.91280  0.21999  0.61544  1.0000
  C   C403      1.0  0.92442  0.25329  0.60723  1.0000
  C   C404      1.0  0.90947  0.28428  0.59421  1.0000
  H   H641      1.0  0.85037  0.24740  0.59422  1.0000
  H   H642      1.0  0.87689  0.19262  0.61712  1.0000
  H   H643      1.0  0.94513  0.25502  0.61100  1.0000
  H   H644      1.0  0.91867  0.30965  0.58795  1.0000
  H   H645      1.0  0.94628  0.26812  0.56067  1.0000
  C   C405      1.0  0.78991  0.10922  0.66720  1.0000
  H   H646      1.0  0.85910  0.39545  0.60048  1.0000
  C   C406      1.0  0.90860  0.38896  0.62664  1.0000
  H   H647      1.0  0.01516  0.19192  0.98988  1.0000
  C   C407      1.0  0.78859  0.03691  0.64166  1.0000
  H   H648      1.0  0.78546  0.04020  0.77386  1.0000
  H   H649      1.0  0.90339  0.45748  0.65021  1.0000
  H   H650      1.0  0.97070  0.10625  0.00950  1.0000
  S   S169      1.0  0.83996  0.03659  0.64224  1.0000
  H   H651      1.0  0.89112  0.28255  0.52958  1.0000
  H   H652      1.0  0.89153  0.35342  0.66592  1.0000
  C   C408      1.0  0.77855  0.05900  0.95750  1.0000
  N   N41       1.0  0.88682  0.40114  0.63796  1.0000
  H   H653      1.0  0.87973  0.44134  0.66777  1.0000
  S   S170      1.0  0.91543  0.49085  0.59244  1.0000
  C   C409      1.0  0.86641  0.41756  0.61645  1.0000
  H   H654      1.0  0.91689  0.41422  0.61772  1.0000
  C   C410      1.0  0.89568  0.43128  0.65881  1.0000
  H   H655      1.0  0.83052  0.10952  0.66808  1.0000
  S   S171      1.0  0.97043  0.18864  0.01139  1.0000
  H   H656      1.0  0.91124  0.42007  0.67530  1.0000
  H   H657      1.0  0.91799  0.16970  0.79182  1.0000
  H   H658      1.0  0.83614  0.08308  0.99943  1.0000
  H   H659      1.0  0.84975  0.42754  0.62426  1.0000
  H   H660      1.0  0.86002  0.37472  0.65829  1.0000
  Fe  Fe85      1.0  0.87501  0.15781  0.00445  1.0000
  S   S172      1.0  0.90174  0.07362  0.62352  1.0000
  H   H661      1.0  0.86991  0.34364  0.63420  1.0000
  H   H662      1.0  0.90244  0.36667  0.61057  1.0000
  C   C411      1.0  0.81262  0.09350  0.66218  1.0000
  H   H663      1.0  0.90182  0.23805  0.54684  1.0000
  H   H664      1.0  0.79508  0.14201  0.92875  1.0000
  C   C412      1.0  0.94231  0.28222  0.54061  1.0000
  S   S173      1.0  0.89434  0.12021  0.67800  1.0000
  C   C413      1.0  0.01399  0.14783  0.78457  1.0000
  H   H665      1.0  0.91460  0.20566  0.83274  1.0000
  S   S174      1.0  0.84144  0.15318  0.96852  1.0000
  H   H666      1.0  0.98269  0.23340  0.83666  1.0000
  H   H667      1.0  0.94532  0.14415  0.81087  1.0000
  H   H668      1.0  0.80155  0.03252  0.99305  1.0000
  N   N42       1.0  0.92501  0.25798  0.52017  1.0000
  S   S175      1.0  0.98575  0.22352  0.89429  1.0000
  S   S176      1.0  0.94111  0.07977  0.74551  1.0000
  C   C414      1.0  0.93650  0.21902  0.51904  1.0000
  C   C415      1.0  0.00312  0.15205  0.75707  1.0000
  C   C416      1.0  0.98067  0.13148  0.74488  1.0000
  C   C417      1.0  0.96937  0.10571  0.76000  1.0000
  C   C418      1.0  0.98047  0.10097  0.78741  1.0000
  C   C419      1.0  0.00256  0.12230  0.79975  1.0000
  H   H669      1.0  0.96106  0.28758  0.53521  1.0000
  H   H670      1.0  0.97208  0.13576  0.72382  1.0000
  H   H671      1.0  0.97181  0.08101  0.79920  1.0000
  H   H672      1.0  0.94759  0.17005  0.78102  1.0000
  C   C420      1.0  0.97398  0.19721  0.97847  1.0000
  C   C421      1.0  0.95286  0.20434  0.95729  1.0000
  C   C422      1.0  0.95663  0.21226  0.93148  1.0000
  C   C423      1.0  0.98145  0.21258  0.92667  1.0000
  C   C424      1.0  0.00245  0.20459  0.94775  1.0000
  C   C425      1.0  0.99873  0.19721  0.97359  1.0000
  H   H673      1.0  0.93371  0.20447  0.96090  1.0000
  H   H674      1.0  0.94029  0.21845  0.91528  1.0000
  Fe  Fe86      1.0  0.91731  0.39383  0.51760  1.0000
  H   H675      1.0  0.01190  0.17182  0.74525  1.0000
  C   C426      1.0  0.79648  0.11824  0.94291  1.0000
  C   C427      1.0  0.81789  0.11602  0.96458  1.0000
  C   C428      1.0  0.81968  0.08505  0.98270  1.0000
  H   H676      1.0  0.02162  0.20476  0.94428  1.0000
  H   H677      1.0  0.93386  0.31141  0.54261  1.0000
  C   C429      1.0  0.80011  0.05648  0.97904  1.0000
  H   H678      1.0  0.94130  0.23408  0.85101  1.0000
  Fe  Fe87      1.0  0.92620  0.08197  0.70046  1.0000
  Fe  Fe88      1.0  0.93226  0.03795  0.65029  1.0000
  H   H679      1.0  0.93951  0.20389  0.53877  1.0000
  N   N43       1.0  0.94758  0.20665  0.81520  1.0000
  C   C430      1.0  0.93942  0.24162  0.79863  1.0000
  C   C431      1.0  0.97584  0.20691  0.82438  1.0000
  C   C432      1.0  0.93923  0.17110  0.79904  1.0000
  C   C433      1.0  0.93591  0.20707  0.83875  1.0000
  H   H680      1.0  0.91818  0.24246  0.79137  1.0000
  H   H681      1.0  0.94800  0.24214  0.78074  1.0000
  H   H682      1.0  0.94556  0.26895  0.81028  1.0000
  H   H683      1.0  0.98276  0.18115  0.83719  1.0000
  H   H684      1.0  0.98546  0.20651  0.80725  1.0000
  H   H685      1.0  0.00068  0.07409  0.71395  1.0000
  C   C434      1.0  0.01383  0.05288  0.72654  1.0000
  H   H686      1.0  0.79048  0.13734  0.67704  1.0000
  S   S177      1.0  0.91099  0.12141  0.01183  1.0000
  S   S178      1.0  0.89563  0.21613  0.00984  1.0000
  H   H687      1.0  0.01099  0.11853  0.82088  1.0000
  C   C435      1.0  0.89991  0.25363  0.52740  1.0000
  H   H688      1.0  0.98711  0.06227  0.00471  1.0000
  S   S179      1.0  0.90906  0.02636  0.68060  1.0000
  H   H689      1.0  0.01388  0.05959  0.74787  1.0000
  H   H690      1.0  0.77807  0.13473  0.99078  1.0000
  C   C436      1.0  0.77684  0.08996  0.93943  1.0000
  Fe  Fe89      1.0  0.02570  0.21615  0.88742  1.0000
  H   H691      1.0  0.77645  0.08956  0.76414  1.0000
  H   H692      1.0  0.96545  0.02541  0.71116  1.0000
  H   H693      1.0  0.98095  0.82062  0.20616  1.0000
  S   S180      1.0  0.00775  0.82906  0.08021  1.0000
  H   H694      1.0  0.90685  0.86384  0.08239  1.0000
  S   S181      1.0  0.98123  0.85455  0.12950  1.0000
  Fe  Fe90      1.0  0.99337  0.79885  0.11290  1.0000
  S   S182      1.0  0.96098  0.75394  0.10440  1.0000
  Fe  Fe91      1.0  0.99795  0.88500  0.09857  1.0000
  S   S183      1.0  0.97708  0.92595  0.06627  1.0000
  C   C437      1.0  0.96555  0.80013  0.19577  1.0000
  C   C438      1.0  0.78534  0.56533  0.39510  1.0000
  H   H695      1.0  0.79318  0.59501  0.40123  1.0000
  S   S184      1.0  0.96866  0.58490  0.15724  1.0000
  Fe  Fe92      1.0  0.02119  0.85652  0.15541  1.0000
  H   H696      1.0  0.98961  0.67069  0.50369  1.0000
  H   H697      1.0  0.98063  0.53700  0.04709  1.0000
  H   H698      1.0  0.99953  0.76628  0.23609  1.0000
  C   C439      1.0  0.95390  0.73329  0.18286  1.0000
  H   H699      1.0  0.94559  0.97968  0.03114  1.0000
  H   H700      1.0  0.99881  0.62100  0.51250  1.0000
  C   C440      1.0  0.96350  0.70650  0.11847  1.0000
  C   C441      1.0  0.94111  0.68403  0.11687  1.0000
  C   C442      1.0  0.94227  0.64679  0.12878  1.0000
  C   C443      1.0  0.96591  0.63166  0.14223  1.0000
  C   C444      1.0  0.98830  0.65399  0.14358  1.0000
  C   C445      1.0  0.98713  0.69123  0.13175  1.0000
  H   H701      1.0  0.92272  0.69557  0.10659  1.0000
  H   H702      1.0  0.92490  0.62983  0.12757  1.0000
  H   H703      1.0  0.00670  0.64231  0.15375  1.0000
  H   H704      1.0  0.00456  0.70795  0.13277  1.0000
  C   C446      1.0  0.96004  0.96706  0.07313  1.0000
  C   C447      1.0  0.94620  0.98893  0.05151  1.0000
  S   S185      1.0  0.84093  0.55255  0.15035  1.0000
  C   C448      1.0  0.96061  0.97901  0.09938  1.0000
  C   C449      1.0  0.90963  0.87631  0.03128  1.0000
  H   H705      1.0  0.97127  0.96231  0.11615  1.0000
  H   H706      1.0  0.89513  0.80112  0.02133  1.0000
  H   H707      1.0  0.88137  0.81983  0.04771  1.0000
  H   H708      1.0  0.93967  0.81836  0.01995  1.0000
  H   H709      1.0  0.93184  0.82790  0.08978  1.0000
  H   H710      1.0  0.96053  0.70251  0.18240  1.0000
  C   C450      1.0  0.81230  0.52717  0.15144  1.0000
  S   S186      1.0  0.91109  0.54153  0.18846  1.0000
  H   H711      1.0  0.94650  0.74241  0.16164  1.0000
  H   H712      1.0  0.00301  0.53354  0.07907  1.0000
  N   N44       1.0  0.91914  0.84191  0.04796  1.0000
  H   H713      1.0  0.93743  0.73332  0.19275  1.0000
  H   H714      1.0  0.93904  0.87692  0.08121  1.0000
  H   H715      1.0  0.96772  0.74883  0.23589  1.0000
  H   H716      1.0  0.92404  0.90058  0.03491  1.0000
  C   C451      1.0  0.79080  0.54848  0.15454  1.0000
  C   C452      1.0  0.94300  0.82782  0.04128  1.0000
  H   H717      1.0  0.78477  0.56150  0.37337  1.0000
  N   N45       1.0  0.97486  0.75943  0.19685  1.0000
  H   H718      1.0  0.99063  0.71656  0.22657  1.0000
  H   H719      1.0  0.95922  0.81039  0.17467  1.0000
  Fe  Fe93      1.0  0.93593  0.54256  0.15853  1.0000
  H   H720      1.0  0.95112  0.80248  0.05401  1.0000
  H   H721      1.0  0.01255  0.77708  0.19320  1.0000
  C   C453      1.0  0.92443  0.85310  0.07661  1.0000
  C   C454      1.0  0.94769  0.01314  0.10394  1.0000
  C   C455      1.0  0.98356  0.74722  0.22512  1.0000
  H   H722      1.0  0.95798  0.85115  0.04441  1.0000
  H   H723      1.0  0.94906  0.80308  0.20548  1.0000
  C   C456      1.0  0.99654  0.75715  0.18353  1.0000
  C   C457      1.0  0.89962  0.81035  0.04278  1.0000
  H   H724      1.0  0.89167  0.88785  0.03581  1.0000
  H   H725      1.0  0.97630  0.57892  0.09894  1.0000
  H   H726      1.0  0.00436  0.72700  0.18421  1.0000
  C   C458      1.0  0.93342  0.02312  0.05608  1.0000
  H   H727      1.0  0.95376  0.58249  0.06703  1.0000
  C   C459      1.0  0.95900  0.56511  0.08579  1.0000
  H   H728      1.0  0.99044  0.76561  0.16206  1.0000
  H   H729      1.0  0.94315  0.56805  0.09647  1.0000
  S   S187      1.0  0.90338  0.52855  0.12363  1.0000
  H   H730      1.0  0.85823  0.53005  0.23206  1.0000
  H   H731      1.0  0.79189  0.58005  0.15570  1.0000
  H   H732      1.0  0.79921  0.54369  0.40634  1.0000
  H   H733      1.0  0.90645  0.78403  0.05512  1.0000
  H   H734      1.0  0.94837  0.02256  0.12429  1.0000
  C   C460      1.0  0.87766  0.98013  0.59588  1.0000
  S   S188      1.0  0.98222  0.70476  0.65538  1.0000
  H   H735      1.0  0.83552  0.95148  0.60912  1.0000
  S   S189      1.0  0.99588  0.75583  0.60690  1.0000
  Fe  Fe94      1.0  0.99404  0.76696  0.64969  1.0000
  H   H736      1.0  0.89795  0.99065  0.60050  1.0000
  Fe  Fe95      1.0  0.98770  0.69258  0.61404  1.0000
  S   S190      1.0  0.96215  0.65922  0.57945  1.0000
  H   H737      1.0  0.01107  0.63385  0.57325  1.0000
  C   C461      1.0  0.88377  0.94731  0.63848  1.0000
  S   S191      1.0  0.97293  0.81447  0.66748  1.0000
  C   C462      1.0  0.00548  0.00487  0.69087  1.0000
  S   S192      1.0  0.95328  0.99194  0.63154  1.0000
  C   C463      1.0  0.95647  0.88926  0.67251  1.0000
  H   H738      1.0  0.96177  0.61155  0.62665  1.0000
  H   H739      1.0  0.90554  0.86907  0.00950  1.0000
  H   H740      1.0  0.87135  0.96822  0.64632  1.0000
  C   C464      1.0  0.92923  0.53697  0.58848  1.0000
  H   H741      1.0  0.95068  0.87822  0.69005  1.0000
  C   C465      1.0  0.96833  0.86389  0.65742  1.0000
  H   H742      1.0  0.84090  0.92549  0.58036  1.0000
  H   H743      1.0  0.84552  0.90130  0.61227  1.0000
  C   C466      1.0  0.95918  0.94297  0.64227  1.0000
  C   C467      1.0  0.97119  0.91773  0.62729  1.0000
  C   C468      1.0  0.97579  0.87837  0.63482  1.0000
  H   H744      1.0  0.87117  0.97775  0.57370  1.0000
  C   C469      1.0  0.02372  0.98497  0.73641  1.0000
  H   H745      1.0  0.97692  0.92859  0.60967  1.0000
  H   H746      1.0  0.98497  0.85915  0.62308  1.0000
  C   C470      1.0  0.95015  0.61190  0.58353  1.0000
  C   C471      1.0  0.93776  0.59064  0.56066  1.0000
  C   C472      1.0  0.89145  0.91293  0.59994  1.0000
  C   C473      1.0  0.95234  0.59537  0.60890  1.0000
  H   H747      1.0  0.93585  0.60333  0.54098  1.0000
  C   C474      1.0  0.97961  0.00568  0.72384  1.0000
  H   H748      1.0  0.89050  0.88422  0.60990  1.0000
  H   H749      1.0  0.01810  0.95393  0.73146  1.0000
  H   H750      1.0  0.88340  0.91914  0.64920  1.0000
  C   C475      1.0  0.94174  0.55814  0.61136  1.0000
  N   N46       1.0  0.87522  0.94241  0.60913  1.0000
  C   C476      1.0  0.95203  0.92864  0.66509  1.0000
  C   C477      1.0  0.84809  0.92950  0.60238  1.0000
  H   H751      1.0  0.91200  0.92223  0.60467  1.0000
  H   H752      1.0  0.78795  0.00894  0.63163  1.0000
  H   H753      1.0  0.94299  0.94774  0.67698  1.0000
  H   H754      1.0  0.90368  0.95895  0.64402  1.0000
  H   H755      1.0  0.97287  0.97514  0.71892  1.0000
  H   H756      1.0  0.91777  0.53728  0.54537  1.0000
  H   H757      1.0  0.86593  0.00321  0.60269  1.0000
  H   H758      1.0  0.78359  0.02291  0.72600  1.0000
  C   C478      1.0  0.92749  0.55321  0.56309  1.0000
  H   H759      1.0  0.97962  0.64739  0.53098  1.0000
  C   C479      1.0  0.99585  0.65026  0.52077  1.0000
  N   N47       1.0  0.00567  0.01212  0.71941  1.0000
  H   H760      1.0  0.88551  0.90820  0.57788  1.0000
  N   N48       1.0  0.01935  0.66455  0.53956  1.0000
  H   H761      1.0  0.97884  0.01168  0.74505  1.0000
  H   H762      1.0  0.99956  0.97430  0.68480  1.0000
  H   H763      1.0  0.02427  0.98962  0.75807  1.0000
  C   C480      1.0  0.01447  0.70343  0.54995  1.0000
  H   H764      1.0  0.94313  0.54584  0.63107  1.0000
  H   H765      1.0  0.99815  0.70253  0.56001  1.0000
  H   H766      1.0  0.00986  0.72553  0.53371  1.0000
  Fe  Fe96      1.0  0.02450  0.69297  0.66920  1.0000
  H   H767      1.0  0.99182  0.02450  0.67738  1.0000
  H   H768      1.0  0.02475  0.00976  0.68666  1.0000
