data_image0
_chemical_formula_structural       FeS2FeS2H3SHCHSHFeSHNHCH4CH5SH2NHC6H4C6H5C3HCNC4H3C2H2FeH7CH3SHSHCH2CH4CH6CH2N2CSHFeSHFeS2FeS2FeSFeHS2FeHSHFeHSFeSH2SCH2SHCNSHNCHC4H4C6H4CHC2SHC6H4C3FeC3H3CH2CFeHCH3SC2SCNCSHCH3SH5CH2SH2FeHSCSHFeH3NC4SH3CH5SHCHFeHNC2H7CH4FeHCSH2CHC2H2CH4SFeS2FeS2FeSFeS3C2H2C2H3CSC2HC2H3C6H4C6H3C3HNHC3H3C2H2CH5C2H5SH2NSH6CH4FeNH3CFeSFeSH2S2FeS2FeS2FeSFeHS2C3SHCHCHC3H4C6H6C5SH5SFeH3CH2C3H4C3HSHC2H4NC4H13CH2NH2CHNC3H2CHC2H2NCH4CHSFeS2HFeS2FeS2FeSFeS2FeS2HC6H4C6H4CH7NC4H12CHC2H2CH7CH2SNCFeH2NCHCH2CH5C2FeHC2HC2H3CSHCSFe2SC2SHFeH2FeS2FeCFeHS2C2SFeS2FeS2FeSFeS3HCHC3HSCHC4H5C6H5CH2C3SH2C3HCH5Fe2H10C2H3CHNCH6CHCH2NCHC2H5SH5CHCSC3HCSNHNSHC3H2SFeHSHCSH2CH3SCHCH3C4FeH3CH2CH2C6H4CH4CH3CH4FeCNHCH7CHSCHC2H3N2H4CFeHCHSHS2HCFeHS4H3FeH2FeS2FeS2FeSFeS3Fe2CSCHSCHC5SC3H4C2H3FeC6H3C2SCSC7H5C2H7CNC2H2NH2SFeHCHSHCH2FeSH3CH2C2NC4H13CNHCHCH2CH7CH2SC2HCS2HC2H2C3H3CNH2CHCNFeCH2FeCH4SCH2CHS2HCH4CHCH4SHSHFeS2FeS2FeCFeHS2HFeS2FeSCFeSFeS3FeS2FeS2FeSFeS3FeS2H2C6HSH2C6H6CHC6H4CNC4H6C7H5NC4H2CHCSH3CH2NC3H3SHCH5CFeNC4H14FeSH5NCH2CH2FeHSH2CH3SH4SH3CHSCH2FeSCHS2FeS2FeSHFeSFeS3FeSCHFeS2FeSHFeSFeS3HCH2CHC5H6C6H2C6H4C6H4CH5CH2CH3C2HCHNH7CNC2HCSCH5C2H3NC3H6CH12CHNCH3NCH4CH3C2H3CHNHC2H2C3S2CSH2S2FeSFeSCFeS2H2C4H2C2NHC5H2CHC2H6CH2CHCH4C2H2CHNCHCH5CH5CNHCH7CH3CH3C2NC3HFeS2FeS2FeS2H2C4H2CHCHC3HC2HC3HCH8C4HCH4NCH3CH4C2H2CH2NHSHCHCH12S2FeS2FeS2FeS2FeSFeCS2CHCFeS2FeS2FeSFeS3FeSCHCH2CHC4NH6C6H3C6H4C5HCH2C6H4NC3H10NC4H14CH3SNC2HC2H3C2H2NCH2CHCHCH2FeHCH8C2HCH4NHCH6CH2C3H2CSFeSHFeS2FeSFeS3H2FeS2FeSHFeSFeS3FeS2FeS2FeSFeS3CSHFeSHC7H3C6H5C4H3SC2HCHC5H2NCHFeC6H6C2H3SH2NHC2H9C3SHSFeCH3CNCH5CSHCH6NH4CH3CHC2H2CH6C2H4C3HSCH2NCH5Fe2CHCH4SCHNFeH3CFeH4CHCSNH5SHC2H2CH6CH3NCNH3C2H3SCH2CFe2S2C4FeS2FeS2FeHFeS3FeSH2SHS2FeSC3HSHC2SC3HCHC7H4C2H2FeCH3C3SCH3CHC6H4NC4H13NFeSHFeH9NC4H12CSC3HSC2H5SCHSCHC2FeHSCHSH3CH4NSC4H4CH2CH3C6H4CH3C2NH4SH2SNC2SCH2SFeHCH3CH3C3H6NCH2Fe2C3H3CS2H2FeS5FeSCFeS2FeSFeS3HFeS2FeS2FeSFeS3C2HC5H6CH3C6H4CH2C3HCH3CHC2H4CHCNC3H10CH2CH4C2NC4H6FeHCHCH3CNH2CHCHC2H2NH2CHSH3CH3FeSCFeS2FeS2FeS2FeS2FeCFeNS2FeHSC6HCH8C2HCHC6H4CHCH2CH4NH2CH3CH7CH2S2CH4C2H4NHCH4CH2CHCNH2SHC2H2CHCHCFeS2FeS2FeSFeS3HFeSFeSHCS2HC7H4C6H4FeC2H3C4H4NHC2H2CH2CH4SH6NC4H12C2H3NHSCH6CH2SH2C5H2CH3NH3CHNH2CSH2C2HCHCH3CSFeS2FeS2FeSFeS3CSCH2C6H4C2H3CHC3H4C6FeH2NCH2CNCH4CH6CH9CH3CH2C3H3NH3CHCHC2H4C2SHFeSHCHFeH3SFeSFeS2FeS2FeSFeS3HFeS2FeHSC6NH2C3H4CHC4H5C2SC6H4CHC4NH3SNH5C3HFeNC4H12NC4H10CHCHSFeSHCSFeC2SHC2NHCSCH2SCHCH11CFeH2S2HFeSCHCS2FeHSFeHFeHSHSHC5HCH2SH3NC7H4SHC4H3NC4H21CH2CFeSH3CH4C
_chemical_formula_sum              "Fe192 S384 H1536 C960 N96"
_cell_length_a       81.3912
_cell_length_b       80.9324
_cell_length_c       32.5258
_cell_angle_alpha    88.5092
_cell_angle_beta     88.7129
_cell_angle_gamma    88.0997

_space_group_name_H-M_alt    "P 1"
_space_group_IT_number       1

loop_
  _space_group_symop_operation_xyz
  'x, y, z'

loop_
  _atom_site_type_symbol
  _atom_site_label
  _atom_site_symmetry_multiplicity
  _atom_site_fract_x
  _atom_site_fract_y
  _atom_site_fract_z
  _atom_site_occupancy
  Fe  Fe1       1.0  0.22836  0.23062  0.27742  1.0000
  S   S1        1.0  0.21978  0.25738  0.27924  1.0000
  S   S2        1.0  0.21200  0.21322  0.31564  1.0000
  Fe  Fe2       1.0  0.22496  0.25893  0.21106  1.0000
  S   S3        1.0  0.21219  0.27198  0.15619  1.0000
  S   S4        1.0  0.23133  0.23186  0.20848  1.0000
  H   H1        1.0  0.11776  0.30114  0.09123  1.0000
  H   H2        1.0  0.03581  0.19147  0.09999  1.0000
  H   H3        1.0  0.04090  0.16631  0.05942  1.0000
  S   S5        1.0  0.22799  0.14936  0.43021  1.0000
  H   H4        1.0  0.24270  0.29745  0.41818  1.0000
  C   C1        1.0  0.06842  0.23417  0.00290  1.0000
  H   H5        1.0  0.05906  0.21631  0.04733  1.0000
  S   S6        1.0  0.10000  0.28503  0.02899  1.0000
  H   H6        1.0  0.01437  0.19102  0.08999  1.0000
  Fe  Fe3       1.0  0.12690  0.27787  0.03645  1.0000
  S   S7        1.0  0.13768  0.26942  0.09799  1.0000
  H   H7        1.0  0.23199  0.10604  0.35101  1.0000
  N   N1        1.0  0.22139  0.24141  0.41726  1.0000
  H   H8        1.0  0.11881  0.29804  0.14558  1.0000
  C   C2        1.0  0.05781  0.22158  0.01663  1.0000
  H   H9        1.0  0.23723  0.28324  0.09062  1.0000
  H   H10       1.0  0.23093  0.24018  0.35552  1.0000
  H   H11       1.0  0.22671  0.22132  0.45989  1.0000
  H   H12       1.0  0.05012  0.16676  0.13138  1.0000
  C   C3        1.0  0.22027  0.25969  0.41679  1.0000
  H   H13       1.0  0.15365  0.32513  0.11922  1.0000
  H   H14       1.0  0.23663  0.25284  0.08987  1.0000
  H   H15       1.0  0.02915  0.14808  0.07085  1.0000
  H   H16       1.0  0.07769  0.23845  0.02302  1.0000
  H   H17       1.0  0.19537  0.23892  0.42789  1.0000
  S   S8        1.0  0.13528  0.30063  0.00312  1.0000
  H   H18       1.0  0.20578  0.22116  0.40615  1.0000
  H   H19       1.0  0.22319  0.08565  0.42798  1.0000
  N   N2        1.0  0.12755  0.32144  0.12266  1.0000
  H   H20       1.0  0.00530  0.16609  0.15835  1.0000
  C   C4        1.0  0.15850  0.27009  0.11329  1.0000
  C   C5        1.0  0.17021  0.27902  0.09066  1.0000
  C   C6        1.0  0.18655  0.27943  0.10426  1.0000
  C   C7        1.0  0.19142  0.27089  0.14051  1.0000
  C   C8        1.0  0.17973  0.26189  0.16296  1.0000
  C   C9        1.0  0.16337  0.26158  0.14951  1.0000
  H   H21       1.0  0.16666  0.28574  0.06292  1.0000
  H   H22       1.0  0.19545  0.28652  0.08678  1.0000
  H   H23       1.0  0.18325  0.25527  0.19091  1.0000
  H   H24       1.0  0.15443  0.25465  0.16735  1.0000
  C   C10       1.0  0.21689  0.19564  0.34776  1.0000
  C   C11       1.0  0.23282  0.18870  0.35004  1.0000
  C   C12       1.0  0.16858  0.24106  0.03181  1.0000
  C   C13       1.0  0.22338  0.16752  0.39988  1.0000
  C   C14       1.0  0.20751  0.17467  0.39818  1.0000
  C   C15       1.0  0.20429  0.18855  0.37205  1.0000
  H   H25       1.0  0.01947  0.16637  0.04951  1.0000
  H   H26       1.0  0.23248  0.07744  0.38191  1.0000
  H   H27       1.0  0.19765  0.16928  0.41631  1.0000
  H   H28       1.0  0.19189  0.19375  0.37043  1.0000
  H   H29       1.0  0.02108  0.19143  0.14221  1.0000
  C   C16       1.0  0.23504  0.11068  0.38170  1.0000
  C   C17       1.0  0.00634  0.08660  0.45532  1.0000
  C   C18       1.0  0.14471  0.31506  0.11779  1.0000
  H   H30       1.0  0.01246  0.13313  0.38813  1.0000
  C   C19       1.0  0.20536  0.23493  0.40613  1.0000
  N   N3        1.0  0.02493  0.16798  0.11305  1.0000
  C   C20       1.0  0.03790  0.16215  0.14151  1.0000
  C   C21       1.0  0.02401  0.18626  0.11148  1.0000
  C   C22       1.0  0.00891  0.16161  0.12732  1.0000
  C   C23       1.0  0.02887  0.16185  0.07151  1.0000
  H   H31       1.0  0.20182  0.23920  0.37459  1.0000
  H   H32       1.0  0.22326  0.11419  0.39777  1.0000
  H   H33       1.0  0.17442  0.24563  0.05980  1.0000
  C   C24       1.0  0.22581  0.23510  0.45874  1.0000
  C   C25       1.0  0.23517  0.08305  0.41176  1.0000
  H   H34       1.0  0.03530  0.16651  0.17323  1.0000
  H   H35       1.0  0.99894  0.16551  0.10588  1.0000
  Fe  Fe4       1.0  0.21277  0.13676  0.48150  1.0000
  H   H36       1.0  0.20142  0.24240  0.02521  1.0000
  H   H37       1.0  0.01770  0.08503  0.43773  1.0000
  H   H38       1.0  0.24264  0.19395  0.33152  1.0000
  H   H39       1.0  0.24184  0.12233  0.37682  1.0000
  H   H40       1.0  0.15601  0.24691  0.03064  1.0000
  H   H41       1.0  0.00917  0.14783  0.12877  1.0000
  H   H42       1.0  0.03892  0.14839  0.14301  1.0000
  C   C26       1.0  0.23599  0.17465  0.37569  1.0000
  H   H43       1.0  0.14787  0.30562  0.14217  1.0000
  H   H44       1.0  0.21070  0.26438  0.43885  1.0000
  H   H45       1.0  0.05818  0.30317  0.99844  1.0000
  S   S9        1.0  0.03266  0.19970  0.01021  1.0000
  H   H46       1.0  0.21646  0.23902  0.48234  1.0000
  S   S10       1.0  0.20040  0.11270  0.47181  1.0000
  H   H47       1.0  0.16715  0.22750  0.03638  1.0000
  C   C27       1.0  0.11628  0.30754  0.12092  1.0000
  H   H48       1.0  0.21719  0.26477  0.38559  1.0000
  H   H49       1.0  0.00674  0.12401  0.34072  1.0000
  C   C28       1.0  0.23414  0.23591  0.38714  1.0000
  H   H50       1.0  0.23659  0.10721  0.46451  1.0000
  H   H51       1.0  0.00582  0.11227  0.38823  1.0000
  H   H52       1.0  0.10318  0.31181  0.12399  1.0000
  H   H53       1.0  0.14672  0.30894  0.08779  1.0000
  C   C29       1.0  0.00362  0.12483  0.37412  1.0000
  H   H54       1.0  0.24190  0.07355  0.43095  1.0000
  H   H55       1.0  0.18557  0.26863  0.01478  1.0000
  H   H56       1.0  0.23549  0.22218  0.38673  1.0000
  H   H57       1.0  0.12818  0.32061  0.18872  1.0000
  H   H58       1.0  0.23791  0.23968  0.46793  1.0000
  H   H59       1.0  0.19489  0.22386  0.00212  1.0000
  C   C30       1.0  0.19516  0.23755  0.99813  1.0000
  H   H60       1.0  0.23219  0.26502  0.42481  1.0000
  H   H61       1.0  0.12531  0.32800  0.05837  1.0000
  N   N4        1.0  0.24467  0.09823  0.40597  1.0000
  N   N5        1.0  0.17839  0.24494  0.99416  1.0000
  C   C31       1.0  0.16271  0.12687  0.63148  1.0000
  S   S11       1.0  0.22326  0.23883  0.70696  1.0000
  H   H62       1.0  0.07942  0.31648  0.92739  1.0000
  Fe  Fe5       1.0  0.21799  0.23771  0.77501  1.0000
  S   S12       1.0  0.19230  0.23305  0.79999  1.0000
  H   H63       1.0  0.23856  0.04360  0.50341  1.0000
  Fe  Fe6       1.0  0.04346  0.05601  0.63222  1.0000
  S   S13       1.0  0.02278  0.07517  0.63403  1.0000
  S   S14       1.0  0.03686  0.02880  0.63053  1.0000
  Fe  Fe7       1.0  0.07008  0.08235  0.62018  1.0000
  S   S15       1.0  0.05120  0.10348  0.62246  1.0000
  S   S16       1.0  0.09839  0.08089  0.61776  1.0000
  Fe  Fe8       1.0  0.03893  0.08938  0.67545  1.0000
  S   S17       1.0  0.02998  0.09505  0.74165  1.0000
  Fe  Fe9       1.0  0.03612  0.08772  0.58124  1.0000
  H   H64       1.0  0.09050  0.04988  0.56792  1.0000
  S   S18       1.0  0.05895  0.06932  0.67579  1.0000
  S   S19       1.0  0.05574  0.06760  0.57673  1.0000
  Fe  Fe10      1.0  0.20681  0.13403  0.57457  1.0000
  H   H65       1.0  0.14993  0.16304  0.67421  1.0000
  S   S20       1.0  0.20510  0.14696  0.63558  1.0000
  H   H66       1.0  0.20368  0.17186  0.69669  1.0000
  Fe  Fe11      1.0  0.21521  0.10284  0.52548  1.0000
  H   H67       1.0  0.18630  0.26648  0.95997  1.0000
  S   S21       1.0  0.19501  0.10928  0.57156  1.0000
  Fe  Fe12      1.0  0.13497  0.28502  0.94709  1.0000
  S   S22       1.0  0.15824  0.28838  0.90938  1.0000
  H   H68       1.0  0.07428  0.28945  0.89677  1.0000
  H   H69       1.0  0.17604  0.12816  0.63709  1.0000
  S   S23       1.0  0.10906  0.29284  0.93143  1.0000
  C   C32       1.0  0.00527  0.03735  0.78066  1.0000
  H   H70       1.0  0.06296  0.32600  0.89855  1.0000
  H   H71       1.0  0.11438  0.04093  0.61032  1.0000
  S   S24       1.0  0.23381  0.28306  0.67976  1.0000
  H   H72       1.0  0.03147  0.29647  0.93615  1.0000
  C   C33       1.0  0.11005  0.02798  0.60988  1.0000
  N   N6        1.0  0.09200  0.02780  0.60613  1.0000
  S   S25       1.0  0.01502  0.15882  0.96846  1.0000
  H   H73       1.0  0.16921  0.22447  0.96147  1.0000
  N   N7        1.0  0.05663  0.30375  0.93239  1.0000
  C   C34       1.0  0.00994  0.13967  0.81735  1.0000
  H   H74       1.0  0.03109  0.05712  0.76877  1.0000
  C   C35       1.0  0.01798  0.12777  0.75053  1.0000
  C   C36       1.0  0.02261  0.11269  0.76975  1.0000
  C   C37       1.0  0.02088  0.11126  0.81294  1.0000
  C   C38       1.0  0.01471  0.12464  0.83659  1.0000
  H   H75       1.0  0.00810  0.04504  0.67745  1.0000
  H   H76       1.0  0.01915  0.12914  0.71744  1.0000
  H   H77       1.0  0.20399  0.27091  0.71134  1.0000
  H   H78       1.0  0.05363  0.24046  0.90682  1.0000
  C   C39       1.0  0.11329  0.09196  0.58792  1.0000
  C   C40       1.0  0.13010  0.08814  0.59378  1.0000
  C   C41       1.0  0.14242  0.09648  0.57094  1.0000
  C   C42       1.0  0.13808  0.10885  0.54192  1.0000
  C   C43       1.0  0.12126  0.11263  0.53597  1.0000
  C   C44       1.0  0.10894  0.10428  0.55880  1.0000
  H   H79       1.0  0.13365  0.07861  0.61608  1.0000
  H   H80       1.0  0.15525  0.09324  0.57563  1.0000
  H   H81       1.0  0.16983  0.15282  0.67663  1.0000
  H   H82       1.0  0.09609  0.10735  0.55377  1.0000
  C   C45       1.0  0.15648  0.15079  0.67228  1.0000
  H   H83       1.0  0.20292  0.24031  0.97027  1.0000
  C   C46       1.0  0.04376  0.01014  0.65558  1.0000
  C   C47       1.0  0.05410  0.00991  0.68940  1.0000
  S   S26       1.0  0.15307  0.12039  0.51350  1.0000
  H   H84       1.0  0.05809  0.02139  0.70146  1.0000
  C   C48       1.0  0.18303  0.24769  0.83303  1.0000
  C   C49       1.0  0.19213  0.26035  0.84860  1.0000
  C   C50       1.0  0.18434  0.27268  0.87219  1.0000
  C   C51       1.0  0.16747  0.27217  0.88144  1.0000
  C   C52       1.0  0.15840  0.25916  0.86735  1.0000
  C   C53       1.0  0.16618  0.24698  0.84295  1.0000
  H   H85       1.0  0.20517  0.26071  0.84232  1.0000
  H   H86       1.0  0.19142  0.28268  0.88328  1.0000
  H   H87       1.0  0.14535  0.25873  0.87428  1.0000
  H   H88       1.0  0.15909  0.23714  0.83111  1.0000
  C   C54       1.0  0.21873  0.16274  0.64626  1.0000
  C   C55       1.0  0.23339  0.16466  0.62365  1.0000
  C   C56       1.0  0.00509  0.03799  0.70636  1.0000
  Fe  Fe13      1.0  0.10152  0.27066  0.97069  1.0000
  C   C57       1.0  0.22578  0.18571  0.68912  1.0000
  C   C58       1.0  0.21497  0.17329  0.67901  1.0000
  C   C59       1.0  0.03880  0.30784  0.93258  1.0000
  H   H89       1.0  0.15786  0.11802  0.65513  1.0000
  H   H90       1.0  0.22276  0.19376  0.71442  1.0000
  H   H91       1.0  0.08969  0.00357  0.63437  1.0000
  C   C60       1.0  0.05484  0.23528  0.93763  1.0000
  H   H92       1.0  0.05439  0.28085  0.90104  1.0000
  H   H93       1.0  0.08705  0.02958  0.67116  1.0000
  C   C61       1.0  0.24060  0.18740  0.66707  1.0000
  Fe  Fe14      1.0  0.10874  0.30668  0.99016  1.0000
  H   H94       1.0  0.17370  0.28354  0.79243  1.0000
  C   C62       1.0  0.01160  0.14107  0.77413  1.0000
  H   H95       1.0  0.23641  0.15657  0.59843  1.0000
  H   H96       1.0  0.07295  0.01012  0.60239  1.0000
  H   H97       1.0  0.03501  0.21832  0.93116  1.0000
  S   S27       1.0  0.23907  0.21993  0.78763  1.0000
  C   C63       1.0  0.04423  0.22268  0.95134  1.0000
  C   C64       1.0  0.08656  0.01054  0.60546  1.0000
  S   S28       1.0  0.07998  0.25712  0.94395  1.0000
  C   C65       1.0  0.06703  0.24110  0.96319  1.0000
  N   N8        1.0  0.00947  0.04714  0.74313  1.0000
  C   C66       1.0  0.08717  0.03662  0.56768  1.0000
  S   S29       1.0  0.23208  0.26026  0.78747  1.0000
  H   H98       1.0  0.05424  0.28351  0.97619  1.0000
  C   C67       1.0  0.02730  0.05000  0.74188  1.0000
  H   H99       1.0  0.03467  0.03818  0.74118  1.0000
  H   H100      1.0  0.02439  0.09972  0.82834  1.0000
  H   H101      1.0  0.23284  0.31126  0.62490  1.0000
  S   S30       1.0  0.02609  0.09565  0.51819  1.0000
  H   H102      1.0  0.15213  0.14288  0.69854  1.0000
  H   H103      1.0  0.17794  0.24041  0.92930  1.0000
  H   H104      1.0  0.20141  0.29978  0.68662  1.0000
  H   H105      1.0  0.03509  0.31429  0.90343  1.0000
  H   H106      1.0  0.03071  0.05737  0.71400  1.0000
  C   C68       1.0  0.17057  0.23808  0.95802  1.0000
  H   H107      1.0  0.00359  0.07061  0.77058  1.0000
  H   H108      1.0  0.15811  0.24377  0.95316  1.0000
  S   S31       1.0  0.22602  0.07660  0.51687  1.0000
  H   H109      1.0  0.16347  0.28861  0.74542  1.0000
  H   H110      1.0  0.00334  0.07099  0.71576  1.0000
  Fe  Fe15      1.0  0.18116  0.12083  0.51887  1.0000
  H   H111      1.0  0.11772  0.12213  0.51357  1.0000
  S   S32       1.0  0.19227  0.14594  0.52336  1.0000
  C   C69       1.0  0.00034  0.06325  0.74358  1.0000
  S   S33       1.0  0.22831  0.12656  0.53370  1.0000
  H   H112      1.0  0.20186  0.30798  0.77722  1.0000
  Fe  Fe16      1.0  0.01160  0.18611  0.98089  1.0000
  H   H113      1.0  0.03519  0.31608  0.95839  1.0000
  H   H114      1.0  0.07365  0.03626  0.56328  1.0000
  H   H115      1.0  0.09229  0.00376  0.57923  1.0000
  N   N9        1.0  0.18981  0.29005  0.74169  1.0000
  C   C70       1.0  0.17398  0.29186  0.76461  1.0000
  C   C71       1.0  0.20334  0.29486  0.76804  1.0000
  C   C72       1.0  0.18952  0.30081  0.70426  1.0000
  C   C73       1.0  0.19244  0.27265  0.72982  1.0000
  S   S34       1.0  0.12780  0.26173  0.98099  1.0000
  H   H116      1.0  0.01351  0.12325  0.86968  1.0000
  H   H117      1.0  0.17174  0.30473  0.77514  1.0000
  H   H118      1.0  0.21549  0.29346  0.75183  1.0000
  C   C74       1.0  0.06094  0.29523  0.97157  1.0000
  H   H119      1.0  0.20391  0.28707  0.79667  1.0000
  H   H120      1.0  0.07055  0.03681  0.63894  1.0000
  H   H121      1.0  0.18748  0.31405  0.71195  1.0000
  H   H122      1.0  0.17965  0.29738  0.68327  1.0000
  H   H123      1.0  0.19341  0.26424  0.75724  1.0000
  S   S35       1.0  0.00125  0.15682  0.84520  1.0000
  H   H124      1.0  0.18222  0.26836  0.71112  1.0000
  C   C75       1.0  0.08414  0.03616  0.64163  1.0000
  H   H125      1.0  0.09330  0.03101  0.54024  1.0000
  Fe  Fe17      1.0  0.23900  0.26030  0.72020  1.0000
  H   H126      1.0  0.08830  0.04906  0.64384  1.0000
  N   N10       1.0  0.15374  0.14302  0.63249  1.0000
  C   C76       1.0  0.15988  0.15385  0.59861  1.0000
  C   C77       1.0  0.13599  0.14054  0.62743  1.0000
  H   H127      1.0  0.15811  0.14829  0.56809  1.0000
  H   H128      1.0  0.15341  0.16616  0.59830  1.0000
  H   H129      1.0  0.17327  0.15592  0.60140  1.0000
  H   H130      1.0  0.13362  0.13495  0.59727  1.0000
  H   H131      1.0  0.12877  0.15243  0.62858  1.0000
  H   H132      1.0  0.13098  0.13206  0.65178  1.0000
  H   H133      1.0  0.16170  0.12114  0.60102  1.0000
  C   C78       1.0  0.04565  0.21570  0.99098  1.0000
  H   H134      1.0  0.00852  0.04392  0.80890  1.0000
  H   H135      1.0  0.01203  0.02590  0.70460  1.0000
  H   H136      1.0  0.16689  0.26911  0.98635  1.0000
  H   H137      1.0  0.11411  0.02159  0.63879  1.0000
  Fe  Fe18      1.0  0.99880  0.16355  0.91377  1.0000
  H   H138      1.0  0.05766  0.29864  0.86769  1.0000
  C   C79       1.0  0.00697  0.09051  0.49719  1.0000
  S   S36       1.0  0.99688  0.19121  0.92380  1.0000
  H   H139      1.0  0.01201  0.02514  0.78118  1.0000
  H   H140      1.0  0.00798  0.15258  0.75873  1.0000
  C   C80       1.0  0.06088  0.29275  0.89785  1.0000
  H   H141      1.0  0.11645  0.02178  0.58362  1.0000
  C   C81       1.0  0.17935  0.26307  0.98864  1.0000
  C   C82       1.0  0.06591  0.31913  0.92768  1.0000
  H   H142      1.0  0.06321  0.32763  0.95356  1.0000
  H   H143      1.0  0.07425  0.29179  0.97197  1.0000
  C   C83       1.0  0.24438  0.17684  0.63436  1.0000
  H   H144      1.0  0.13955  0.58631  0.29599  1.0000
  H   H145      1.0  0.23252  0.50266  0.41070  1.0000
  H   H146      1.0  0.12747  0.62037  0.11343  1.0000
  H   H147      1.0  0.09836  0.56825  0.29134  1.0000
  S   S37       1.0  0.13166  0.50604  0.45186  1.0000
  Fe  Fe19      1.0  0.05511  0.54193  0.20119  1.0000
  S   S38       1.0  0.06046  0.55758  0.14522  1.0000
  S   S39       1.0  0.02931  0.53242  0.21439  1.0000
  Fe  Fe20      1.0  0.09162  0.53992  0.22697  1.0000
  S   S40       1.0  0.09919  0.55473  0.16980  1.0000
  S   S41       1.0  0.11344  0.53567  0.27137  1.0000
  Fe  Fe21      1.0  0.07753  0.57146  0.18429  1.0000
  S   S42       1.0  0.07764  0.59978  0.18580  1.0000
  Fe  Fe22      1.0  0.08174  0.53961  0.13434  1.0000
  S   S43       1.0  0.08534  0.53430  0.06564  1.0000
  S   S44       1.0  0.07025  0.55730  0.24217  1.0000
  S   S45       1.0  0.07599  0.52325  0.18957  1.0000
  C   C84       1.0  0.08450  0.51479  0.04160  1.0000
  C   C85       1.0  0.11885  0.58152  0.23488  1.0000
  H   H148      1.0  0.21059  0.52830  0.45531  1.0000
  H   H149      1.0  0.06293  0.56590  0.05762  1.0000
  C   C86       1.0  0.08606  0.48466  0.04351  1.0000
  C   C87       1.0  0.08571  0.49984  0.06402  1.0000
  H   H150      1.0  0.09428  0.65730  0.16354  1.0000
  H   H151      1.0  0.07462  0.60267  0.99395  1.0000
  H   H152      1.0  0.08683  0.49995  0.09710  1.0000
  C   C88       1.0  0.01043  0.54115  0.19559  1.0000
  S   S46       1.0  0.09636  0.33203  0.00085  1.0000
  C   C89       1.0  0.00917  0.55731  0.17929  1.0000
  C   C90       1.0  0.08316  0.51431  0.99850  1.0000
  H   H153      1.0  0.01999  0.56472  0.17710  1.0000
  C   C91       1.0  0.09832  0.58202  0.28956  1.0000
  C   C92       1.0  0.07056  0.59703  0.07527  1.0000
  H   H154      1.0  0.01249  0.48948  0.01902  1.0000
  H   H155      1.0  0.10439  0.61097  0.25123  1.0000
  H   H156      1.0  0.07886  0.60654  0.08641  1.0000
  C   C93       1.0  0.12693  0.51449  0.40157  1.0000
  C   C94       1.0  0.13877  0.52153  0.37517  1.0000
  C   C95       1.0  0.13437  0.52789  0.33575  1.0000
  C   C96       1.0  0.11809  0.52738  0.32184  1.0000
  C   C97       1.0  0.10622  0.52047  0.34838  1.0000
  C   C98       1.0  0.11062  0.51409  0.38778  1.0000
  H   H157      1.0  0.15135  0.52196  0.38496  1.0000
  H   H158      1.0  0.14373  0.53311  0.31569  1.0000
  H   H159      1.0  0.09367  0.51991  0.33843  1.0000
  H   H160      1.0  0.10130  0.50868  0.40759  1.0000
  C   C99       1.0  0.11215  0.64044  0.13651  1.0000
  C   C100      1.0  0.09763  0.64446  0.15839  1.0000
  C   C101      1.0  0.08731  0.63184  0.17327  1.0000
  C   C102      1.0  0.09135  0.61506  0.16671  1.0000
  C   C103      1.0  0.10597  0.61100  0.14532  1.0000
  C   C104      1.0  0.11624  0.62362  0.13017  1.0000
  H   H161      1.0  0.09969  0.56867  0.04393  1.0000
  H   H162      1.0  0.07604  0.63517  0.18981  1.0000
  H   H163      1.0  0.10939  0.59818  0.14036  1.0000
  C   C105      1.0  0.22849  0.50024  0.44312  1.0000
  C   C106      1.0  0.08485  0.48417  0.00044  1.0000
  C   C107      1.0  0.12710  0.58216  0.30550  1.0000
  H   H164      1.0  0.12773  0.56835  0.30788  1.0000
  N   N11       1.0  0.11455  0.58802  0.27587  1.0000
  H   H165      1.0  0.03674  0.47621  0.05327  1.0000
  C   C108      1.0  0.08499  0.59603  0.00970  1.0000
  C   C109      1.0  0.06758  0.57368  0.03142  1.0000
  C   C110      1.0  0.04375  0.47776  0.02374  1.0000
  H   H166      1.0  0.12583  0.61132  0.26264  1.0000
  H   H167      1.0  0.22816  0.53277  0.42306  1.0000
  H   H168      1.0  0.12426  0.58678  0.33687  1.0000
  C   C111      1.0  0.11386  0.60630  0.27337  1.0000
  C   C112      1.0  0.99616  0.53178  0.19852  1.0000
  H   H169      1.0  0.11063  0.61170  0.30372  1.0000
  H   H170      1.0  0.08738  0.47321  0.06121  1.0000
  C   C113      1.0  0.22420  0.52942  0.45506  1.0000
  H   H171      1.0  0.13080  0.58615  0.22296  1.0000
  H   H172      1.0  0.06609  0.58998  0.10293  1.0000
  H   H173      1.0  0.11986  0.56776  0.23580  1.0000
  H   H174      1.0  0.10934  0.58524  0.21214  1.0000
  H   H175      1.0  0.07372  0.56499  0.00944  1.0000
  C   C114      1.0  0.09323  0.57745  0.06516  1.0000
  C   C115      1.0  0.12378  0.33360  0.08916  1.0000
  H   H176      1.0  0.08229  0.36502  0.00810  1.0000
  H   H177      1.0  0.05970  0.60364  0.06164  1.0000
  H   H178      1.0  0.09470  0.58656  0.32054  1.0000
  H   H179      1.0  0.10232  0.58631  0.07553  1.0000
  H   H180      1.0  0.05347  0.46774  0.02264  1.0000
  S   S47       1.0  0.18162  0.50596  0.47792  1.0000
  H   H181      1.0  0.08918  0.56999  0.09246  1.0000
  H   H182      1.0  0.08852  0.58628  0.26798  1.0000
  N   N12       1.0  0.07907  0.58605  0.04539  1.0000
  S   S48       1.0  0.12546  0.65580  0.11588  1.0000
  H   H183      1.0  0.23362  0.44669  0.45747  1.0000
  H   H184      1.0  0.05014  0.48971  0.02475  1.0000
  H   H185      1.0  0.05673  0.57964  0.01620  1.0000
  H   H186      1.0  0.13195  0.34435  0.08957  1.0000
  H   H187      1.0  0.11082  0.33846  0.09137  1.0000
  H   H188      1.0  0.21501  0.49828  0.44318  1.0000
  C   C116      1.0  0.23037  0.44080  0.48663  1.0000
  H   H189      1.0  0.23437  0.48831  0.45375  1.0000
  H   H190      1.0  0.13377  0.34002  0.16520  1.0000
  H   H191      1.0  0.09367  0.60550  0.01931  1.0000
  H   H192      1.0  0.11260  0.33439  0.16747  1.0000
  Fe  Fe23      1.0  0.15475  0.50296  0.49227  1.0000
  N   N13       1.0  0.23250  0.51395  0.46997  1.0000
  H   H193      1.0  0.22680  0.53999  0.47493  1.0000
  H   H194      1.0  0.01766  0.45886  0.01631  1.0000
  H   H195      1.0  0.99696  0.51930  0.21123  1.0000
  C   C117      1.0  0.12543  0.32948  0.16280  1.0000
  Fe  Fe24      1.0  0.18285  0.52076  0.53547  1.0000
  S   S49       1.0  0.19600  0.54539  0.52751  1.0000
  Fe  Fe25      1.0  0.16130  0.49582  0.58451  1.0000
  S   S50       1.0  0.14865  0.49382  0.64880  1.0000
  H   H196      1.0  0.21330  0.50913  0.51440  1.0000
  H   H197      1.0  0.10692  0.49836  0.63043  1.0000
  S   S51       1.0  0.18889  0.49876  0.57670  1.0000
  S   S52       1.0  0.15556  0.51919  0.54743  1.0000
  Fe  Fe26      1.0  0.07896  0.41982  0.87587  1.0000
  S   S53       1.0  0.09722  0.44016  0.87259  1.0000
  S   S54       1.0  0.08906  0.39297  0.87143  1.0000
  Fe  Fe27      1.0  0.04939  0.44515  0.86591  1.0000
  S   S55       1.0  0.06613  0.46688  0.86015  1.0000
  S   S56       1.0  0.02173  0.44971  0.87838  1.0000
  Fe  Fe28      1.0  0.08266  0.45076  0.81928  1.0000
  S   S57       1.0  0.09404  0.45395  0.75373  1.0000
  Fe  Fe29      1.0  0.07945  0.45462  0.91355  1.0000
  H   H198      1.0  0.10653  0.33636  0.91399  1.0000
  S   S58       1.0  0.06470  0.42993  0.82154  1.0000
  S   S59       1.0  0.06229  0.43339  0.92045  1.0000
  C   C118      1.0  0.09100  0.37632  0.90834  1.0000
  C   C119      1.0  0.09866  0.36131  0.89609  1.0000
  C   C120      1.0  0.10052  0.34773  0.92398  1.0000
  S   S60       1.0  0.20850  0.46742  0.49521  1.0000
  H   H199      1.0  0.20592  0.58932  0.70367  1.0000
  C   C121      1.0  0.08515  0.37752  0.94899  1.0000
  H   H200      1.0  0.10323  0.36019  0.86478  1.0000
  C   C122      1.0  0.23550  0.60194  0.68801  1.0000
  H   H201      1.0  0.23827  0.60645  0.71906  1.0000
  C   C123      1.0  0.23406  0.55435  0.60364  1.0000
  C   C124      1.0  0.00492  0.44112  0.80832  1.0000
  C   C125      1.0  0.00396  0.44704  0.84837  1.0000
  H   H202      1.0  0.04919  0.49149  0.94879  1.0000
  H   H203      1.0  0.01681  0.43806  0.79450  1.0000
  H   H204      1.0  0.09237  0.48496  0.60924  1.0000
  H   H205      1.0  0.23658  0.58859  0.54141  1.0000
  C   C126      1.0  0.13378  0.48215  0.67768  1.0000
  C   C127      1.0  0.12981  0.48659  0.71845  1.0000
  C   C128      1.0  0.11784  0.47811  0.74233  1.0000
  C   C129      1.0  0.10945  0.46514  0.72559  1.0000
  C   C130      1.0  0.11346  0.46064  0.68487  1.0000
  C   C131      1.0  0.12561  0.46894  0.66123  1.0000
  H   H206      1.0  0.13602  0.49673  0.73171  1.0000
  H   H207      1.0  0.11499  0.48177  0.77350  1.0000
  H   H208      1.0  0.10717  0.45056  0.67157  1.0000
  H   H209      1.0  0.12866  0.46507  0.63038  1.0000
  H   H210      1.0  0.08233  0.49897  0.94491  1.0000
  H   H211      1.0  0.20441  0.44575  0.56895  1.0000
  C   C132      1.0  0.04283  0.47952  0.94964  1.0000
  C   C133      1.0  0.23221  0.57699  0.55397  1.0000
  C   C134      1.0  0.21878  0.56945  0.53612  1.0000
  C   C135      1.0  0.21288  0.55433  0.55185  1.0000
  C   C136      1.0  0.22063  0.54681  0.58578  1.0000
  S   S61       1.0  0.08549  0.46453  0.97672  1.0000
  H   H212      1.0  0.23988  0.54845  0.63003  1.0000
  H   H213      1.0  0.20495  0.60747  0.61897  1.0000
  H   H214      1.0  0.21621  0.53525  0.59849  1.0000
  H   H215      1.0  0.03510  0.47910  0.92185  1.0000
  H   H216      1.0  0.22682  0.60591  0.60981  1.0000
  S   S62       1.0  0.24430  0.39901  0.55358  1.0000
  Fe  Fe30      1.0  0.18681  0.48367  0.51978  1.0000
  H   H217      1.0  0.07922  0.38894  0.95896  1.0000
  H   H218      1.0  0.09812  0.50120  0.50128  1.0000
  H   H219      1.0  0.20802  0.60751  0.73340  1.0000
  C   C137      1.0  0.21670  0.60244  0.63172  1.0000
  H   H220      1.0  0.11851  0.51899  0.53154  1.0000
  H   H221      1.0  0.09157  0.58812  0.98669  1.0000
  C   C138      1.0  0.22194  0.42524  0.56109  1.0000
  C   C139      1.0  0.21385  0.44029  0.54917  1.0000
  C   C140      1.0  0.09465  0.34893  0.96461  1.0000
  H   H222      1.0  0.03417  0.45083  0.98403  1.0000
  H   H223      1.0  0.11341  0.47467  0.56052  1.0000
  H   H224      1.0  0.08259  0.50865  0.53700  1.0000
  H   H225      1.0  0.08231  0.52578  0.98076  1.0000
  C   C141      1.0  0.23422  0.41778  0.53585  1.0000
  C   C142      1.0  0.09264  0.49915  0.53273  1.0000
  C   C143      1.0  0.21965  0.62686  0.67173  1.0000
  H   H226      1.0  0.10300  0.52667  0.56696  1.0000
  S   S63       1.0  0.15961  0.47928  0.52991  1.0000
  H   H227      1.0  0.22209  0.63193  0.70245  1.0000
  C   C144      1.0  0.22686  0.51011  0.51254  1.0000
  C   C145      1.0  0.09767  0.49745  0.60588  1.0000
  H   H228      1.0  0.21624  0.58870  0.63203  1.0000
  H   H229      1.0  0.08765  0.50678  0.61227  1.0000
  H   H230      1.0  0.12380  0.48864  0.52599  1.0000
  H   H231      1.0  0.19398  0.60779  0.69142  1.0000
  N   N14       1.0  0.12307  0.41216  0.78330  1.0000
  C   C146      1.0  0.10522  0.41213  0.77597  1.0000
  C   C147      1.0  0.12880  0.42931  0.78004  1.0000
  C   C148      1.0  0.13186  0.40200  0.75220  1.0000
  C   C149      1.0  0.12637  0.40519  0.82489  1.0000
  H   H232      1.0  0.10034  0.39944  0.77879  1.0000
  H   H233      1.0  0.10217  0.41743  0.74503  1.0000
  H   H234      1.0  0.09826  0.41973  0.79878  1.0000
  H   H235      1.0  0.12206  0.43747  0.80221  1.0000
  H   H236      1.0  0.14214  0.42992  0.78622  1.0000
  H   H237      1.0  0.12669  0.43484  0.74882  1.0000
  H   H238      1.0  0.14538  0.40180  0.75669  1.0000
  H   H239      1.0  0.12954  0.40695  0.72049  1.0000
  H   H240      1.0  0.12780  0.38899  0.75384  1.0000
  H   H241      1.0  0.13971  0.40502  0.83170  1.0000
  H   H242      1.0  0.12202  0.39232  0.82858  1.0000
  H   H243      1.0  0.11980  0.41251  0.84908  1.0000
  H   H244      1.0  0.23221  0.49810  0.52425  1.0000
  C   C150      1.0  0.23838  0.42569  0.49842  1.0000
  H   H245      1.0  0.12833  0.48823  0.57966  1.0000
  H   H246      1.0  0.12199  0.51783  0.58599  1.0000
  N   N15       1.0  0.21950  0.60859  0.67331  1.0000
  H   H247      1.0  0.20776  0.63239  0.66100  1.0000
  H   H248      1.0  0.21860  0.41930  0.59013  1.0000
  C   C151      1.0  0.20625  0.60307  0.70174  1.0000
  H   H249      1.0  0.05249  0.46956  0.94685  1.0000
  N   N16       1.0  0.10522  0.50015  0.56458  1.0000
  C   C152      1.0  0.11824  0.48734  0.55742  1.0000
  C   C153      1.0  0.11248  0.51666  0.56218  1.0000
  C   C154      1.0  0.08692  0.36390  0.97683  1.0000
  H   H250      1.0  0.23007  0.51995  0.53394  1.0000
  H   H251      1.0  0.21290  0.57539  0.50986  1.0000
  C   C155      1.0  0.23993  0.56949  0.58799  1.0000
  H   H252      1.0  0.08702  0.48680  0.53337  1.0000
  C   C156      1.0  0.21798  0.44819  0.51175  1.0000
  C   C157      1.0  0.08316  0.49911  0.97804  1.0000
  H   H253      1.0  0.22950  0.63140  0.65042  1.0000
  H   H254      1.0  0.01642  0.46060  0.96125  1.0000
  N   N17       1.0  0.03293  0.47732  0.98790  1.0000
  C   C158      1.0  0.02492  0.46120  0.98750  1.0000
  H   H255      1.0  0.23599  0.58816  0.68927  1.0000
  H   H256      1.0  0.01194  0.49082  0.96378  1.0000
  H   H257      1.0  0.23563  0.66056  0.88435  1.0000
  H   H258      1.0  0.02593  0.50311  0.99098  1.0000
  C   C159      1.0  0.02025  0.49078  0.99055  1.0000
  H   H259      1.0  0.06123  0.79164  0.17876  1.0000
  S   S64       1.0  0.22455  0.74281  0.39339  1.0000
  Fe  Fe31      1.0  0.23039  0.74812  0.32698  1.0000
  S   S65       1.0  0.21187  0.75459  0.27724  1.0000
  S   S66       1.0  0.23807  0.69833  0.42167  1.0000
  H   H260      1.0  0.01717  0.82104  0.16250  1.0000
  Fe  Fe32      1.0  0.10524  0.71777  0.12302  1.0000
  S   S67       1.0  0.11586  0.70183  0.07262  1.0000
  S   S68       1.0  0.07858  0.72771  0.11622  1.0000
  Fe  Fe33      1.0  0.13655  0.71242  0.17415  1.0000
  S   S69       1.0  0.14923  0.69658  0.12637  1.0000
  S   S70       1.0  0.14744  0.71586  0.23740  1.0000
  Fe  Fe34      1.0  0.13919  0.71549  0.08073  1.0000
  S   S71       1.0  0.15046  0.72826  0.02392  1.0000
  Fe  Fe35      1.0  0.12482  0.68410  0.12246  1.0000
  S   S72       1.0  0.12807  0.73234  0.12893  1.0000
  S   S73       1.0  0.11263  0.69899  0.17262  1.0000
  Fe  Fe36      1.0  0.01914  0.80713  0.04330  1.0000
  S   S74       1.0  0.04546  0.79621  0.05095  1.0000
  S   S75       1.0  0.01848  0.83510  0.03931  1.0000
  H   H261      1.0  0.03636  0.83113  0.16493  1.0000
  C   C160      1.0  0.06955  0.74706  0.09960  1.0000
  C   C161      1.0  0.05253  0.74822  0.09265  1.0000
  C   C162      1.0  0.04490  0.76310  0.07799  1.0000
  C   C163      1.0  0.05425  0.77704  0.06978  1.0000
  C   C164      1.0  0.07126  0.77593  0.07708  1.0000
  C   C165      1.0  0.07884  0.76112  0.09230  1.0000
  H   H262      1.0  0.04519  0.73744  0.09831  1.0000
  H   H263      1.0  0.03182  0.76368  0.07254  1.0000
  H   H264      1.0  0.09183  0.76057  0.09860  1.0000
  H   H265      1.0  0.17717  0.70436  0.04381  1.0000
  C   C166      1.0  0.19406  0.74358  0.26657  1.0000
  C   C167      1.0  0.18869  0.74313  0.22585  1.0000
  C   C168      1.0  0.17446  0.73467  0.21627  1.0000
  C   C169      1.0  0.16530  0.72684  0.24754  1.0000
  C   C170      1.0  0.17053  0.72754  0.28836  1.0000
  C   C171      1.0  0.18483  0.73584  0.29786  1.0000
  H   H266      1.0  0.19561  0.74927  0.20147  1.0000
  H   H267      1.0  0.17052  0.73428  0.18475  1.0000
  H   H268      1.0  0.16341  0.72162  0.31273  1.0000
  H   H269      1.0  0.18859  0.73637  0.32944  1.0000
  C   C172      1.0  0.23208  0.79544  0.46973  1.0000
  H   H270      1.0  0.19698  0.67525  0.32592  1.0000
  H   H271      1.0  0.21060  0.66598  0.28815  1.0000
  H   H272      1.0  0.03000  0.78879  0.12900  1.0000
  H   H273      1.0  0.23059  0.83368  0.42319  1.0000
  H   H274      1.0  0.18715  0.69599  0.27360  1.0000
  H   H275      1.0  0.12403  0.75377  0.00767  1.0000
  H   H276      1.0  0.21960  0.70225  0.34967  1.0000
  N   N18       1.0  0.19515  0.78952  0.37317  1.0000
  C   C173      1.0  0.21290  0.78858  0.36281  1.0000
  C   C174      1.0  0.18928  0.77266  0.38172  1.0000
  C   C175      1.0  0.18618  0.79705  0.33800  1.0000
  C   C176      1.0  0.19233  0.79968  0.40998  1.0000
  H   H277      1.0  0.21791  0.80108  0.35708  1.0000
  H   H278      1.0  0.21541  0.78134  0.33458  1.0000
  H   H279      1.0  0.22001  0.78250  0.38819  1.0000
  H   H280      1.0  0.17582  0.77278  0.38867  1.0000
  H   H281      1.0  0.19166  0.76460  0.35483  1.0000
  H   H282      1.0  0.19561  0.76670  0.40855  1.0000
  H   H283      1.0  0.19042  0.80974  0.33043  1.0000
  H   H284      1.0  0.17271  0.79797  0.34461  1.0000
  H   H285      1.0  0.18810  0.78955  0.30986  1.0000
  H   H286      1.0  0.17905  0.80076  0.41864  1.0000
  H   H287      1.0  0.19686  0.81243  0.40487  1.0000
  H   H288      1.0  0.19892  0.79421  0.43702  1.0000
  C   C177      1.0  0.19992  0.69604  0.26054  1.0000
  H   H289      1.0  0.00062  0.86627  0.21983  1.0000
  C   C178      1.0  0.02927  0.78995  0.16297  1.0000
  C   C179      1.0  0.17083  0.72520  0.00424  1.0000
  H   H290      1.0  0.20522  0.70027  0.01305  1.0000
  H   H291      1.0  0.23857  0.69016  0.29712  1.0000
  C   C180      1.0  0.20948  0.67583  0.31138  1.0000
  H   H292      1.0  0.10466  0.75935  0.03194  1.0000
  H   H293      1.0  0.20070  0.68685  0.23566  1.0000
  H   H294      1.0  0.23066  0.68318  0.24955  1.0000
  H   H295      1.0  0.24058  0.80479  0.41076  1.0000
  H   H296      1.0  0.04100  0.79517  0.23778  1.0000
  H   H297      1.0  0.21333  0.71744  0.31175  1.0000
  H   H298      1.0  0.03207  0.81902  0.12126  1.0000
  C   C181      1.0  0.03578  0.80626  0.22113  1.0000
  H   H299      1.0  0.11501  0.74006  0.04507  1.0000
  H   H300      1.0  0.19820  0.70536  0.33892  1.0000
  S   S76       1.0  0.23996  0.77498  0.46409  1.0000
  N   N19       1.0  0.03779  0.80472  0.17610  1.0000
  C   C182      1.0  0.19723  0.71020  0.00156  1.0000
  Fe  Fe37      1.0  0.24444  0.72287  0.39044  1.0000
  H   H301      1.0  0.05736  0.80245  0.13103  1.0000
  H   H302      1.0  0.06232  0.81385  0.17521  1.0000
  N   N20       1.0  0.21226  0.69234  0.29249  1.0000
  C   C183      1.0  0.05547  0.80309  0.16494  1.0000
  H   H303      1.0  0.04203  0.81731  0.23208  1.0000
  C   C184      1.0  0.03057  0.81962  0.15533  1.0000
  H   H304      1.0  0.02254  0.80767  0.23037  1.0000
  H   H305      1.0  0.23138  0.70492  0.25889  1.0000
  C   C185      1.0  0.22131  0.82839  0.48455  1.0000
  H   H306      1.0  0.03478  0.77835  0.17666  1.0000
  H   H307      1.0  0.09107  0.72439  0.02959  1.0000
  H   H308      1.0  0.07862  0.78667  0.07125  1.0000
  H   H309      1.0  0.01597  0.79058  0.17181  1.0000
  H   H310      1.0  0.20163  0.70848  0.24586  1.0000
  C   C186      1.0  0.22870  0.82414  0.44660  1.0000
  C   C187      1.0  0.18134  0.71250  0.01911  1.0000
  Fe  Fe38      1.0  0.24487  0.75992  0.40652  1.0000
  H   H311      1.0  0.07963  0.74297  0.01660  1.0000
  C   C188      1.0  0.21075  0.70490  0.32460  1.0000
  C   C189      1.0  0.11211  0.74886  0.01917  1.0000
  H   H312      1.0  0.00715  0.96253  0.44527  1.0000
  C   C190      1.0  0.23423  0.80776  0.43932  1.0000
  C   C191      1.0  0.22896  0.69262  0.27365  1.0000
  H   H313      1.0  0.01838  0.90784  0.47217  1.0000
  H   H314      1.0  0.21856  0.67278  0.33587  1.0000
  H   H315      1.0  0.23419  0.67208  0.48191  1.0000
  C   C192      1.0  0.08826  0.73334  0.00389  1.0000
  S   S77       1.0  0.99875  0.80637  0.09121  1.0000
  H   H316      1.0  0.99963  0.94264  0.46043  1.0000
  C   C193      1.0  0.99663  0.95619  0.46049  1.0000
  S   S78       1.0  0.99771  0.84936  0.14371  1.0000
  Fe  Fe39      1.0  0.99704  0.83417  0.08466  1.0000
  Fe  Fe40      1.0  0.23496  0.73445  0.90082  1.0000
  S   S79       1.0  0.22278  0.71701  0.94751  1.0000
  C   C194      1.0  0.24274  0.66727  0.90713  1.0000
  C   C195      1.0  0.19324  0.92210  0.64478  1.0000
  S   S80       1.0  0.23295  0.73275  0.83209  1.0000
  H   H317      1.0  0.19783  0.91005  0.63290  1.0000
  Fe  Fe41      1.0  0.21346  0.86004  0.55712  1.0000
  H   H318      1.0  0.09071  0.76307  0.96633  1.0000
  H   H319      1.0  0.09495  0.85296  0.81760  1.0000
  Fe  Fe42      1.0  0.19207  0.87498  0.62671  1.0000
  S   S81       1.0  0.21474  0.88100  0.66152  1.0000
  S   S82       1.0  0.16877  0.88556  0.65944  1.0000
  Fe  Fe43      1.0  0.22523  0.89066  0.60126  1.0000
  C   C196      1.0  0.20283  0.72066  0.96933  1.0000
  Fe  Fe44      1.0  0.22479  0.85595  0.64442  1.0000
  H   H320      1.0  0.23788  0.80476  0.58394  1.0000
  S   S83       1.0  0.20222  0.88559  0.56708  1.0000
  S   S84       1.0  0.20153  0.84883  0.61415  1.0000
  C   C197      1.0  0.08813  0.85484  0.78849  1.0000
  C   C198      1.0  0.01196  0.86147  0.72441  1.0000
  S   S85       1.0  0.00206  0.80485  0.98971  1.0000
  Fe  Fe45      1.0  0.06981  0.90429  0.65850  1.0000
  S   S86       1.0  0.07036  0.91333  0.72300  1.0000
  S   S87       1.0  0.09160  0.89211  0.62328  1.0000
  Fe  Fe46      1.0  0.03245  0.91187  0.65282  1.0000
  S   S88       1.0  0.03092  0.92149  0.71766  1.0000
  S   S89       1.0  0.00740  0.91038  0.62232  1.0000
  Fe  Fe47      1.0  0.05412  0.93463  0.69954  1.0000
  S   S90       1.0  0.06026  0.96074  0.71854  1.0000
  Fe  Fe48      1.0  0.04703  0.89938  0.73559  1.0000
  S   S91       1.0  0.04614  0.88034  0.79014  1.0000
  S   S92       1.0  0.05476  0.92629  0.63399  1.0000
  S   S93       1.0  0.04741  0.88913  0.67183  1.0000
  H   H321      1.0  0.17190  0.95550  0.60599  1.0000
  C   C199      1.0  0.01394  0.90930  0.53773  1.0000
  H   H322      1.0  0.02685  0.90904  0.54498  1.0000
  C   C200      1.0  0.05381  0.97956  0.69348  1.0000
  C   C201      1.0  0.04352  0.97984  0.65960  1.0000
  C   C202      1.0  0.11419  0.72753  0.96866  1.0000
  H   H323      1.0  0.03934  0.96834  0.64797  1.0000
  S   S94       1.0  0.23718  0.86599  0.58672  1.0000
  C   C203      1.0  0.01135  0.85795  0.89152  1.0000
  H   H324      1.0  0.06697  0.99459  0.73455  1.0000
  C   C204      1.0  0.01572  0.87716  0.83230  1.0000
  C   C205      1.0  0.03239  0.87233  0.82939  1.0000
  C   C206      1.0  0.03844  0.86038  0.85807  1.0000
  C   C207      1.0  0.02808  0.85333  0.88898  1.0000
  H   H325      1.0  0.00446  0.85668  0.64521  1.0000
  H   H326      1.0  0.01084  0.88651  0.81120  1.0000
  H   H327      1.0  0.05128  0.85651  0.85656  1.0000
  H   H328      1.0  0.03303  0.84418  0.91060  1.0000
  H   H329      1.0  0.08653  0.85878  0.70548  1.0000
  C   C208      1.0  0.14741  0.88737  0.64814  1.0000
  C   C209      1.0  0.14077  0.88029  0.61371  1.0000
  C   C210      1.0  0.12372  0.88196  0.60655  1.0000
  C   C211      1.0  0.11308  0.89083  0.63341  1.0000
  C   C212      1.0  0.11977  0.89811  0.66757  1.0000
  C   C213      1.0  0.13679  0.89632  0.67492  1.0000
  H   H330      1.0  0.14872  0.87338  0.59277  1.0000
  H   H331      1.0  0.11872  0.87630  0.57997  1.0000
  H   H332      1.0  0.11183  0.90512  0.68828  1.0000
  H   H333      1.0  0.14178  0.90194  0.70154  1.0000
  H   H334      1.0  0.22239  0.79009  0.53063  1.0000
  C   C214      1.0  0.22497  0.79412  0.76140  1.0000
  H   H335      1.0  0.08143  0.88750  0.79288  1.0000
  H   H336      1.0  0.18960  0.94212  0.55209  1.0000
  C   C215      1.0  0.23461  0.82207  0.71390  1.0000
  C   C216      1.0  0.21798  0.81844  0.71819  1.0000
  C   C217      1.0  0.21320  0.80457  0.74205  1.0000
  S   S95       1.0  0.21831  0.77747  0.79325  1.0000
  H   H337      1.0  0.20879  0.82645  0.70366  1.0000
  H   H338      1.0  0.10807  0.72101  0.94386  1.0000
  C   C218      1.0  0.19574  0.93483  0.57714  1.0000
  C   C219      1.0  0.19237  0.73345  0.95474  1.0000
  C   C220      1.0  0.17861  0.94782  0.62944  1.0000
  H   H339      1.0  0.20052  0.92300  0.56397  1.0000
  C   C221      1.0  0.09893  0.75301  0.95389  1.0000
  H   H340      1.0  0.23061  0.81706  0.82493  1.0000
  H   H341      1.0  0.19650  0.74155  0.92991  1.0000
  H   H342      1.0  0.22031  0.81973  0.87377  1.0000
  H   H343      1.0  0.09960  0.89410  0.76569  1.0000
  H   H344      1.0  0.09235  0.74724  0.92858  1.0000
  Fe  Fe49      1.0  0.23545  0.76047  0.83043  1.0000
  Fe  Fe50      1.0  0.00042  0.83286  0.98843  1.0000
  H   H345      1.0  0.07505  0.85788  0.79709  1.0000
  H   H346      1.0  0.01560  0.87537  0.64865  1.0000
  H   H347      1.0  0.16144  0.92014  0.62523  1.0000
  H   H348      1.0  0.20028  0.80199  0.74580  1.0000
  H   H349      1.0  0.16338  0.92939  0.57452  1.0000
  H   H350      1.0  0.23602  0.81711  0.93814  1.0000
  H   H351      1.0  0.20672  0.94164  0.58631  1.0000
  H   H352      1.0  0.00885  0.86152  0.75792  1.0000
  H   H353      1.0  0.11007  0.75884  0.94030  1.0000
  H   H354      1.0  0.21292  0.81907  0.54358  1.0000
  C   C222      1.0  0.09439  0.88379  0.78465  1.0000
  C   C223      1.0  0.17023  0.92257  0.59919  1.0000
  H   H355      1.0  0.23679  0.82550  0.60239  1.0000
  H   H356      1.0  0.01006  0.89401  0.70672  1.0000
  H   H357      1.0  0.18908  0.95505  0.63988  1.0000
  C   C224      1.0  0.00529  0.86990  0.86277  1.0000
  H   H358      1.0  0.23697  0.68535  0.83758  1.0000
  N   N21       1.0  0.09522  0.86810  0.76226  1.0000
  C   C225      1.0  0.11256  0.86373  0.75165  1.0000
  H   H359      1.0  0.09043  0.88040  0.70438  1.0000
  H   H360      1.0  0.07253  0.87300  0.73095  1.0000
  H   H361      1.0  0.12015  0.86219  0.77961  1.0000
  H   H362      1.0  0.11820  0.87347  0.73161  1.0000
  H   H363      1.0  0.11364  0.85199  0.73453  1.0000
  H   H364      1.0  0.08839  0.84286  0.77240  1.0000
  C   C226      1.0  0.00908  0.90862  0.49641  1.0000
  H   H365      1.0  0.18509  0.91931  0.67187  1.0000
  C   C227      1.0  0.08576  0.87012  0.72414  1.0000
  H   H366      1.0  0.10131  0.88275  0.81376  1.0000
  H   H367      1.0  0.24417  0.70275  0.77157  1.0000
  N   N22       1.0  0.18445  0.93184  0.61260  1.0000
  C   C228      1.0  0.17643  0.73564  0.97199  1.0000
  H   H368      1.0  0.02414  0.86726  0.72041  1.0000
  C   C229      1.0  0.99814  0.88794  0.71230  1.0000
  C   C230      1.0  0.22423  0.79960  0.50712  1.0000
  H   H369      1.0  0.20417  0.92856  0.65550  1.0000
  H   H370      1.0  0.17418  0.91028  0.58715  1.0000
  H   H371      1.0  0.12582  0.73261  0.95567  1.0000
  H   H372      1.0  0.16839  0.74548  0.96025  1.0000
  H   H373      1.0  0.08157  0.72661  0.98043  1.0000
  S   S96       1.0  0.23499  0.76217  0.89939  1.0000
  H   H374      1.0  0.23574  0.67777  0.73561  1.0000
  H   H375      1.0  0.24283  0.79666  0.92398  1.0000
  H   H376      1.0  0.24081  0.84090  0.88985  1.0000
  H   H377      1.0  0.17012  0.94593  0.65637  1.0000
  H   H378      1.0  0.22743  0.79953  0.85862  1.0000
  C   C231      1.0  0.00208  0.91011  0.56947  1.0000
  H   H379      1.0  0.01348  0.84836  0.71528  1.0000
  C   C232      1.0  0.23052  0.81285  0.85779  1.0000
  S   S97       1.0  0.24127  0.83963  0.68542  1.0000
  C   C233      1.0  0.21891  0.81600  0.51460  1.0000
  C   C234      1.0  0.00358  0.86965  0.65577  1.0000
  C   C235      1.0  0.05909  0.99469  0.70820  1.0000
  H   H380      1.0  0.11789  0.71810  0.99248  1.0000
  C   C236      1.0  0.24163  0.79754  0.75629  1.0000
  S   S98       1.0  0.99734  0.84878  0.92847  1.0000
  N   N23       1.0  0.10337  0.74067  0.98640  1.0000
  H   H381      1.0  0.23369  0.67359  0.92826  1.0000
  N   N24       1.0  0.99922  0.87047  0.70008  1.0000
  S   S99       1.0  0.23422  0.91731  0.60143  1.0000
  H   H382      1.0  0.23421  0.69788  0.88196  1.0000
  C   C237      1.0  0.24360  0.69139  0.86235  1.0000
  C   C238      1.0  0.24452  0.81388  0.60164  1.0000
  C   C239      1.0  0.03851  0.99504  0.64091  1.0000
  H   H383      1.0  0.03047  0.99506  0.61484  1.0000
  H   H384      1.0  0.99592  0.95990  0.49321  1.0000
  S   S100      1.0  0.21513  0.84919  0.49316  1.0000
  Fe  Fe51      1.0  0.25747  0.23909  0.21849  1.0000
  H   H385      1.0  0.26727  0.25600  0.03384  1.0000
  S   S101      1.0  0.27324  0.22674  0.16765  1.0000
  H   H386      1.0  0.35222  0.15777  0.07386  1.0000
  C   C240      1.0  0.26036  0.09425  0.38411  1.0000
  S   S102      1.0  0.25491  0.23560  0.28783  1.0000
  H   H387      1.0  0.27466  0.29846  0.31144  1.0000
  H   H388      1.0  0.25648  0.29341  0.09440  1.0000
  C   C241      1.0  0.35912  0.16809  0.08645  1.0000
  H   H389      1.0  0.26798  0.27813  0.03419  1.0000
  H   H390      1.0  0.24860  0.26836  0.02962  1.0000
  H   H391      1.0  0.43509  0.30727  0.06895  1.0000
  S   S103      1.0  0.34503  0.22757  0.08333  1.0000
  C   C242      1.0  0.26069  0.26738  0.04496  1.0000
  H   H392      1.0  0.37037  0.18576  0.14952  1.0000
  C   C243      1.0  0.24912  0.25234  0.10313  1.0000
  H   H393      1.0  0.36235  0.17641  0.05995  1.0000
  H   H394      1.0  0.27397  0.26440  0.14329  1.0000
  H   H395      1.0  0.25443  0.11695  0.44362  1.0000
  C   C244      1.0  0.34507  0.16565  0.15244  1.0000
  C   C245      1.0  0.33419  0.18418  0.09971  1.0000
  C   C246      1.0  0.46593  0.31491  0.08605  1.0000
  C   C247      1.0  0.35919  0.19061  0.13363  1.0000
  Fe  Fe52      1.0  0.24648  0.26262  0.28866  1.0000
  H   H396      1.0  0.32654  0.17442  0.08722  1.0000
  H   H397      1.0  0.37086  0.16278  0.09873  1.0000
  H   H398      1.0  0.25469  0.32321  0.44238  1.0000
  C   C248      1.0  0.41215  0.01242  0.05456  1.0000
  H   H399      1.0  0.30091  0.28260  0.46193  1.0000
  H   H400      1.0  0.47712  0.32238  0.08157  1.0000
  C   C249      1.0  0.43651  0.31515  0.09627  1.0000
  H   H401      1.0  0.33705  0.19300  0.07392  1.0000
  H   H402      1.0  0.36339  0.19899  0.10812  1.0000
  C   C250      1.0  0.29322  0.22770  0.14445  1.0000
  C   C251      1.0  0.29611  0.22012  0.10635  1.0000
  C   C252      1.0  0.31169  0.22047  0.08643  1.0000
  C   C253      1.0  0.32472  0.22807  0.10494  1.0000
  C   C254      1.0  0.32179  0.23575  0.14291  1.0000
  C   C255      1.0  0.30610  0.23573  0.16238  1.0000
  H   H403      1.0  0.28621  0.21395  0.09205  1.0000
  H   H404      1.0  0.31365  0.21466  0.05708  1.0000
  H   H405      1.0  0.33176  0.24171  0.15748  1.0000
  H   H406      1.0  0.30409  0.24164  0.19159  1.0000
  C   C256      1.0  0.25783  0.29602  0.36302  1.0000
  H   H407      1.0  0.42160  0.17654  0.99709  1.0000
  H   H408      1.0  0.30953  0.31738  0.48539  1.0000
  H   H409      1.0  0.24831  0.16922  0.37665  1.0000
  H   H410      1.0  0.27972  0.32298  0.48408  1.0000
  C   C257      1.0  0.27031  0.30371  0.34009  1.0000
  H   H411      1.0  0.43762  0.30670  0.12367  1.0000
  H   H412      1.0  0.41108  0.03180  0.00742  1.0000
  H   H413      1.0  0.33779  0.17217  0.17689  1.0000
  C   C258      1.0  0.27749  0.31807  0.35472  1.0000
  H   H414      1.0  0.35187  0.19846  0.15548  1.0000
  H   H415      1.0  0.32653  0.19113  0.12267  1.0000
  H   H416      1.0  0.33758  0.15539  0.14175  1.0000
  H   H417      1.0  0.45425  0.32813  0.15599  1.0000
  Fe  Fe53      1.0  0.35580  0.21793  0.02229  1.0000
  C   C259      1.0  0.25247  0.30311  0.40033  1.0000
  N   N25       1.0  0.25864  0.26690  0.09024  1.0000
  H   H418      1.0  0.46793  0.30662  0.11340  1.0000
  C   C260      1.0  0.27500  0.26573  0.10916  1.0000
  H   H419      1.0  0.25591  0.09617  0.46521  1.0000
  H   H420      1.0  0.29291  0.30160  0.43930  1.0000
  H   H421      1.0  0.27904  0.28658  0.45961  1.0000
  H   H422      1.0  0.28230  0.27684  0.10170  1.0000
  H   H423      1.0  0.24634  0.24097  0.39364  1.0000
  H   H424      1.0  0.28229  0.25477  0.09818  1.0000
  H   H425      1.0  0.38608  0.12498  0.00465  1.0000
  C   C261      1.0  0.25940  0.31765  0.41447  1.0000
  H   H426      1.0  0.41817  0.01997  0.07630  1.0000
  S   S104      1.0  0.24917  0.27708  0.34829  1.0000
  C   C262      1.0  0.27222  0.32509  0.39216  1.0000
  H   H427      1.0  0.25552  0.24058  0.09399  1.0000
  C   C263      1.0  0.29103  0.29234  0.46485  1.0000
  C   C264      1.0  0.40818  0.01916  0.01544  1.0000
  H   H428      1.0  0.45407  0.99836  0.00458  1.0000
  H   H429      1.0  0.25823  0.08925  0.35320  1.0000
  H   H430      1.0  0.35627  0.16000  0.16683  1.0000
  N   N26       1.0  0.34940  0.17712  0.11809  1.0000
  N   N27       1.0  0.45100  0.32561  0.09105  1.0000
  H   H431      1.0  0.46507  0.30689  0.05894  1.0000
  H   H432      1.0  0.26789  0.10542  0.37976  1.0000
  H   H433      1.0  0.28729  0.32374  0.33693  1.0000
  H   H434      1.0  0.24803  0.28215  0.13775  1.0000
  C   C265      1.0  0.24814  0.10495  0.44654  1.0000
  Fe  Fe54      1.0  0.33646  0.99594  0.48470  1.0000
  H   H435      1.0  0.24736  0.25160  0.13713  1.0000
  C   C266      1.0  0.24975  0.28212  0.10370  1.0000
  H   H436      1.0  0.41673  0.28823  0.00134  1.0000
  S   S105      1.0  0.38104  0.20545  0.02455  1.0000
  H   H437      1.0  0.42496  0.32276  0.09993  1.0000
  S   S106      1.0  0.30868  0.99664  0.48506  1.0000
  S   S107      1.0  0.25112  0.26643  0.22014  1.0000
  H   H438      1.0  0.26783  0.08479  0.40165  1.0000
  C   C267      1.0  0.40831  0.99607  0.06599  1.0000
  Fe  Fe55      1.0  0.25373  0.24260  0.79591  1.0000
  H   H439      1.0  0.28769  0.18222  0.72263  1.0000
  S   S108      1.0  0.26739  0.24290  0.85585  1.0000
  S   S109      1.0  0.33708  0.01720  0.52864  1.0000
  S   S110      1.0  0.25491  0.20211  0.68082  1.0000
  S   S111      1.0  0.26208  0.24468  0.72944  1.0000
  H   H440      1.0  0.36176  0.99878  0.72560  1.0000
  H   H441      1.0  0.32453  0.04393  0.58853  1.0000
  H   H442      1.0  0.33572  0.03068  0.69551  1.0000
  Fe  Fe56      1.0  0.30936  0.01622  0.53304  1.0000
  H   H443      1.0  0.30889  0.19754  0.81400  1.0000
  H   H444      1.0  0.43061  0.02031  0.95276  1.0000
  Fe  Fe57      1.0  0.40703  0.04803  0.80500  1.0000
  S   S112      1.0  0.42511  0.06807  0.81624  1.0000
  S   S113      1.0  0.39674  0.04747  0.73937  1.0000
  Fe  Fe58      1.0  0.40615  0.03812  0.89707  1.0000
  S   S114      1.0  0.42310  0.05815  0.91423  1.0000
  S   S115      1.0  0.39532  0.01726  0.93690  1.0000
  Fe  Fe59      1.0  0.40873  0.07498  0.87052  1.0000
  S   S116      1.0  0.40160  0.10284  0.86776  1.0000
  Fe  Fe60      1.0  0.43828  0.05006  0.85870  1.0000
  S   S117      1.0  0.46565  0.04649  0.87372  1.0000
  S   S118      1.0  0.39037  0.05552  0.85780  1.0000
  S   S119      1.0  0.42173  0.02937  0.84314  1.0000
  Fe  Fe61      1.0  0.38769  0.22153  0.96952  1.0000
  Fe  Fe62      1.0  0.35465  0.21488  0.92997  1.0000
  C   C268      1.0  0.24959  0.29571  0.66030  1.0000
  S   S120      1.0  0.34207  0.21886  0.86891  1.0000
  C   C269      1.0  0.26420  0.04259  0.51940  1.0000
  H   H445      1.0  0.30756  0.31447  0.54021  1.0000
  S   S121      1.0  0.37971  0.20240  0.92542  1.0000
  C   C270      1.0  0.27462  0.06812  0.54350  1.0000
  H   H446      1.0  0.28467  0.07505  0.55463  1.0000
  C   C271      1.0  0.30819  0.02928  0.65343  1.0000
  C   C272      1.0  0.44022  0.25106  0.95266  1.0000
  C   C273      1.0  0.38773  0.12778  0.97215  1.0000
  C   C274      1.0  0.39518  0.11837  0.90334  1.0000
  C   C275      1.0  0.39304  0.11504  0.94552  1.0000
  S   S122      1.0  0.35013  0.99937  0.64263  1.0000
  C   C276      1.0  0.38445  0.14402  0.95712  1.0000
  C   C277      1.0  0.38668  0.14738  0.91496  1.0000
  C   C278      1.0  0.39201  0.13465  0.88835  1.0000
  H   H447      1.0  0.39541  0.10263  0.95765  1.0000
  H   H448      1.0  0.45180  0.02398  0.96222  1.0000
  H   H449      1.0  0.38414  0.15974  0.90278  1.0000
  H   H450      1.0  0.39360  0.13741  0.85582  1.0000
  C   C279      1.0  0.48446  0.04621  0.80075  1.0000
  C   C280      1.0  0.48423  0.04604  0.84378  1.0000
  H   H451      1.0  0.44004  0.20437  0.95063  1.0000
  H   H452      1.0  0.47299  0.04682  0.78452  1.0000
  H   H453      1.0  0.44187  0.16366  0.89917  1.0000
  Fe  Fe63      1.0  0.33702  0.99816  0.58030  1.0000
  C   C281      1.0  0.36349  0.01276  0.66840  1.0000
  C   C282      1.0  0.37033  0.02670  0.64915  1.0000
  C   C283      1.0  0.38040  0.03710  0.67136  1.0000
  C   C284      1.0  0.38393  0.03374  0.71308  1.0000
  C   C285      1.0  0.37701  0.01988  0.73239  1.0000
  C   C286      1.0  0.36691  0.00950  0.71021  1.0000
  H   H454      1.0  0.36815  0.02931  0.61692  1.0000
  H   H455      1.0  0.38576  0.04767  0.65582  1.0000
  H   H456      1.0  0.37954  0.01703  0.76436  1.0000
  C   C287      1.0  0.29631  0.19289  0.82023  1.0000
  C   C288      1.0  0.42363  0.24938  0.96502  1.0000
  S   S123      1.0  0.34585  0.19839  0.98233  1.0000
  C   C289      1.0  0.29490  0.18237  0.75142  1.0000
  S   S124      1.0  0.49143  0.30723  0.90903  1.0000
  C   C290      1.0  0.25768  0.31955  0.61789  1.0000
  C   C291      1.0  0.28847  0.23739  0.85961  1.0000
  C   C292      1.0  0.29459  0.23179  0.89770  1.0000
  C   C293      1.0  0.31115  0.22649  0.90129  1.0000
  C   C294      1.0  0.32166  0.22675  0.86670  1.0000
  C   C295      1.0  0.31562  0.23269  0.82882  1.0000
  C   C296      1.0  0.29913  0.23819  0.82539  1.0000
  H   H457      1.0  0.28645  0.23133  0.92442  1.0000
  H   H458      1.0  0.31572  0.22199  0.93062  1.0000
  H   H459      1.0  0.32378  0.23315  0.80212  1.0000
  H   H460      1.0  0.29468  0.24310  0.79631  1.0000
  H   H461      1.0  0.42953  0.18983  0.87018  1.0000
  C   C297      1.0  0.26597  0.29291  0.67128  1.0000
  C   C298      1.0  0.27814  0.30350  0.65583  1.0000
  H   H462      1.0  0.47317  0.00259  0.94388  1.0000
  H   H463      1.0  0.27726  0.31885  0.53797  1.0000
  H   H464      1.0  0.29643  0.16938  0.76305  1.0000
  H   H465      1.0  0.26924  0.28272  0.69202  1.0000
  H   H466      1.0  0.40506  0.17638  0.96167  1.0000
  H   H467      1.0  0.45249  0.19099  0.91871  1.0000
  H   H468      1.0  0.30731  0.18694  0.74296  1.0000
  C   C299      1.0  0.42086  0.18991  0.89710  1.0000
  N   N28       1.0  0.31930  0.04335  0.65367  1.0000
  C   C300      1.0  0.32857  0.04262  0.69227  1.0000
  C   C301      1.0  0.33094  0.04237  0.61822  1.0000
  H   H469      1.0  0.32021  0.04355  0.71970  1.0000
  H   H470      1.0  0.30225  0.05964  0.62179  1.0000
  N   N29       1.0  0.42843  0.18209  0.93398  1.0000
  H   H471      1.0  0.44688  0.24072  0.93907  1.0000
  H   H472      1.0  0.30053  0.06021  0.67683  1.0000
  S   S125      1.0  0.36312  0.23523  0.96971  1.0000
  Fe  Fe64      1.0  0.37166  0.18720  0.98013  1.0000
  H   H473      1.0  0.34032  0.05202  0.61892  1.0000
  C   C302      1.0  0.24590  0.06726  0.52439  1.0000
  H   H474      1.0  0.44463  0.02337  0.91071  1.0000
  S   S126      1.0  0.44956  0.29874  0.98358  1.0000
  H   H475      1.0  0.41712  0.20307  0.90247  1.0000
  C   C303      1.0  0.27403  0.31688  0.62925  1.0000
  H   H476      1.0  0.33753  0.05268  0.69315  1.0000
  H   H477      1.0  0.29767  0.18026  0.83428  1.0000
  Fe  Fe65      1.0  0.47483  0.30918  0.96582  1.0000
  S   S127      1.0  0.41419  0.22999  0.95850  1.0000
  H   H478      1.0  0.27782  0.21813  0.78706  1.0000
  H   H479      1.0  0.43583  0.99696  0.88242  1.0000
  H   H480      1.0  0.30115  0.02926  0.62444  1.0000
  C   C304      1.0  0.40026  0.00960  0.98713  1.0000
  H   H481      1.0  0.29909  0.02970  0.67942  1.0000
  H   H482      1.0  0.27070  0.17362  0.80370  1.0000
  C   C305      1.0  0.28493  0.21002  0.76553  1.0000
  C   C306      1.0  0.44832  0.26605  0.95761  1.0000
  N   N30       1.0  0.37144  0.09135  0.77160  1.0000
  C   C307      1.0  0.38956  0.08991  0.76862  1.0000
  C   C308      1.0  0.36636  0.09653  0.81340  1.0000
  C   C309      1.0  0.36447  0.07514  0.76342  1.0000
  C   C310      1.0  0.36545  0.10380  0.74096  1.0000
  H   H483      1.0  0.39394  0.08578  0.73774  1.0000
  H   H484      1.0  0.39437  0.08064  0.79133  1.0000
  H   H485      1.0  0.39537  0.10180  0.77514  1.0000
  H   H486      1.0  0.35276  0.09763  0.81713  1.0000
  H   H487      1.0  0.37094  0.08752  0.83733  1.0000
  H   H488      1.0  0.37149  0.10869  0.82070  1.0000
  H   H489      1.0  0.35082  0.07562  0.76582  1.0000
  H   H490      1.0  0.36901  0.06542  0.78568  1.0000
  H   H491      1.0  0.36818  0.07080  0.73223  1.0000
  H   H492      1.0  0.36918  0.10024  0.70915  1.0000
  H   H493      1.0  0.37059  0.11612  0.74636  1.0000
  H   H494      1.0  0.35181  0.10524  0.74233  1.0000
  H   H495      1.0  0.29715  0.21549  0.75958  1.0000
  C   C311      1.0  0.27732  0.05135  0.53389  1.0000
  N   N31       1.0  0.28656  0.19295  0.78238  1.0000
  H   H496      1.0  0.25714  0.08888  0.54669  1.0000
  C   C312      1.0  0.28872  0.28770  0.53863  1.0000
  H   H497      1.0  0.31522  0.01725  0.65614  1.0000
  C   C313      1.0  0.30948  0.05901  0.65062  1.0000
  H   H498      1.0  0.28900  0.29339  0.56948  1.0000
  H   H499      1.0  0.29043  0.20106  0.84379  1.0000
  C   C314      1.0  0.25902  0.07603  0.53891  1.0000
  H   H500      1.0  0.26357  0.19415  0.81615  1.0000
  H   H501      1.0  0.40964  0.18342  0.88841  1.0000
  H   H502      1.0  0.33754  0.03017  0.61751  1.0000
  H   H503      1.0  0.26217  0.18716  0.76441  1.0000
  H   H504      1.0  0.42204  0.15749  0.91826  1.0000
  H   H505      1.0  0.46106  0.26710  0.94794  1.0000
  H   H506      1.0  0.31746  0.06989  0.65004  1.0000
  C   C315      1.0  0.43996  0.27959  0.97529  1.0000
  H   H507      1.0  0.27841  0.21049  0.73589  1.0000
  H   H508      1.0  0.29078  0.30138  0.66476  1.0000
  S   S128      1.0  0.29730  0.04216  0.54066  1.0000
  C   C316      1.0  0.42338  0.27788  0.98772  1.0000
  C   C317      1.0  0.27004  0.18667  0.79211  1.0000
  H   H509      1.0  0.46539  0.00227  0.89285  1.0000
  C   C318      1.0  0.43303  0.16465  0.92564  1.0000
  S   S129      1.0  0.30930  0.99743  0.58554  1.0000
  S   S130      1.0  0.37771  0.15958  0.99227  1.0000
  H   H510      1.0  0.41302  0.19564  0.97671  1.0000
  C   C319      1.0  0.44339  0.01758  0.94187  1.0000
  C   C320      1.0  0.44321  0.19114  0.94434  1.0000
  H   H511      1.0  0.44914  0.18573  0.97232  1.0000
  H   H512      1.0  0.43882  0.15838  0.95280  1.0000
  C   C321      1.0  0.41653  0.18268  0.96892  1.0000
  C   C322      1.0  0.41524  0.26293  0.98253  1.0000
  C   C323      1.0  0.24550  0.30902  0.63347  1.0000
  H   H513      1.0  0.25582  0.17809  0.61718  1.0000
  H   H514      1.0  0.29847  0.27775  0.53783  1.0000
  H   H515      1.0  0.27660  0.28184  0.53637  1.0000
  C   C324      1.0  0.24861  0.05052  0.51462  1.0000
  N   N32       1.0  0.44709  0.99960  0.94103  1.0000
  H   H516      1.0  0.26604  0.02971  0.51188  1.0000
  H   H517      1.0  0.31756  0.29873  0.50974  1.0000
  C   C325      1.0  0.27785  0.31296  0.50757  1.0000
  H   H518      1.0  0.26563  0.30768  0.50275  1.0000
  C   C326      1.0  0.30718  0.30801  0.51039  1.0000
  N   N33       1.0  0.29121  0.30021  0.50536  1.0000
  Fe  Fe66      1.0  0.24569  0.22312  0.72070  1.0000
  C   C327      1.0  0.46398  0.99676  0.92448  1.0000
  H   H519      1.0  0.40251  0.26189  0.99218  1.0000
  H   H520      1.0  0.43787  0.34475  0.05687  1.0000
  Fe  Fe67      1.0  0.28184  0.35658  0.47124  1.0000
  C   C328      1.0  0.48171  0.40541  0.43549  1.0000
  H   H521      1.0  0.48184  0.60776  0.48413  1.0000
  H   H522      1.0  0.25709  0.50462  0.48062  1.0000
  H   H523      1.0  0.49288  0.63128  0.22290  1.0000
  H   H524      1.0  0.47371  0.39921  0.41515  1.0000
  S   S131      1.0  0.28236  0.34277  0.41000  1.0000
  C   C329      1.0  0.44751  0.66223  0.11649  1.0000
  H   H525      1.0  0.25385  0.52636  0.48922  1.0000
  H   H526      1.0  0.46459  0.40415  0.48742  1.0000
  C   C330      1.0  0.47649  0.40818  0.47651  1.0000
  H   H527      1.0  0.45858  0.65371  0.11598  1.0000
  S   S132      1.0  0.28297  0.38443  0.47747  1.0000
  S   S133      1.0  0.47633  0.66043  0.03425  1.0000
  H   H528      1.0  0.43650  0.65451  0.12012  1.0000
  C   C331      1.0  0.25047  0.51605  0.46929  1.0000
  H   H529      1.0  0.45979  0.34438  0.04892  1.0000
  H   H530      1.0  0.25519  0.51894  0.43762  1.0000
  H   H531      1.0  0.48782  0.37494  0.12855  1.0000
  H   H532      1.0  0.44164  0.34421  0.13225  1.0000
  C   C332      1.0  0.45265  0.33590  0.12753  1.0000
  H   H533      1.0  0.46358  0.34384  0.12414  1.0000
  C   C333      1.0  0.44899  0.33646  0.05414  1.0000
  H   H534      1.0  0.24759  0.42009  0.47826  1.0000
  H   H535      1.0  0.43797  0.65769  0.19552  1.0000
  H   H536      1.0  0.46990  0.46203  0.46995  1.0000
  H   H537      1.0  0.46005  0.65665  0.19131  1.0000
  S   S134      1.0  0.49401  0.64539  0.14060  1.0000
  H   H538      1.0  0.49260  0.40473  0.99836  1.0000
  S   S135      1.0  0.49368  0.35350  0.05989  1.0000
  H   H539      1.0  0.44766  0.32910  0.02602  1.0000
  Fe  Fe68      1.0  0.28522  0.63416  0.57059  1.0000
  S   S136      1.0  0.26020  0.62877  0.59732  1.0000
  S   S137      1.0  0.29022  0.65137  0.51554  1.0000
  Fe  Fe69      1.0  0.30381  0.61569  0.63951  1.0000
  S   S138      1.0  0.27989  0.60947  0.67177  1.0000
  S   S139      1.0  0.32677  0.60679  0.67472  1.0000
  Fe  Fe70      1.0  0.27048  0.60295  0.60973  1.0000
  C   C334      1.0  0.48683  0.41585  0.50343  1.0000
  Fe  Fe71      1.0  0.27118  0.63548  0.65734  1.0000
  H   H540      1.0  0.44569  0.57261  0.90318  1.0000
  S   S140      1.0  0.29501  0.60768  0.57808  1.0000
  S   S141      1.0  0.29561  0.64239  0.63010  1.0000
  H   H541      1.0  0.46314  0.44644  0.50633  1.0000
  Fe  Fe72      1.0  0.42628  0.59166  0.66682  1.0000
  S   S142      1.0  0.42576  0.58215  0.73223  1.0000
  S   S143      1.0  0.40379  0.60001  0.62928  1.0000
  Fe  Fe73      1.0  0.46342  0.58415  0.65680  1.0000
  S   S144      1.0  0.46508  0.57427  0.72232  1.0000
  C   C335      1.0  0.45038  0.47619  0.52784  1.0000
  Fe  Fe74      1.0  0.44197  0.56107  0.70924  1.0000
  S   S145      1.0  0.43822  0.53461  0.73322  1.0000
  Fe  Fe75      1.0  0.44908  0.59624  0.74032  1.0000
  S   S146      1.0  0.45001  0.61056  0.80114  1.0000
  S   S147      1.0  0.44115  0.56961  0.64331  1.0000
  S   S148      1.0  0.44868  0.60708  0.67542  1.0000
  Fe  Fe76      1.0  0.41969  0.40973  0.60556  1.0000
  S   S149      1.0  0.44355  0.39597  0.62148  1.0000
  S   S150      1.0  0.39899  0.39257  0.58754  1.0000
  Fe  Fe77      1.0  0.43354  0.44309  0.63224  1.0000
  S   S151      1.0  0.45737  0.43095  0.65231  1.0000
  S   S152      1.0  0.43001  0.47121  0.62246  1.0000
  Fe  Fe78      1.0  0.45671  0.41756  0.59215  1.0000
  S   S153      1.0  0.48118  0.41939  0.55580  1.0000
  Fe  Fe79      1.0  0.44243  0.41026  0.67996  1.0000
  S   S154      1.0  0.44231  0.39715  0.74398  1.0000
  S   S155      1.0  0.43316  0.43008  0.57147  1.0000
  S   S156      1.0  0.41831  0.42364  0.66461  1.0000
  Fe  Fe80      1.0  0.28456  0.35029  0.56296  1.0000
  S   S157      1.0  0.48785  0.58066  0.62131  1.0000
  S   S158      1.0  0.28549  0.37718  0.57696  1.0000
  H   H542      1.0  0.42297  0.35414  0.67390  1.0000
  H   H543      1.0  0.41774  0.36894  0.75858  1.0000
  C   C336      1.0  0.45656  0.38439  0.77280  1.0000
  C   C337      1.0  0.47296  0.38172  0.76015  1.0000
  C   C338      1.0  0.48380  0.37188  0.78469  1.0000
  C   C339      1.0  0.47842  0.36434  0.82197  1.0000
  C   C340      1.0  0.46196  0.36685  0.83440  1.0000
  C   C341      1.0  0.45117  0.37686  0.81010  1.0000
  H   H544      1.0  0.47737  0.38741  0.73171  1.0000
  S   S159      1.0  0.47400  0.33715  0.96324  1.0000
  H   H545      1.0  0.45759  0.36122  0.86294  1.0000
  H   H546      1.0  0.43856  0.37886  0.82045  1.0000
  C   C342      1.0  0.37791  0.39460  0.57268  1.0000
  C   C343      1.0  0.36895  0.38017  0.56799  1.0000
  C   C344      1.0  0.35236  0.38100  0.55573  1.0000
  C   C345      1.0  0.34446  0.39633  0.54752  1.0000
  C   C346      1.0  0.35339  0.41077  0.55242  1.0000
  C   C347      1.0  0.36994  0.40994  0.56509  1.0000
  H   H547      1.0  0.37493  0.36821  0.57344  1.0000
  H   H548      1.0  0.34577  0.36976  0.55200  1.0000
  H   H549      1.0  0.46111  0.45239  0.58011  1.0000
  H   H550      1.0  0.37659  0.42116  0.56836  1.0000
  H   H551      1.0  0.42963  0.37390  0.68922  1.0000
  H   H552      1.0  0.27321  0.66127  0.87576  1.0000
  C   C348      1.0  0.28310  0.42373  0.52067  1.0000
  H   H553      1.0  0.46914  0.53997  0.84608  1.0000
  C   C349      1.0  0.43702  0.51695  0.70187  1.0000
  C   C350      1.0  0.43618  0.50110  0.72059  1.0000
  C   C351      1.0  0.43454  0.48689  0.69683  1.0000
  C   C352      1.0  0.43339  0.48841  0.65403  1.0000
  C   C353      1.0  0.43426  0.50427  0.63534  1.0000
  C   C354      1.0  0.43631  0.51840  0.65899  1.0000
  H   H554      1.0  0.43671  0.49979  0.75372  1.0000
  H   H555      1.0  0.43380  0.47482  0.71174  1.0000
  H   H556      1.0  0.43335  0.50565  0.60232  1.0000
  H   H557      1.0  0.43720  0.53044  0.64408  1.0000
  C   C355      1.0  0.48496  0.63607  0.88992  1.0000
  N   N34       1.0  0.28519  0.43195  0.56014  1.0000
  C   C356      1.0  0.48097  0.62036  0.82701  1.0000
  C   C357      1.0  0.46391  0.62050  0.83413  1.0000
  C   C358      1.0  0.45755  0.62837  0.86956  1.0000
  C   C359      1.0  0.46793  0.63611  0.89712  1.0000
  H   H558      1.0  0.38830  0.38929  0.72479  1.0000
  H   H559      1.0  0.41095  0.34916  0.74344  1.0000
  H   H560      1.0  0.44441  0.62862  0.87559  1.0000
  H   H561      1.0  0.46270  0.64219  0.92385  1.0000
  H   H562      1.0  0.45502  0.54385  0.88815  1.0000
  H   H563      1.0  0.24986  0.65792  0.92574  1.0000
  C   C360      1.0  0.27069  0.44292  0.56861  1.0000
  C   C361      1.0  0.34819  0.60559  0.66151  1.0000
  C   C362      1.0  0.35946  0.60054  0.69201  1.0000
  C   C363      1.0  0.37652  0.59918  0.68310  1.0000
  C   C364      1.0  0.38256  0.60272  0.64331  1.0000
  C   C365      1.0  0.37129  0.60771  0.61278  1.0000
  C   C366      1.0  0.35424  0.60919  0.62178  1.0000
  H   H564      1.0  0.35495  0.59780  0.72289  1.0000
  H   H565      1.0  0.38496  0.59544  0.70706  1.0000
  H   H566      1.0  0.37578  0.61044  0.58187  1.0000
  H   H567      1.0  0.34578  0.61306  0.59794  1.0000
  H   H568      1.0  0.44830  0.48155  0.49649  1.0000
  N   N35       1.0  0.40415  0.36948  0.70266  1.0000
  C   C367      1.0  0.41912  0.36738  0.67651  1.0000
  C   C368      1.0  0.39053  0.36080  0.68426  1.0000
  C   C369      1.0  0.39959  0.38725  0.70548  1.0000
  C   C370      1.0  0.40742  0.36256  0.74430  1.0000
  H   H569      1.0  0.49189  0.47946  0.52981  1.0000
  H   H570      1.0  0.41712  0.37242  0.64479  1.0000
  C   C371      1.0  0.30025  0.44168  0.55763  1.0000
  H   H571      1.0  0.29960  0.45122  0.53242  1.0000
  C   C372      1.0  0.47135  0.45714  0.50198  1.0000
  S   S160      1.0  0.25646  0.57865  0.61324  1.0000
  H   H572      1.0  0.45298  0.58946  0.87190  1.0000
  H   H573      1.0  0.39720  0.39295  0.67460  1.0000
  H   H574      1.0  0.40956  0.39422  0.71926  1.0000
  C   C373      1.0  0.45648  0.57700  0.88489  1.0000
  H   H575      1.0  0.27191  0.44951  0.59793  1.0000
  H   H576      1.0  0.34752  0.42271  0.54605  1.0000
  N   N36       1.0  0.46132  0.56542  0.85198  1.0000
  C   C374      1.0  0.46560  0.54898  0.87033  1.0000
  C   C375      1.0  0.44746  0.56391  0.82386  1.0000
  C   C376      1.0  0.47572  0.57175  0.82876  1.0000
  H   H577      1.0  0.44378  0.57612  0.80983  1.0000
  H   H578      1.0  0.28125  0.43282  0.49484  1.0000
  H   H579      1.0  0.38786  0.36593  0.65281  1.0000
  S   S161      1.0  0.26275  0.35380  0.52199  1.0000
  H   H580      1.0  0.27558  0.41169  0.59619  1.0000
  C   C377      1.0  0.48365  0.59542  0.54362  1.0000
  H   H581      1.0  0.25437  0.32986  0.59757  1.0000
  H   H582      1.0  0.25925  0.43573  0.57138  1.0000
  H   H583      1.0  0.45071  0.55544  0.79825  1.0000
  H   H584      1.0  0.43640  0.55902  0.84010  1.0000
  H   H585      1.0  0.47281  0.58397  0.81368  1.0000
  C   C378      1.0  0.28673  0.41933  0.59361  1.0000
  Fe  Fe81      1.0  0.49164  0.33523  0.90956  1.0000
  N   N37       1.0  0.39124  0.54931  0.64392  1.0000
  C   C379      1.0  0.38974  0.53128  0.65067  1.0000
  C   C380      1.0  0.40210  0.55251  0.60772  1.0000
  C   C381      1.0  0.39837  0.55641  0.68064  1.0000
  C   C382      1.0  0.37483  0.55709  0.63670  1.0000
  H   H586      1.0  0.40190  0.52512  0.65697  1.0000
  H   H587      1.0  0.38470  0.52540  0.62331  1.0000
  H   H588      1.0  0.38149  0.52849  0.67753  1.0000
  H   H589      1.0  0.39702  0.54758  0.57924  1.0000
  H   H590      1.0  0.40372  0.56603  0.60228  1.0000
  H   H591      1.0  0.41456  0.54673  0.61191  1.0000
  H   H592      1.0  0.41076  0.55080  0.68703  1.0000
  H   H593      1.0  0.39049  0.55442  0.70859  1.0000
  H   H594      1.0  0.39978  0.56998  0.67645  1.0000
  H   H595      1.0  0.37568  0.57058  0.62981  1.0000
  H   H596      1.0  0.36650  0.55572  0.66411  1.0000
  H   H597      1.0  0.36881  0.55165  0.61007  1.0000
  H   H598      1.0  0.29756  0.41080  0.58814  1.0000
  H   H599      1.0  0.48491  0.38546  0.94376  1.0000
  Fe  Fe82      1.0  0.30324  0.37939  0.52341  1.0000
  S   S162      1.0  0.25400  0.65079  0.69876  1.0000
  H   H600      1.0  0.47267  0.60148  0.55616  1.0000
  H   H601      1.0  0.44152  0.46612  0.53333  1.0000
  H   H602      1.0  0.37899  0.36212  0.70308  1.0000
  H   H603      1.0  0.47986  0.56321  0.80402  1.0000
  H   H604      1.0  0.47611  0.54962  0.89149  1.0000
  N   N38       1.0  0.46754  0.46997  0.53260  1.0000
  C   C383      1.0  0.48891  0.59896  0.50277  1.0000
  H   H605      1.0  0.48419  0.45214  0.50483  1.0000
  H   H606      1.0  0.47628  0.49363  0.54906  1.0000
  C   C384      1.0  0.49136  0.62806  0.85468  1.0000
  H   H607      1.0  0.39354  0.34737  0.68133  1.0000
  H   H608      1.0  0.48616  0.61445  0.80003  1.0000
  Fe  Fe83      1.0  0.26527  0.38133  0.53117  1.0000
  H   H609      1.0  0.30231  0.44803  0.58692  1.0000
  S   S163      1.0  0.32366  0.39823  0.53040  1.0000
  H   H610      1.0  0.26882  0.45233  0.54347  1.0000
  H   H611      1.0  0.46667  0.47200  0.59856  1.0000
  C   C385      1.0  0.46954  0.46274  0.57444  1.0000
  H   H612      1.0  0.46672  0.57873  0.90630  1.0000
  H   H613      1.0  0.48629  0.57348  0.84913  1.0000
  H   H614      1.0  0.31134  0.43356  0.55135  1.0000
  S   S164      1.0  0.30367  0.35208  0.51218  1.0000
  H   H615      1.0  0.27231  0.41566  0.52207  1.0000
  H   H616      1.0  0.44712  0.48592  0.55046  1.0000
  H   H617      1.0  0.25417  0.65347  0.51887  1.0000
  H   H618      1.0  0.28833  0.42505  0.62391  1.0000
  S   S165      1.0  0.49296  0.35252  0.85220  1.0000
  H   H619      1.0  0.39646  0.36400  0.76509  1.0000
  H   H620      1.0  0.24565  0.60578  0.66690  1.0000
  H   H621      1.0  0.48224  0.45761  0.57911  1.0000
  C   C386      1.0  0.49291  0.58444  0.56849  1.0000
  H   H622      1.0  0.29404  0.41577  0.51262  1.0000
  S   S166      1.0  0.28972  0.32970  0.61009  1.0000
  C   C387      1.0  0.47885  0.48377  0.52629  1.0000
  H   H623      1.0  0.49112  0.36847  0.97703  1.0000
  H   H624      1.0  0.47768  0.48953  0.49500  1.0000
  Fe  Fe84      1.0  0.26747  0.74501  0.33917  1.0000
  S   S167      1.0  0.29166  0.74140  0.30323  1.0000
  C   C388      1.0  0.28089  0.67671  0.46240  1.0000
  H   H625      1.0  0.47386  0.92627  0.32477  1.0000
  S   S168      1.0  0.34542  0.76667  0.01574  1.0000
  S   S169      1.0  0.26451  0.73953  0.40747  1.0000
  Fe  Fe85      1.0  0.37886  0.80740  0.10187  1.0000
  S   S170      1.0  0.38187  0.79292  0.16107  1.0000
  S   S171      1.0  0.39549  0.82987  0.10011  1.0000
  Fe  Fe86      1.0  0.35812  0.77963  0.06703  1.0000
  S   S172      1.0  0.36044  0.76372  0.12472  1.0000
  H   H626      1.0  0.27400  0.69688  0.42061  1.0000
  Fe  Fe87      1.0  0.35509  0.78753  0.15713  1.0000
  S   S173      1.0  0.33644  0.79375  0.20808  1.0000
  Fe  Fe88      1.0  0.38716  0.77054  0.12237  1.0000
  S   S174      1.0  0.41050  0.75526  0.13897  1.0000
  S   S175      1.0  0.35155  0.80327  0.09961  1.0000
  S   S176      1.0  0.38515  0.78513  0.06314  1.0000
  Fe  Fe89      1.0  0.47817  0.68823  0.03441  1.0000
  S   S177      1.0  0.45362  0.70316  0.03312  1.0000
  C   C389      1.0  0.31478  0.77482  0.11108  1.0000
  H   H627      1.0  0.36680  0.83182  0.15624  1.0000
  Fe  Fe90      1.0  0.40181  0.92698  0.16293  1.0000
  S   S178      1.0  0.41642  0.92421  0.22051  1.0000
  S   S179      1.0  0.38476  0.90664  0.14249  1.0000
  Fe  Fe91      1.0  0.41199  0.96309  0.14900  1.0000
  S   S180      1.0  0.42707  0.96228  0.20670  1.0000
  H   H628      1.0  0.44318  0.92796  0.32009  1.0000
  Fe  Fe92      1.0  0.43643  0.93755  0.18512  1.0000
  S   S181      1.0  0.46296  0.92723  0.19017  1.0000
  Fe  Fe93      1.0  0.40587  0.94935  0.23797  1.0000
  S   S182      1.0  0.39915  0.95192  0.30729  1.0000
  S   S183      1.0  0.42247  0.93876  0.12601  1.0000
  S   S184      1.0  0.39012  0.95164  0.18182  1.0000
  H   H629      1.0  0.32057  0.79383  0.02043  1.0000
  C   C390      1.0  0.48210  0.93664  0.17873  1.0000
  H   H630      1.0  0.42213  0.67862  0.15369  1.0000
  H   H631      1.0  0.30521  0.96365  0.44625  1.0000
  C   C391      1.0  0.31486  0.93312  0.42421  1.0000
  H   H632      1.0  0.47216  0.96132  0.16825  1.0000
  C   C392      1.0  0.36262  0.98296  0.38897  1.0000
  C   C393      1.0  0.37269  0.97027  0.40593  1.0000
  C   C394      1.0  0.38364  0.96094  0.38045  1.0000
  C   C395      1.0  0.38474  0.96402  0.33757  1.0000
  C   C396      1.0  0.37458  0.97660  0.32059  1.0000
  H   H633      1.0  0.44523  0.77151  0.11673  1.0000
  H   H634      1.0  0.33767  0.85211  0.23063  1.0000
  H   H635      1.0  0.39145  0.95133  0.39415  1.0000
  H   H636      1.0  0.37522  0.97922  0.28781  1.0000
  H   H637      1.0  0.29112  0.74389  0.07960  1.0000
  H   H638      1.0  0.36327  0.86495  0.20209  1.0000
  C   C397      1.0  0.42261  0.74132  0.10822  1.0000
  C   C398      1.0  0.43803  0.73548  0.12243  1.0000
  C   C399      1.0  0.44796  0.72425  0.09941  1.0000
  C   C400      1.0  0.44240  0.71838  0.06220  1.0000
  C   C401      1.0  0.42703  0.72430  0.04799  1.0000
  C   C402      1.0  0.41725  0.73578  0.07059  1.0000
  H   H639      1.0  0.44235  0.73970  0.15145  1.0000
  H   H640      1.0  0.45985  0.72012  0.11055  1.0000
  C   C403      1.0  0.39219  0.85120  0.11197  1.0000
  C   C404      1.0  0.40551  0.86025  0.12512  1.0000
  C   C405      1.0  0.40353  0.87717  0.13468  1.0000
  C   C406      1.0  0.38818  0.88533  0.13082  1.0000
  C   C407      1.0  0.37489  0.87628  0.11745  1.0000
  C   C408      1.0  0.37687  0.85938  0.10793  1.0000
  H   H641      1.0  0.41749  0.85420  0.12788  1.0000
  H   H642      1.0  0.41390  0.88394  0.14468  1.0000
  H   H643      1.0  0.36302  0.88250  0.11376  1.0000
  H   H644      1.0  0.36663  0.85284  0.09640  1.0000
  C   C409      1.0  0.32388  0.77903  0.23352  1.0000
  C   C410      1.0  0.30969  0.78450  0.25529  1.0000
  C   C411      1.0  0.29954  0.77316  0.27643  1.0000
  C   C412      1.0  0.30363  0.75624  0.27632  1.0000
  C   C413      1.0  0.31779  0.75079  0.25432  1.0000
  C   C414      1.0  0.32786  0.76210  0.23295  1.0000
  H   H645      1.0  0.30654  0.79758  0.25601  1.0000
  H   H646      1.0  0.28870  0.77750  0.29329  1.0000
  H   H647      1.0  0.32111  0.73772  0.25438  1.0000
  H   H648      1.0  0.33891  0.75775  0.21697  1.0000
  C   C415      1.0  0.47448  0.93675  0.30206  1.0000
  H   H649      1.0  0.32425  0.77452  0.08590  1.0000
  H   H650      1.0  0.34863  0.84498  0.27547  1.0000
  H   H651      1.0  0.48578  0.94363  0.30776  1.0000
  H   H652      1.0  0.34906  0.84554  0.16039  1.0000
  H   H653      1.0  0.30704  0.75401  0.05078  1.0000
  C   C416      1.0  0.26962  0.68753  0.44217  1.0000
  H   H654      1.0  0.34775  0.82422  0.17607  1.0000
  H   H655      1.0  0.43352  0.94593  0.29644  1.0000
  C   C417      1.0  0.44902  0.66523  0.18992  1.0000
  H   H656      1.0  0.41844  0.80816  0.13999  1.0000
  H   H657      1.0  0.43644  0.80182  0.16800  1.0000
  H   H658      1.0  0.32326  0.92200  0.42534  1.0000
  C   C418      1.0  0.39628  0.99329  0.99867  1.0000
  C   C419      1.0  0.42658  0.79228  0.07059  1.0000
  H   H659      1.0  0.30022  0.76249  0.17929  1.0000
  C   C420      1.0  0.29808  0.75548  0.07688  1.0000
  H   H660      1.0  0.31908  0.97463  0.41252  1.0000
  N   N39       1.0  0.44834  0.67422  0.14982  1.0000
  H   H661      1.0  0.42244  0.78672  0.15195  1.0000
  H   H662      1.0  0.46858  0.96236  0.35266  1.0000
  H   H663      1.0  0.30592  0.78520  0.10392  1.0000
  H   H664      1.0  0.43302  0.99408  0.99609  1.0000
  H   H665      1.0  0.45242  0.81189  0.06257  1.0000
  H   H666      1.0  0.43405  0.69503  0.17266  1.0000
  H   H667      1.0  0.34277  0.93741  0.37814  1.0000
  C   C421      1.0  0.31888  0.74552  0.12393  1.0000
  N   N40       1.0  0.43777  0.79675  0.10337  1.0000
  C   C422      1.0  0.48324  0.95359  0.16991  1.0000
  C   C423      1.0  0.33346  0.94780  0.37827  1.0000
  H   H668      1.0  0.45381  0.81649  0.11616  1.0000
  C   C424      1.0  0.42838  0.79845  0.14257  1.0000
  S   S185      1.0  0.41394  0.98833  0.11559  1.0000
  C   C425      1.0  0.31249  0.96284  0.41692  1.0000
  H   H669      1.0  0.46408  0.69356  0.16745  1.0000
  H   H670      1.0  0.29394  0.67791  0.45639  1.0000
  H   H671      1.0  0.30365  0.96216  0.39151  1.0000
  H   H672      1.0  0.47605  0.93132  0.27100  1.0000
  H   H673      1.0  0.42257  0.71989  0.01928  1.0000
  C   C426      1.0  0.36368  0.98599  0.34610  1.0000
  C   C427      1.0  0.31619  0.78448  0.00058  1.0000
  H   H674      1.0  0.47462  0.67587  0.14594  1.0000
  H   H675      1.0  0.47205  0.96845  0.27731  1.0000
  H   H676      1.0  0.30598  0.93155  0.39922  1.0000
  N   N41       1.0  0.36058  0.83911  0.21780  1.0000
  C   C428      1.0  0.37058  0.82524  0.23561  1.0000
  C   C429      1.0  0.37028  0.85426  0.21617  1.0000
  C   C430      1.0  0.35584  0.83502  0.17578  1.0000
  H   H677      1.0  0.37419  0.82775  0.26757  1.0000
  H   H678      1.0  0.36370  0.81354  0.23660  1.0000
  H   H679      1.0  0.38207  0.82296  0.21707  1.0000
  H   H680      1.0  0.38177  0.85253  0.19730  1.0000
  H   H681      1.0  0.37393  0.85788  0.24736  1.0000
  H   H682      1.0  0.40544  0.74008  0.05916  1.0000
  C   C431      1.0  0.34557  0.84183  0.24349  1.0000
  H   H683      1.0  0.45701  0.94484  0.37014  1.0000
  H   H684      1.0  0.44980  0.67391  0.21574  1.0000
  H   H685      1.0  0.37225  0.96781  0.43876  1.0000
  H   H686      1.0  0.39724  0.97396  0.04611  1.0000
  H   H687      1.0  0.43275  0.69216  0.11838  1.0000
  H   H688      1.0  0.28926  0.76572  0.06810  1.0000
  H   H689      1.0  0.34220  0.96179  0.44914  1.0000
  H   H690      1.0  0.28806  0.74774  0.15474  1.0000
  H   H691      1.0  0.45792  0.78185  0.07904  1.0000
  H   H692      1.0  0.33807  0.83052  0.24532  1.0000
  H   H693      1.0  0.31313  0.73326  0.12728  1.0000
  H   H694      1.0  0.28468  0.76950  0.14415  1.0000
  C   C432      1.0  0.29432  0.75968  0.14984  1.0000
  H   H695      1.0  0.32903  0.94981  0.48217  1.0000
  N   N42       1.0  0.30649  0.75887  0.11545  1.0000
  C   C433      1.0  0.44530  0.81266  0.09212  1.0000
  H   H696      1.0  0.32833  0.74471  0.09859  1.0000
  H   H697      1.0  0.41664  0.80191  0.06620  1.0000
  H   H698      1.0  0.32111  0.77783  0.13980  1.0000
  N   N43       1.0  0.45956  0.94766  0.30444  1.0000
  C   C434      1.0  0.44494  0.93797  0.29650  1.0000
  H   H699      1.0  0.44998  0.96989  0.27474  1.0000
  H   H700      1.0  0.43572  0.82275  0.08831  1.0000
  H   H701      1.0  0.44599  0.93203  0.26608  1.0000
  H   H702      1.0  0.34020  0.95939  0.37223  1.0000
  C   C435      1.0  0.45789  0.95473  0.34582  1.0000
  H   H703      1.0  0.32547  0.74765  0.15284  1.0000
  H   H704      1.0  0.32522  0.94631  0.35189  1.0000
  H   H705      1.0  0.46353  0.69026  0.11314  1.0000
  C   C436      1.0  0.46086  0.96119  0.27326  1.0000
  C   C437      1.0  0.46329  0.68393  0.14388  1.0000
  H   H706      1.0  0.45941  0.78652  0.13260  1.0000
  H   H707      1.0  0.42069  0.78031  0.07802  1.0000
  H   H708      1.0  0.30767  0.93336  0.45385  1.0000
  C   C438      1.0  0.45069  0.78362  0.10815  1.0000
  H   H709      1.0  0.44654  0.96278  0.34854  1.0000
  N   N44       1.0  0.32411  0.94842  0.41775  1.0000
  H   H710      1.0  0.46156  0.95627  0.24162  1.0000
  C   C439      1.0  0.40036  0.98652  0.03773  1.0000
  C   C440      1.0  0.33562  0.94998  0.45182  1.0000
  H   H711      1.0  0.34507  0.93973  0.45240  1.0000
  H   H712      1.0  0.43322  0.79089  0.04054  1.0000
  C   C441      1.0  0.25272  0.68584  0.44885  1.0000
  C   C442      1.0  0.24724  0.67352  0.47672  1.0000
  C   C443      1.0  0.43366  0.68548  0.14872  1.0000
  S   S186      1.0  0.34818  0.99505  0.41919  1.0000
  S   S187      1.0  0.24954  0.76682  0.33966  1.0000
  C   C444      1.0  0.27544  0.66439  0.49027  1.0000
  S   S188      1.0  0.24856  0.72678  0.32235  1.0000
  H   H713      1.0  0.44685  0.66866  0.08579  1.0000
  H   H714      1.0  0.35602  0.99573  0.33240  1.0000
  S   S189      1.0  0.26261  0.73195  0.89988  1.0000
  S   S190      1.0  0.26298  0.75954  0.82438  1.0000
  Fe  Fe94      1.0  0.26054  0.73185  0.83086  1.0000
  S   S191      1.0  0.27672  0.71364  0.79425  1.0000
  Fe  Fe95      1.0  0.26259  0.75959  0.89378  1.0000
  S   S192      1.0  0.27565  0.77821  0.93211  1.0000
  C   C445      1.0  0.26755  0.67698  0.60115  1.0000
  Fe  Fe96      1.0  0.31060  0.97785  0.53743  1.0000
  S   S193      1.0  0.29911  0.95241  0.53104  1.0000
  S   S194      1.0  0.33842  0.97686  0.53618  1.0000
  H   H715      1.0  0.26292  0.84048  0.61142  1.0000
  H   H716      1.0  0.27150  0.69678  0.90320  1.0000
  C   C446      1.0  0.26919  0.95149  0.57531  1.0000
  C   C447      1.0  0.28112  0.94289  0.55185  1.0000
  C   C448      1.0  0.27865  0.92613  0.54375  1.0000
  C   C449      1.0  0.27048  0.80094  0.58162  1.0000
  H   H717      1.0  0.24589  0.95026  0.60824  1.0000
  H   H718      1.0  0.27084  0.96436  0.58180  1.0000
  C   C450      1.0  0.30076  0.78665  0.98195  1.0000
  C   C451      1.0  0.25953  0.80561  0.85538  1.0000
  N   N45       1.0  0.27801  0.69153  0.60246  1.0000
  H   H719      1.0  0.25802  0.70791  0.62102  1.0000
  C   C452      1.0  0.27718  0.67170  0.72789  1.0000
  C   C453      1.0  0.30475  0.76055  0.94805  1.0000
  C   C454      1.0  0.29498  0.77473  0.95552  1.0000
  C   C455      1.0  0.25501  0.94343  0.59024  1.0000
  C   C456      1.0  0.27047  0.70365  0.63109  1.0000
  H   H720      1.0  0.26081  0.80955  0.82248  1.0000
  H   H721      1.0  0.30051  0.75132  0.92766  1.0000
  C   C457      1.0  0.27950  0.69913  0.56076  1.0000
  H   H722      1.0  0.30276  0.69694  0.61831  1.0000
  C   C458      1.0  0.27007  0.69687  0.76548  1.0000
  C   C459      1.0  0.28191  0.68571  0.74897  1.0000
  H   H723      1.0  0.28229  0.83067  0.59753  1.0000
  H   H724      1.0  0.25932  0.81421  0.72956  1.0000
  H   H725      1.0  0.29484  0.68776  0.75314  1.0000
  H   H726      1.0  0.28644  0.66304  0.71610  1.0000
  H   H727      1.0  0.26287  0.90518  0.55239  1.0000
  H   H728      1.0  0.28776  0.91931  0.52572  1.0000
  C   C460      1.0  0.25037  0.83312  0.87387  1.0000
  H   H729      1.0  0.27070  0.82340  0.64182  1.0000
  H   H730      1.0  0.26242  0.83542  0.88788  1.0000
  C   C461      1.0  0.26267  0.68807  0.91786  1.0000
  H   H731      1.0  0.26910  0.69820  0.66276  1.0000
  C   C462      1.0  0.26052  0.66865  0.72335  1.0000
  H   H732      1.0  0.27403  0.67952  0.84331  1.0000
  H   H733      1.0  0.30056  0.67714  0.59574  1.0000
  H   H734      1.0  0.27810  0.71474  0.63326  1.0000
  H   H735      1.0  0.29332  0.79770  0.98773  1.0000
  C   C463      1.0  0.24867  0.67993  0.73931  1.0000
  C   C464      1.0  0.26453  0.91804  0.55891  1.0000
  H   H736      1.0  0.25763  0.81149  0.93596  1.0000
  H   H737      1.0  0.25919  0.66430  0.83394  1.0000
  C   C465      1.0  0.29453  0.68628  0.61682  1.0000
  H   H738      1.0  0.43768  0.97814  0.91299  1.0000
  N   N46       1.0  0.26103  0.81683  0.58362  1.0000
  C   C466      1.0  0.26967  0.82832  0.60963  1.0000
  H   H739      1.0  0.27171  0.80677  0.86984  1.0000
  C   C467      1.0  0.25257  0.92666  0.58224  1.0000
  H   H740      1.0  0.25144  0.83557  0.54154  1.0000
  H   H741      1.0  0.46724  0.98333  0.92295  1.0000
  H   H742      1.0  0.39002  0.98581  0.97722  1.0000
  H   H743      1.0  0.25139  0.70100  0.84770  1.0000
  H   H744      1.0  0.26426  0.79201  0.56210  1.0000
  C   C468      1.0  0.32023  0.75845  0.96638  1.0000
  H   H745      1.0  0.28677  0.71053  0.56072  1.0000
  H   H746      1.0  0.44867  0.97889  0.98388  1.0000
  H   H747      1.0  0.29389  0.68035  0.64807  1.0000
  H   H748      1.0  0.25508  0.68037  0.58968  1.0000
  H   H749      1.0  0.32777  0.74751  0.96005  1.0000
  C   C469      1.0  0.26552  0.67067  0.85877  1.0000
  N   N47       1.0  0.25364  0.67931  0.88655  1.0000
  H   H750      1.0  0.28303  0.80266  0.56821  1.0000
  C   C470      1.0  0.25341  0.69407  0.75989  1.0000
  H   H751      1.0  0.25397  0.81538  0.52052  1.0000
  H   H752      1.0  0.26605  0.67102  0.63211  1.0000
  H   H753      1.0  0.27162  0.82745  0.52812  1.0000
  H   H754      1.0  0.27182  0.79508  0.61277  1.0000
  H   H755      1.0  0.28585  0.69047  0.53909  1.0000
  H   H756      1.0  0.27302  0.66747  0.58046  1.0000
  H   H757      1.0  0.25410  0.69546  0.93802  1.0000
  C   C471      1.0  0.25946  0.82414  0.54167  1.0000
  H   H758      1.0  0.26725  0.70245  0.54777  1.0000
  H   H759      1.0  0.42240  0.99368  0.92599  1.0000
  H   H760      1.0  0.26987  0.67931  0.93790  1.0000
  C   C472      1.0  0.44572  0.99241  0.98319  1.0000
  H   H761      1.0  0.25081  0.78946  0.77055  1.0000
  H   H762      1.0  0.25680  0.79224  0.85647  1.0000
  H   H763      1.0  0.25107  0.83754  0.84114  1.0000
  C   C473      1.0  0.43528  0.99173  0.91439  1.0000
  C   C474      1.0  0.24641  0.81154  0.73293  1.0000
  N   N48       1.0  0.24651  0.81541  0.87695  1.0000
  C   C475      1.0  0.24567  0.81000  0.92070  1.0000
  C   C476      1.0  0.25854  0.66295  0.49770  1.0000
  C   C477      1.0  0.32605  0.77037  0.99268  1.0000
  H   H764      1.0  0.24524  0.80899  0.63389  1.0000
  Fe  Fe97      1.0  0.73002  0.25854  0.15927  1.0000
  S   S195      1.0  0.72773  0.23078  0.16070  1.0000
  S   S196      1.0  0.71565  0.27206  0.21011  1.0000
  Fe  Fe98      1.0  0.72836  0.23269  0.09145  1.0000
  S   S197      1.0  0.71512  0.21687  0.04636  1.0000
  S   S198      1.0  0.72806  0.26046  0.09021  1.0000
  Fe  Fe99      1.0  0.68311  0.01404  0.44331  1.0000
  S   S199      1.0  0.69298  0.04038  0.44295  1.0000
  S   S200      1.0  0.65586  0.01295  0.45880  1.0000
  H   H765      1.0  0.65288  0.19755  0.04235  1.0000
  H   H766      1.0  0.66606  0.17943  0.04083  1.0000
  C   C478      1.0  0.71183  0.04928  0.42608  1.0000
  C   C479      1.0  0.72389  0.04054  0.40337  1.0000
  C   C480      1.0  0.72917  0.07363  0.42214  1.0000
  C   C481      1.0  0.71461  0.06586  0.43537  1.0000
  H   H767      1.0  0.72198  0.02781  0.39585  1.0000
  H   H768      1.0  0.65018  0.18137  0.08005  1.0000
  C   C482      1.0  0.64136  0.15808  0.02895  1.0000
  H   H769      1.0  0.52015  0.00705  0.07880  1.0000
  C   C483      1.0  0.67655  0.32313  0.21778  1.0000
  H   H770      1.0  0.54314  0.00381  0.00263  1.0000
  C   C484      1.0  0.72080  0.29154  0.22892  1.0000
  C   C485      1.0  0.71301  0.29719  0.26519  1.0000
  C   C486      1.0  0.71645  0.31277  0.28069  1.0000
  H   H771      1.0  0.70427  0.28945  0.28139  1.0000
  C   C487      1.0  0.65316  0.18387  0.04698  1.0000
  C   C488      1.0  0.69505  0.22098  0.02799  1.0000
  H   H772      1.0  0.66696  0.31364  0.21751  1.0000
  C   C489      1.0  0.70899  0.31483  0.47906  1.0000
  C   C490      1.0  0.66738  0.23295  0.03524  1.0000
  C   C491      1.0  0.68363  0.23110  0.04906  1.0000
  H   H773      1.0  0.74397  0.24031  0.23209  1.0000
  C   C492      1.0  0.54816  0.00712  0.03278  1.0000
  H   H774      1.0  0.68723  0.23715  0.07659  1.0000
  H   H775      1.0  0.70391  0.28888  0.47606  1.0000
  H   H776      1.0  0.73303  0.26673  0.29342  1.0000
  H   H777      1.0  0.65851  0.24045  0.05241  1.0000
  H   H778      1.0  0.73003  0.12543  0.31559  1.0000
  H   H779      1.0  0.72708  0.23922  0.26803  1.0000
  H   H780      1.0  0.72910  0.12631  0.26083  1.0000
  H   H781      1.0  0.65380  0.15222  0.02408  1.0000
  C   C493      1.0  0.73224  0.30153  0.20854  1.0000
  C   C494      1.0  0.74055  0.23667  0.26419  1.0000
  C   C495      1.0  0.73556  0.31719  0.22383  1.0000
  C   C496      1.0  0.72759  0.32294  0.25975  1.0000
  H   H782      1.0  0.54603  0.01224  0.11446  1.0000
  C   C497      1.0  0.55073  0.99983  0.10490  1.0000
  H   H783      1.0  0.72621  0.08079  0.24967  1.0000
  H   H784      1.0  0.70305  0.31808  0.45043  1.0000
  H   H785      1.0  0.71052  0.31689  0.30885  1.0000
  H   H786      1.0  0.62445  0.19700  0.02031  1.0000
  N   N49       1.0  0.72978  0.10167  0.28749  1.0000
  C   C498      1.0  0.72254  0.09414  0.25149  1.0000
  H   H787      1.0  0.68826  0.31668  0.22685  1.0000
  H   H788      1.0  0.70886  0.09505  0.25307  1.0000
  H   H789      1.0  0.65939  0.32063  0.28938  1.0000
  C   C499      1.0  0.74112  0.06496  0.39888  1.0000
  H   H790      1.0  0.72952  0.09829  0.35326  1.0000
  H   H791      1.0  0.62059  0.18159  0.05961  1.0000
  H   H792      1.0  0.71044  0.09407  0.32953  1.0000
  H   H793      1.0  0.68073  0.32319  0.29953  1.0000
  C   C500      1.0  0.73837  0.04837  0.38969  1.0000
  C   C501      1.0  0.62478  0.18341  0.02707  1.0000
  H   H794      1.0  0.73106  0.08636  0.42960  1.0000
  H   H795      1.0  0.56439  0.00021  0.10244  1.0000
  C   C502      1.0  0.72471  0.11937  0.28879  1.0000
  H   H796      1.0  0.70539  0.07279  0.45283  1.0000
  H   H797      1.0  0.72666  0.10037  0.22229  1.0000
  N   N50       1.0  0.64145  0.17607  0.01990  1.0000
  H   H798      1.0  0.71112  0.12112  0.29120  1.0000
  S   S201      1.0  0.49575  0.30806  0.01035  1.0000
  H   H799      1.0  0.74425  0.32493  0.20747  1.0000
  C   C503      1.0  0.66249  0.22502  0.99981  1.0000
  H   H800      1.0  0.63744  0.15541  0.06139  1.0000
  C   C504      1.0  0.72404  0.09307  0.32555  1.0000
  H   H801      1.0  0.72767  0.07967  0.32558  1.0000
  H   H802      1.0  0.54354  0.01984  0.03993  1.0000
  H   H803      1.0  0.56178  0.00755  0.02850  1.0000
  H   H804      1.0  0.67840  0.32788  0.18564  1.0000
  H   H805      1.0  0.73836  0.29731  0.18064  1.0000
  H   H806      1.0  0.74258  0.16355  0.21885  1.0000
  H   H807      1.0  0.73217  0.24279  0.34266  1.0000
  H   H808      1.0  0.74297  0.22307  0.26732  1.0000
  H   H809      1.0  0.59975  0.01483  0.99629  1.0000
  H   H810      1.0  0.61562  0.17787  0.00705  1.0000
  H   H811      1.0  0.63276  0.15184  0.00863  1.0000
  H   H812      1.0  0.73232  0.24192  0.85316  1.0000
  S   S202      1.0  0.72925  0.23162  0.59932  1.0000
  S   S203      1.0  0.71615  0.27295  0.54917  1.0000
  Fe  Fe100     1.0  0.72989  0.23335  0.66829  1.0000
  S   S204      1.0  0.71661  0.21923  0.72003  1.0000
  S   S205      1.0  0.73000  0.26106  0.66665  1.0000
  Fe  Fe101     1.0  0.59836  0.21979  0.88277  1.0000
  S   S206      1.0  0.60841  0.20171  0.93065  1.0000
  S   S207      1.0  0.57181  0.22973  0.87747  1.0000
  Fe  Fe102     1.0  0.63109  0.21968  0.83405  1.0000
  S   S208      1.0  0.64364  0.20205  0.87842  1.0000
  S   S209      1.0  0.64168  0.23096  0.77510  1.0000
  Fe  Fe103     1.0  0.62020  0.18779  0.87787  1.0000
  S   S210      1.0  0.62512  0.15974  0.87599  1.0000
  Fe  Fe104     1.0  0.63100  0.21717  0.92741  1.0000
  C   C505      1.0  0.66517  0.17588  0.73418  1.0000
  S   S211      1.0  0.60851  0.20461  0.83002  1.0000
  S   S212      1.0  0.62014  0.23604  0.88295  1.0000
  C   C506      1.0  0.68510  0.05336  0.59662  1.0000
  H   H813      1.0  0.68697  0.01210  0.57898  1.0000
  C   C507      1.0  0.59450  0.00474  0.98040  1.0000
  Fe  Fe105     1.0  0.58798  0.03758  0.85024  1.0000
  S   S213      1.0  0.57923  0.02542  0.79310  1.0000
  S   S214      1.0  0.59461  0.02620  0.91328  1.0000
  Fe  Fe106     1.0  0.58379  0.07296  0.81378  1.0000
  S   S215      1.0  0.57483  0.06285  0.75498  1.0000
  S   S216      1.0  0.58021  0.10127  0.81777  1.0000
  Fe  Fe107     1.0  0.55946  0.04568  0.79343  1.0000
  S   S217      1.0  0.53338  0.04343  0.76982  1.0000
  Fe  Fe108     1.0  0.59534  0.04350  0.75788  1.0000
  S   S218      1.0  0.60725  0.04094  0.69278  1.0000
  S   S219      1.0  0.56717  0.05666  0.85217  1.0000
  S   S220      1.0  0.60535  0.05469  0.81510  1.0000
  Fe  Fe109     1.0  0.51235  0.30780  0.95367  1.0000
  S   S221      1.0  0.53758  0.29434  0.95619  1.0000
  C   C508      1.0  0.51465  0.04436  0.79920  1.0000
  H   H814      1.0  0.72923  0.28305  0.79937  1.0000
  C   C509      1.0  0.51442  0.04438  0.84221  1.0000
  H   H815      1.0  0.65835  0.17599  0.70489  1.0000
  H   H816      1.0  0.52587  0.04356  0.85853  1.0000
  C   C510      1.0  0.64101  0.00821  0.60825  1.0000
  H   H817      1.0  0.71262  0.24083  0.79669  1.0000
  C   C511      1.0  0.62887  0.01390  0.67682  1.0000
  C   C512      1.0  0.62055  0.02808  0.66142  1.0000
  C   C513      1.0  0.62248  0.03216  0.61918  1.0000
  C   C514      1.0  0.63252  0.02228  0.59276  1.0000
  N   N51       1.0  0.52997  0.09593  0.79929  1.0000
  H   H818      1.0  0.62761  0.01052  0.70911  1.0000
  H   H819      1.0  0.61608  0.04303  0.60668  1.0000
  H   H820      1.0  0.58413  0.00502  0.61417  1.0000
  H   H821      1.0  0.55320  0.09392  0.76675  1.0000
  H   H822      1.0  0.68549  0.06494  0.57738  1.0000
  H   H823      1.0  0.69605  0.02282  0.61997  1.0000
  C   C515      1.0  0.56210  0.24716  0.90161  1.0000
  C   C516      1.0  0.54604  0.25218  0.89042  1.0000
  C   C517      1.0  0.53822  0.26644  0.90702  1.0000
  C   C518      1.0  0.54642  0.27591  0.93504  1.0000
  C   C519      1.0  0.56244  0.27082  0.94635  1.0000
  C   C520      1.0  0.57020  0.25651  0.93001  1.0000
  H   H824      1.0  0.53961  0.24503  0.86862  1.0000
  H   H825      1.0  0.52590  0.27016  0.89804  1.0000
  H   H826      1.0  0.58248  0.25278  0.93934  1.0000
  C   C521      1.0  0.61243  0.14371  0.85936  1.0000
  C   C522      1.0  0.61852  0.12720  0.86113  1.0000
  C   C523      1.0  0.60894  0.11407  0.84845  1.0000
  C   C524      1.0  0.59308  0.11727  0.83376  1.0000
  C   C525      1.0  0.58705  0.13380  0.83173  1.0000
  C   C526      1.0  0.59663  0.14693  0.84438  1.0000
  H   H827      1.0  0.63070  0.12450  0.87265  1.0000
  H   H828      1.0  0.61378  0.10147  0.85029  1.0000
  H   H829      1.0  0.57484  0.13648  0.82040  1.0000
  H   H830      1.0  0.59173  0.15951  0.84276  1.0000
  C   C527      1.0  0.71566  0.32716  0.50226  1.0000
  C   C528      1.0  0.73735  0.27367  0.78395  1.0000
  C   C529      1.0  0.71697  0.29380  0.53108  1.0000
  C   C530      1.0  0.72405  0.30607  0.55377  1.0000
  C   C531      1.0  0.63906  0.00413  0.65048  1.0000
  H   H831      1.0  0.54503  0.11619  0.81392  1.0000
  C   C532      1.0  0.51250  0.09276  0.79199  1.0000
  H   H832      1.0  0.74323  0.24594  0.74210  1.0000
  H   H833      1.0  0.66084  0.03895  0.55798  1.0000
  C   C533      1.0  0.69578  0.22288  0.73477  1.0000
  C   C534      1.0  0.68991  0.21578  0.77194  1.0000
  C   C535      1.0  0.67347  0.21851  0.78511  1.0000
  C   C536      1.0  0.66266  0.22803  0.76069  1.0000
  C   C537      1.0  0.66854  0.23516  0.72359  1.0000
  C   C538      1.0  0.68508  0.23272  0.71080  1.0000
  H   H834      1.0  0.69818  0.20829  0.79085  1.0000
  H   H835      1.0  0.66920  0.21330  0.81416  1.0000
  H   H836      1.0  0.66027  0.24258  0.70452  1.0000
  H   H837      1.0  0.68947  0.23826  0.68213  1.0000
  N   N52       1.0  0.65464  0.17078  0.76962  1.0000
  C   C539      1.0  0.64860  0.15401  0.76335  1.0000
  C   C540      1.0  0.64046  0.18254  0.77350  1.0000
  C   C541      1.0  0.66426  0.17070  0.80766  1.0000
  H   H838      1.0  0.67615  0.16743  0.73056  1.0000
  H   H839      1.0  0.65894  0.14475  0.76024  1.0000
  H   H840      1.0  0.64064  0.14986  0.78981  1.0000
  H   H841      1.0  0.64113  0.15362  0.73516  1.0000
  H   H842      1.0  0.63209  0.17883  0.79940  1.0000
  H   H843      1.0  0.63309  0.18323  0.74507  1.0000
  H   H844      1.0  0.64450  0.19526  0.77926  1.0000
  H   H845      1.0  0.67499  0.16184  0.80597  1.0000
  H   H846      1.0  0.65660  0.16707  0.83505  1.0000
  H   H847      1.0  0.66905  0.18313  0.81331  1.0000
  N   N53       1.0  0.59109  0.26752  0.80218  1.0000
  C   C542      1.0  0.57304  0.26672  0.79891  1.0000
  C   C543      1.0  0.59893  0.25180  0.78841  1.0000
  C   C544      1.0  0.59531  0.27016  0.84542  1.0000
  C   C545      1.0  0.59712  0.28136  0.77611  1.0000
  H   H848      1.0  0.56663  0.27808  0.81065  1.0000
  H   H849      1.0  0.56819  0.25608  0.81727  1.0000
  H   H850      1.0  0.56935  0.26514  0.76657  1.0000
  H   H851      1.0  0.61254  0.25185  0.79115  1.0000
  H   H852      1.0  0.59448  0.24108  0.80723  1.0000
  H   H853      1.0  0.59623  0.24944  0.75575  1.0000
  H   H854      1.0  0.60878  0.27149  0.84889  1.0000
  H   H855      1.0  0.59170  0.25950  0.86542  1.0000
  H   H856      1.0  0.58888  0.28137  0.85789  1.0000
  H   H857      1.0  0.59410  0.27981  0.74325  1.0000
  H   H858      1.0  0.61073  0.28218  0.77771  1.0000
  H   H859      1.0  0.59154  0.29341  0.78601  1.0000
  H   H860      1.0  0.67326  0.05363  0.61449  1.0000
  H   H861      1.0  0.52467  0.11713  0.83638  1.0000
  C   C546      1.0  0.53564  0.08560  0.83462  1.0000
  H   H862      1.0  0.69896  0.20526  0.97597  1.0000
  H   H863      1.0  0.54717  0.00499  0.63986  1.0000
  H   H864      1.0  0.73602  0.27555  0.75011  1.0000
  S   S222      1.0  0.69066  0.99630  0.49461  1.0000
  N   N54       1.0  0.68666  0.03858  0.57090  1.0000
  C   C547      1.0  0.70251  0.03866  0.54773  1.0000
  C   C548      1.0  0.56252  0.02530  0.68925  1.0000
  H   H865      1.0  0.55327  0.03197  0.66974  1.0000
  C   C549      1.0  0.68595  0.02350  0.59746  1.0000
  C   C550      1.0  0.73525  0.25467  0.84220  1.0000
  H   H866      1.0  0.70396  0.02778  0.52753  1.0000
  H   H867      1.0  0.50773  0.10038  0.76564  1.0000
  H   H868      1.0  0.72693  0.26342  0.85928  1.0000
  C   C551      1.0  0.71610  0.25353  0.78682  1.0000
  C   C552      1.0  0.58191  0.00219  0.69605  1.0000
  H   H869      1.0  0.54863  0.08808  0.84184  1.0000
  H   H870      1.0  0.74162  0.23171  0.78464  1.0000
  N   N55       1.0  0.56975  0.01057  0.66882  1.0000
  C   C553      1.0  0.49959  0.04530  0.77864  1.0000
  H   H871      1.0  0.63363  0.02554  0.56038  1.0000
  H   H872      1.0  0.69524  0.05362  0.61897  1.0000
  C   C554      1.0  0.59054  0.00693  0.93862  1.0000
  H   H873      1.0  0.58756  0.02482  0.63501  1.0000
  C   C555      1.0  0.57795  0.01571  0.62974  1.0000
  H   H874      1.0  0.53601  0.09924  0.73490  1.0000
  C   C556      1.0  0.72323  0.32270  0.53960  1.0000
  H   H875      1.0  0.66972  0.18860  0.73783  1.0000
  H   H876      1.0  0.49960  0.04528  0.74538  1.0000
  Fe  Fe110     1.0  0.73174  0.25939  0.59767  1.0000
  H   H877      1.0  0.53499  0.07222  0.82816  1.0000
  C   C557      1.0  0.53993  0.09171  0.76224  1.0000
  H   H878      1.0  0.53891  0.07845  0.75469  1.0000
  H   H879      1.0  0.55625  0.02194  0.71894  1.0000
  H   H880      1.0  0.59191  0.01057  0.70361  1.0000
  H   H881      1.0  0.52778  0.12176  0.78236  1.0000
  H   H882      1.0  0.72975  0.30280  0.58270  1.0000
  H   H883      1.0  0.70339  0.04983  0.52713  1.0000
  H   H884      1.0  0.49929  0.04498  0.89755  1.0000
  H   H885      1.0  0.56887  0.27799  0.96815  1.0000
  C   C558      1.0  0.53189  0.11355  0.80837  1.0000
  C   C559      1.0  0.67403  0.21527  0.97803  1.0000
  H   H886      1.0  0.67049  0.20917  0.95059  1.0000
  C   C560      1.0  0.67301  0.03882  0.54172  1.0000
  H   H887      1.0  0.71315  0.03839  0.56860  1.0000
  H   H888      1.0  0.57213  0.03426  0.69606  1.0000
  H   H889      1.0  0.67336  0.04977  0.52028  1.0000
  H   H890      1.0  0.65911  0.17385  0.96989  1.0000
  N   N56       1.0  0.73329  0.25666  0.79726  1.0000
  H   H891      1.0  0.52807  0.08798  0.86286  1.0000
  C   C561      1.0  0.74445  0.24473  0.77598  1.0000
  H   H892      1.0  0.67406  0.02296  0.61504  1.0000
  H   H893      1.0  0.64646  0.19236  0.96850  1.0000
  H   H894      1.0  0.51080  0.07954  0.78482  1.0000
  H   H895      1.0  0.56908  0.02169  0.60798  1.0000
  H   H896      1.0  0.67369  0.02770  0.52245  1.0000
  H   H897      1.0  0.50462  0.09553  0.81954  1.0000
  C   C562      1.0  0.55659  0.99906  0.66028  1.0000
  H   H898      1.0  0.70727  0.26241  0.80179  1.0000
  H   H899      1.0  0.63797  0.17312  0.95509  1.0000
  C   C563      1.0  0.64648  0.17893  0.97643  1.0000
  C   C564      1.0  0.49931  0.04516  0.86428  1.0000
  C   C565      1.0  0.70948  0.29828  0.49367  1.0000
  H   H900      1.0  0.71425  0.25458  0.75299  1.0000
  H   H901      1.0  0.57614  0.99803  0.72573  1.0000
  C   C566      1.0  0.69017  0.21310  0.99241  1.0000
  S   S223      1.0  0.64147  0.22615  0.98662  1.0000
  Fe  Fe111     1.0  0.70848  0.35707  0.42142  1.0000
  S   S224      1.0  0.73105  0.36372  0.38432  1.0000
  H   H902      1.0  0.61101  0.46912  0.29590  1.0000
  Fe  Fe112     1.0  0.68459  0.37162  0.35695  1.0000
  S   S225      1.0  0.70589  0.37961  0.31660  1.0000
  S   S226      1.0  0.66005  0.37574  0.32348  1.0000
  Fe  Fe113     1.0  0.71744  0.35463  0.33049  1.0000
  S   S227      1.0  0.73150  0.34305  0.27680  1.0000
  Fe  Fe114     1.0  0.71803  0.38815  0.37328  1.0000
  S   S228      1.0  0.72973  0.41354  0.37273  1.0000
  S   S229      1.0  0.69574  0.34587  0.36813  1.0000
  S   S230      1.0  0.69584  0.38224  0.41300  1.0000
  H   H903      1.0  0.60122  0.47605  0.34285  1.0000
  H   H904      1.0  0.62412  0.44513  0.33405  1.0000
  Fe  Fe115     1.0  0.56379  0.40591  0.32244  1.0000
  S   S231      1.0  0.56451  0.41642  0.25801  1.0000
  S   S232      1.0  0.58530  0.39881  0.36469  1.0000
  Fe  Fe116     1.0  0.52627  0.41158  0.32973  1.0000
  S   S233      1.0  0.52461  0.42289  0.26535  1.0000
  H   H905      1.0  0.58554  0.44417  0.27575  1.0000
  Fe  Fe117     1.0  0.54182  0.40188  0.24602  1.0000
  S   S234      1.0  0.54220  0.38618  0.18727  1.0000
  Fe  Fe118     1.0  0.54729  0.43657  0.28203  1.0000
  S   S235      1.0  0.55445  0.46301  0.26385  1.0000
  S   S236      1.0  0.54241  0.38993  0.30959  1.0000
  S   S237      1.0  0.54754  0.42671  0.34712  1.0000
  Fe  Fe119     1.0  0.53180  0.58696  0.39766  1.0000
  S   S238      1.0  0.55292  0.57105  0.42032  1.0000
  S   S239      1.0  0.51004  0.59739  0.43558  1.0000
  Fe  Fe120     1.0  0.54621  0.58887  0.30905  1.0000
  S   S240      1.0  0.56871  0.57306  0.32657  1.0000
  S   S241      1.0  0.54442  0.59756  0.24126  1.0000
  Fe  Fe121     1.0  0.55061  0.55704  0.36153  1.0000
  S   S242      1.0  0.54831  0.52890  0.36882  1.0000
  Fe  Fe122     1.0  0.56935  0.58830  0.38392  1.0000
  S   S243      1.0  0.58895  0.60275  0.41701  1.0000
  S   S244      1.0  0.52829  0.57205  0.34131  1.0000
  S   S245      1.0  0.54807  0.60497  0.36371  1.0000
  C   C567      1.0  0.55583  0.36612  0.41128  1.0000
  S   S246      1.0  0.71204  0.60969  0.41451  1.0000
  H   H906      1.0  0.55405  0.54335  0.23336  1.0000
  Fe  Fe123     1.0  0.71354  0.63733  0.41280  1.0000
  S   S247      1.0  0.71745  0.64838  0.34874  1.0000
  H   H907      1.0  0.50980  0.53523  0.25617  1.0000
  C   C568      1.0  0.51772  0.56518  0.22693  1.0000
  C   C569      1.0  0.61090  0.60146  0.41974  1.0000
  C   C570      1.0  0.62047  0.58921  0.40007  1.0000
  C   C571      1.0  0.63777  0.58864  0.40367  1.0000
  C   C572      1.0  0.64582  0.60031  0.42682  1.0000
  C   C573      1.0  0.63626  0.61264  0.44629  1.0000
  C   C574      1.0  0.61896  0.61318  0.44275  1.0000
  H   H908      1.0  0.61454  0.58008  0.38233  1.0000
  H   H909      1.0  0.64218  0.62168  0.46433  1.0000
  H   H910      1.0  0.65898  0.63743  0.39922  1.0000
  C   C575      1.0  0.55252  0.48123  0.29340  1.0000
  C   C576      1.0  0.54566  0.48111  0.33320  1.0000
  C   C577      1.0  0.54454  0.49581  0.35565  1.0000
  C   C578      1.0  0.55020  0.51083  0.33872  1.0000
  C   C579      1.0  0.55725  0.51091  0.29908  1.0000
  C   C580      1.0  0.55836  0.49620  0.27656  1.0000
  H   H911      1.0  0.54108  0.46974  0.34662  1.0000
  H   H912      1.0  0.53912  0.49559  0.38635  1.0000
  H   H913      1.0  0.56201  0.52224  0.28606  1.0000
  H   H914      1.0  0.56383  0.49640  0.24594  1.0000
  H   H915      1.0  0.58908  0.47240  0.29883  1.0000
  C   C581      1.0  0.52451  0.35927  0.09335  1.0000
  C   C582      1.0  0.53482  0.36672  0.12159  1.0000
  C   C583      1.0  0.52834  0.37705  0.15273  1.0000
  C   C584      1.0  0.51126  0.37987  0.15487  1.0000
  H   H916      1.0  0.60734  0.44023  0.27349  1.0000
  H   H917      1.0  0.52982  0.35125  0.07015  1.0000
  H   H918      1.0  0.54797  0.36436  0.11951  1.0000
  S   S248      1.0  0.66777  0.59905  0.42921  1.0000
  C   C585      1.0  0.67877  0.62538  0.34016  1.0000
  C   C586      1.0  0.54558  0.55440  0.23371  1.0000
  H   H919      1.0  0.59450  0.42675  0.30370  1.0000
  C   C587      1.0  0.50856  0.63268  0.16866  1.0000
  H   H920      1.0  0.68207  0.35910  0.26656  1.0000
  C   C588      1.0  0.51545  0.61695  0.23220  1.0000
  C   C589      1.0  0.53052  0.61156  0.21484  1.0000
  C   C590      1.0  0.53450  0.61681  0.17427  1.0000
  C   C591      1.0  0.52370  0.62738  0.15147  1.0000
  C   C592      1.0  0.68525  0.34861  0.24607  1.0000
  H   H921      1.0  0.51211  0.61303  0.26323  1.0000
  H   H922      1.0  0.54608  0.61273  0.16037  1.0000
  N   N57       1.0  0.52840  0.55002  0.22665  1.0000
  C   C593      1.0  0.50733  0.41855  0.44723  1.0000
  H   H923      1.0  0.71975  0.40745  0.46008  1.0000
  Fe  Fe124     1.0  0.72634  0.60984  0.47259  1.0000
  C   C594      1.0  0.63951  0.38281  0.33588  1.0000
  C   C595      1.0  0.62821  0.38518  0.30387  1.0000
  C   C596      1.0  0.61169  0.39026  0.31195  1.0000
  C   C597      1.0  0.60616  0.39292  0.35236  1.0000
  C   C598      1.0  0.61749  0.39072  0.38436  1.0000
  C   C599      1.0  0.63405  0.38575  0.37623  1.0000
  H   H924      1.0  0.63223  0.38297  0.27251  1.0000
  H   H925      1.0  0.60319  0.39183  0.28694  1.0000
  H   H926      1.0  0.61341  0.39273  0.41577  1.0000
  H   H927      1.0  0.64251  0.38397  0.40126  1.0000
  H   H928      1.0  0.68465  0.62564  0.37059  1.0000
  H   H929      1.0  0.67313  0.61307  0.33836  1.0000
  C   C600      1.0  0.54448  0.37016  0.47972  1.0000
  C   C601      1.0  0.58330  0.44923  0.35727  1.0000
  H   H930      1.0  0.55566  0.37017  0.37833  1.0000
  H   H931      1.0  0.56861  0.36777  0.42172  1.0000
  H   H932      1.0  0.53033  0.52653  0.25914  1.0000
  S   S249      1.0  0.72989  0.63742  0.46745  1.0000
  H   H933      1.0  0.54622  0.39821  0.40066  1.0000
  H   H934      1.0  0.52160  0.57429  0.20259  1.0000
  N   N58       1.0  0.66641  0.63905  0.33537  1.0000
  H   H935      1.0  0.54089  0.59589  0.47778  1.0000
  C   C602      1.0  0.50227  0.42100  0.48850  1.0000
  C   C603      1.0  0.52291  0.53833  0.25948  1.0000
  H   H936      1.0  0.66816  0.63929  0.26937  1.0000
  H   H937      1.0  0.64935  0.64828  0.29013  1.0000
  H   H938      1.0  0.68776  0.35389  0.21473  1.0000
  H   H939      1.0  0.74090  0.53705  0.45548  1.0000
  H   H940      1.0  0.51465  0.53871  0.17994  1.0000
  H   H941      1.0  0.53674  0.62229  0.44056  1.0000
  H   H942      1.0  0.73283  0.37966  0.46110  1.0000
  H   H943      1.0  0.53154  0.55070  0.16089  1.0000
  H   H944      1.0  0.65264  0.62621  0.29131  1.0000
  C   C604      1.0  0.65359  0.63750  0.36803  1.0000
  C   C605      1.0  0.59999  0.46774  0.31640  1.0000
  C   C606      1.0  0.61270  0.44449  0.35344  1.0000
  S   S250      1.0  0.50333  0.40593  0.36911  1.0000
  H   H945      1.0  0.56031  0.39569  0.44192  1.0000
  S   S251      1.0  0.69013  0.64178  0.44934  1.0000
  Fe  Fe125     1.0  0.68897  0.61405  0.45323  1.0000
  C   C607      1.0  0.59630  0.43991  0.29425  1.0000
  H   H946      1.0  0.61441  0.45201  0.38110  1.0000
  H   H947      1.0  0.61154  0.43135  0.36410  1.0000
  H   H948      1.0  0.68052  0.65608  0.36871  1.0000
  C   C608      1.0  0.50095  0.37252  0.12641  1.0000
  N   N59       1.0  0.59810  0.45036  0.33035  1.0000
  C   C609      1.0  0.49715  0.41052  0.42057  1.0000
  H   H949      1.0  0.51751  0.38074  0.43861  1.0000
  H   H950      1.0  0.51907  0.42288  0.43604  1.0000
  H   H951      1.0  0.58152  0.43628  0.36855  1.0000
  H   H952      1.0  0.55869  0.62417  0.43805  1.0000
  H   H953      1.0  0.51932  0.36652  0.00357  1.0000
  C   C610      1.0  0.52696  0.37338  0.42097  1.0000
  S   S252      1.0  0.51617  0.65817  0.02852  1.0000
  H   H954      1.0  0.74095  0.44661  0.37896  1.0000
  C   C611      1.0  0.54748  0.39347  0.43280  1.0000
  H   H955      1.0  0.52702  0.63130  0.12043  1.0000
  H   H956      1.0  0.57204  0.45341  0.34059  1.0000
  H   H957      1.0  0.73518  0.39933  0.28717  1.0000
  H   H958      1.0  0.52355  0.36019  0.42328  1.0000
  H   H959      1.0  0.65807  0.35066  0.20086  1.0000
  H   H960      1.0  0.68882  0.62619  0.31648  1.0000
  N   N60       1.0  0.54369  0.37576  0.43618  1.0000
  H   H961      1.0  0.58409  0.45711  0.38462  1.0000
  H   H962      1.0  0.64497  0.57903  0.38846  1.0000
  H   H963      1.0  0.50600  0.38777  0.17839  1.0000
  H   H964      1.0  0.51831  0.57161  0.25664  1.0000
  C   C612      1.0  0.54744  0.62693  0.45716  1.0000
  H   H965      1.0  0.55005  0.56347  0.20999  1.0000
  H   H966      1.0  0.73222  0.56664  0.46185  1.0000
  H   H967      1.0  0.53540  0.53073  0.18494  1.0000
  C   C613      1.0  0.50745  0.36212  0.09548  1.0000
  H   H968      1.0  0.65275  0.35529  0.25327  1.0000
  C   C614      1.0  0.65880  0.63818  0.29469  1.0000
  C   C615      1.0  0.52745  0.54218  0.18628  1.0000
  H   H969      1.0  0.54674  0.56028  0.26397  1.0000
  H   H970      1.0  0.52587  0.37744  0.38813  1.0000
  C   C616      1.0  0.50320  0.39619  0.00553  1.0000
  H   H971      1.0  0.61174  0.62273  0.45818  1.0000
  H   H972      1.0  0.52418  0.54349  0.29060  1.0000
  H   H973      1.0  0.69692  0.34274  0.25715  1.0000
  H   H974      1.0  0.53901  0.40107  0.45249  1.0000
  H   H975      1.0  0.64425  0.64783  0.36632  1.0000
  H   H976      1.0  0.50463  0.56243  0.22196  1.0000
  C   C617      1.0  0.65658  0.34510  0.23233  1.0000
  C   C618      1.0  0.50453  0.62733  0.20915  1.0000
  H   H977      1.0  0.56274  0.59787  0.47813  1.0000
  H   H978      1.0  0.55336  0.35268  0.41280  1.0000
  H   H979      1.0  0.64700  0.62573  0.36571  1.0000
  H   H980      1.0  0.68428  0.65659  0.31443  1.0000
  C   C619      1.0  0.73992  0.38305  0.48822  1.0000
  C   C620      1.0  0.50326  0.59137  0.48603  1.0000
  C   C621      1.0  0.67448  0.65506  0.33857  1.0000
  H   H981      1.0  0.54178  0.35680  0.48341  1.0000
  S   S253      1.0  0.71406  0.34835  0.48678  1.0000
  C   C622      1.0  0.74457  0.56256  0.46982  1.0000
  H   H982      1.0  0.49909  0.38749  0.03051  1.0000
  H   H983      1.0  0.66596  0.33959  0.31024  1.0000
  N   N61       1.0  0.67194  0.33662  0.24605  1.0000
  C   C623      1.0  0.72703  0.41034  0.48745  1.0000
  H   H984      1.0  0.55689  0.37196  0.49231  1.0000
  H   H985      1.0  0.54580  0.64059  0.45856  1.0000
  H   H986      1.0  0.73853  0.41609  0.47579  1.0000
  H   H987      1.0  0.51308  0.40359  0.01834  1.0000
  H   H988      1.0  0.64626  0.33642  0.23186  1.0000
  Fe  Fe126     1.0  0.49589  0.33586  0.00485  1.0000
  Fe  Fe127     1.0  0.49714  0.66000  0.07930  1.0000
  C   C624      1.0  0.66940  0.32969  0.28813  1.0000
  H   H989      1.0  0.74195  0.39972  0.23427  1.0000
  C   C625      1.0  0.74264  0.39243  0.26368  1.0000
  H   H990      1.0  0.73663  0.38045  0.25908  1.0000
  H   H991      1.0  0.53329  0.38281  0.99305  1.0000
  H   H992      1.0  0.56420  0.62004  0.55104  1.0000
  H   H993      1.0  0.74344  0.38863  0.56836  1.0000
  S   S254      1.0  0.70277  0.65568  0.56175  1.0000
  C   C626      1.0  0.53333  0.62277  0.52251  1.0000
  H   H994      1.0  0.55604  0.65203  0.94703  1.0000
  N   N62       1.0  0.73060  0.39534  0.51307  1.0000
  Fe  Fe128     1.0  0.49547  0.66070  0.98315  1.0000
  H   H995      1.0  0.53393  0.65633  0.87280  1.0000
  H   H996      1.0  0.74246  0.37136  0.50618  1.0000
  H   H997      1.0  0.52242  0.61817  0.50672  1.0000
  C   C627      1.0  0.52307  0.37596  0.97998  1.0000
  Fe  Fe129     1.0  0.70643  0.63967  0.50488  1.0000
  H   H998      1.0  0.51445  0.56825  0.57062  1.0000
  H   H999      1.0  0.73365  0.60237  0.57800  1.0000
  H   H1000     1.0  0.72517  0.64184  0.62964  1.0000
  H   H1001     1.0  0.51872  0.39256  0.90803  1.0000
  C   C628      1.0  0.51227  0.58003  0.51056  1.0000
  H   H1002     1.0  0.53394  0.65290  0.94848  1.0000
  C   C629      1.0  0.50723  0.57679  0.55168  1.0000
  S   S255      1.0  0.70334  0.61204  0.51222  1.0000
  N   N63       1.0  0.50908  0.38718  0.96877  1.0000
  H   H1003     1.0  0.55604  0.65565  0.87129  1.0000
  H   H1004     1.0  0.49967  0.37025  0.92581  1.0000
  H   H1005     1.0  0.71987  0.41987  0.50499  1.0000
  H   H1006     1.0  0.51033  0.42705  0.50896  1.0000
  H   H1007     1.0  0.52317  0.57384  0.49807  1.0000
  S   S256      1.0  0.51358  0.33564  0.95083  1.0000
  H   H1008     1.0  0.49648  0.37009  0.77468  1.0000
  C   C630      1.0  0.74049  0.39971  0.54853  1.0000
  C   C631      1.0  0.56286  0.62575  0.51974  1.0000
  H   H1009     1.0  0.56154  0.63938  0.52299  1.0000
  H   H1010     1.0  0.52808  0.36920  0.95282  1.0000
  C   C632      1.0  0.49560  0.37743  0.95320  1.0000
  H   H1011     1.0  0.70762  0.39703  0.54714  1.0000
  H   H1012     1.0  0.53355  0.61667  0.55358  1.0000
  H   H1013     1.0  0.71812  0.61734  0.59367  1.0000
  H   H1014     1.0  0.52473  0.40653  0.94673  1.0000
  H   H1015     1.0  0.50447  0.62789  0.84854  1.0000
  H   H1016     1.0  0.57455  0.62312  0.50217  1.0000
  C   C633      1.0  0.71500  0.38821  0.52798  1.0000
  H   H1017     1.0  0.70727  0.38476  0.50192  1.0000
  H   H1018     1.0  0.73559  0.62992  0.66885  1.0000
  H   H1019     1.0  0.72797  0.60419  0.63161  1.0000
  N   N64       1.0  0.54867  0.61917  0.49867  1.0000
  C   C634      1.0  0.54507  0.66057  0.94853  1.0000
  N   N65       1.0  0.74281  0.62375  0.60685  1.0000
  H   H1020     1.0  0.53120  0.63628  0.52649  1.0000
  H   H1021     1.0  0.72838  0.33215  0.55785  1.0000
  H   H1022     1.0  0.55140  0.59466  0.52560  1.0000
  C   C635      1.0  0.73010  0.61132  0.60242  1.0000
  C   C636      1.0  0.51444  0.39907  0.93632  1.0000
  H   H1023     1.0  0.50419  0.40777  0.92724  1.0000
  H   H1024     1.0  0.71724  0.37665  0.54672  1.0000
  H   H1025     1.0  0.73388  0.63820  0.55563  1.0000
  S   S257      1.0  0.49884  0.64564  0.92369  1.0000
  C   C637      1.0  0.73722  0.63586  0.63790  1.0000
  H   H1026     1.0  0.73383  0.40897  0.56801  1.0000
  H   H1027     1.0  0.53537  0.37716  0.49922  1.0000
  C   C638      1.0  0.55106  0.60110  0.49498  1.0000
  Fe  Fe130     1.0  0.73559  0.75470  0.18268  1.0000
  Fe  Fe131     1.0  0.61947  0.80467  0.01684  1.0000
  S   S258      1.0  0.72244  0.76613  0.12759  1.0000
  S   S259      1.0  0.63277  0.98543  0.37819  1.0000
  C   C639      1.0  0.72163  0.69733  0.36965  1.0000
  C   C640      1.0  0.52550  0.99473  0.07046  1.0000
  C   C641      1.0  0.62873  0.97786  0.32823  1.0000
  C   C642      1.0  0.74217  0.91710  0.48652  1.0000
  Fe  Fe132     1.0  0.58035  0.91739  0.12679  1.0000
  S   S260      1.0  0.60164  0.93306  0.10779  1.0000
  S   S261      1.0  0.57791  0.88932  0.12069  1.0000
  Fe  Fe133     1.0  0.55810  0.94796  0.14711  1.0000
  S   S262      1.0  0.57831  0.96559  0.12994  1.0000
  S   S263      1.0  0.53269  0.96040  0.15849  1.0000
  Fe  Fe134     1.0  0.58320  0.94981  0.07484  1.0000
  H   H1028     1.0  0.49600  0.91370  0.18729  1.0000
  Fe  Fe135     1.0  0.59523  0.94782  0.16486  1.0000
  S   S264      1.0  0.61745  0.95613  0.20129  1.0000
  S   S265      1.0  0.56229  0.93318  0.09053  1.0000
  S   S266      1.0  0.57471  0.93111  0.18573  1.0000
  Fe  Fe136     1.0  0.63417  0.77177  0.04921  1.0000
  S   S267      1.0  0.64558  0.76042  0.10642  1.0000
  H   H1029     1.0  0.65036  0.82496  0.07839  1.0000
  H   H1030     1.0  0.64042  0.84005  0.11040  1.0000
  S   S268      1.0  0.60852  0.78319  0.05236  1.0000
  H   H1031     1.0  0.73984  0.81827  0.32667  1.0000
  S   S269      1.0  0.66107  0.97297  0.46772  1.0000
  S   S270      1.0  0.73598  0.72763  0.20010  1.0000
  Fe  Fe137     1.0  0.68764  0.97608  0.44912  1.0000
  S   S271      1.0  0.70292  0.95305  0.42968  1.0000
  C   C643      1.0  0.72370  0.73292  0.99454  1.0000
  C   C644      1.0  0.71796  0.93945  0.45287  1.0000
  C   C645      1.0  0.72419  0.92585  0.43052  1.0000
  H   H1032     1.0  0.57339  0.70864  0.04896  1.0000
  S   S272      1.0  0.72646  0.72554  0.32326  1.0000
  H   H1033     1.0  0.66554  0.66569  0.33537  1.0000
  C   C646      1.0  0.62122  0.96464  0.25043  1.0000
  C   C647      1.0  0.60895  0.96654  0.28097  1.0000
  S   S273      1.0  0.73531  0.76330  0.24816  1.0000
  C   C648      1.0  0.55250  0.71484  0.01127  1.0000
  C   C649      1.0  0.64096  0.97611  0.29756  1.0000
  C   C650      1.0  0.63725  0.96945  0.25917  1.0000
  H   H1034     1.0  0.72279  0.76217  0.03034  1.0000
  C   C651      1.0  0.61270  0.97308  0.31949  1.0000
  H   H1035     1.0  0.54558  0.97464  0.02441  1.0000
  C   C652      1.0  0.56825  0.71739  0.02663  1.0000
  C   C653      1.0  0.59041  0.87337  0.09775  1.0000
  C   C654      1.0  0.60631  0.87607  0.08227  1.0000
  C   C655      1.0  0.61524  0.86337  0.06179  1.0000
  C   C656      1.0  0.60858  0.84770  0.05711  1.0000
  C   C657      1.0  0.59288  0.84484  0.07357  1.0000
  C   C658      1.0  0.58385  0.85762  0.09361  1.0000
  H   H1036     1.0  0.61174  0.88793  0.08607  1.0000
  H   H1037     1.0  0.58120  0.88085  0.01742  1.0000
  H   H1038     1.0  0.58755  0.83288  0.07029  1.0000
  H   H1039     1.0  0.57160  0.85534  0.10559  1.0000
  C   C659      1.0  0.51222  0.93379  0.17345  1.0000
  C   C660      1.0  0.51339  0.95078  0.16534  1.0000
  H   H1040     1.0  0.60307  0.97440  0.34277  1.0000
  H   H1041     1.0  0.52330  0.92605  0.17501  1.0000
  Fe  Fe138     1.0  0.65538  0.99128  0.41620  1.0000
  C   C661      1.0  0.71917  0.66994  0.34220  1.0000
  H   H1042     1.0  0.59197  0.90628  0.05062  1.0000
  H   H1043     1.0  0.59552  0.98802  0.03345  1.0000
  H   H1044     1.0  0.60893  0.90516  0.01442  1.0000
  C   C662      1.0  0.72324  0.70419  0.32972  1.0000
  C   C663      1.0  0.72243  0.69392  0.29596  1.0000
  C   C664      1.0  0.72035  0.67684  0.30223  1.0000
  S   S274      1.0  0.54204  0.69661  0.02743  1.0000
  C   C665      1.0  0.71968  0.68024  0.37592  1.0000
  H   H1045     1.0  0.74082  0.90436  0.42953  1.0000
  H   H1046     1.0  0.72331  0.69918  0.26511  1.0000
  H   H1047     1.0  0.59657  0.96294  0.27496  1.0000
  C   C666      1.0  0.55005  0.97846  0.05469  1.0000
  H   H1048     1.0  0.66147  0.83357  0.11942  1.0000
  C   C667      1.0  0.70112  0.76411  0.12237  1.0000
  C   C668      1.0  0.69361  0.77091  0.08714  1.0000
  C   C669      1.0  0.67671  0.76931  0.08136  1.0000
  C   C670      1.0  0.66707  0.76135  0.11142  1.0000
  C   C671      1.0  0.67454  0.75464  0.14685  1.0000
  C   C672      1.0  0.69157  0.75590  0.15222  1.0000
  H   H1049     1.0  0.70085  0.77755  0.06433  1.0000
  H   H1050     1.0  0.67115  0.77442  0.05385  1.0000
  H   H1051     1.0  0.66715  0.74846  0.17027  1.0000
  H   H1052     1.0  0.69726  0.75064  0.17955  1.0000
  N   N66       1.0  0.66218  0.93581  0.37144  1.0000
  C   C673      1.0  0.64473  0.94090  0.37810  1.0000
  C   C674      1.0  0.66342  0.92281  0.34033  1.0000
  C   C675      1.0  0.66908  0.92934  0.41057  1.0000
  C   C676      1.0  0.67151  0.95023  0.35665  1.0000
  H   H1053     1.0  0.64336  0.95106  0.40054  1.0000
  H   H1054     1.0  0.63732  0.93045  0.39010  1.0000
  H   H1055     1.0  0.63907  0.94555  0.34900  1.0000
  H   H1056     1.0  0.67646  0.91881  0.33439  1.0000
  H   H1057     1.0  0.65656  0.91171  0.35051  1.0000
  H   H1058     1.0  0.65825  0.92733  0.31048  1.0000
  H   H1059     1.0  0.66859  0.93897  0.43446  1.0000
  H   H1060     1.0  0.68225  0.92539  0.40666  1.0000
  H   H1061     1.0  0.66228  0.91855  0.42301  1.0000
  H   H1062     1.0  0.68489  0.94708  0.35312  1.0000
  H   H1063     1.0  0.67028  0.96053  0.37861  1.0000
  H   H1064     1.0  0.66709  0.95504  0.32642  1.0000
  H   H1065     1.0  0.73921  0.81612  0.47362  1.0000
  N   N67       1.0  0.54359  0.99506  0.06569  1.0000
  Fe  Fe139     1.0  0.51604  0.68613  0.02755  1.0000
  S   S275      1.0  0.62041  0.83244  0.02993  1.0000
  H   H1066     1.0  0.71974  0.92389  0.40001  1.0000
  Fe  Fe140     1.0  0.73810  0.73611  0.26498  1.0000
  H   H1067     1.0  0.51973  0.99096  0.04162  1.0000
  H   H1068     1.0  0.64684  0.96821  0.23577  1.0000
  H   H1069     1.0  0.74340  0.81328  0.41995  1.0000
  H   H1070     1.0  0.62743  0.86570  0.04950  1.0000
  H   H1071     1.0  0.58944  0.73293  0.02609  1.0000
  H   H1072     1.0  0.69584  0.74948  0.01619  1.0000
  H   H1073     1.0  0.73217  0.79805  0.44900  1.0000
  H   H1074     1.0  0.54639  0.96890  0.07804  1.0000
  H   H1075     1.0  0.71973  0.66894  0.27603  1.0000
  N   N68       1.0  0.64351  0.81588  0.13890  1.0000
  C   C677      1.0  0.62716  0.81075  0.12627  1.0000
  C   C678      1.0  0.65526  0.80158  0.13714  1.0000
  C   C679      1.0  0.64234  0.82194  0.18136  1.0000
  C   C680      1.0  0.64924  0.82922  0.11069  1.0000
  H   H1076     1.0  0.61789  0.82118  0.12738  1.0000
  H   H1077     1.0  0.62258  0.80037  0.14601  1.0000
  H   H1078     1.0  0.62764  0.80648  0.09411  1.0000
  H   H1079     1.0  0.66778  0.80485  0.14657  1.0000
  H   H1080     1.0  0.65122  0.79111  0.15746  1.0000
  H   H1081     1.0  0.65641  0.79677  0.10545  1.0000
  H   H1082     1.0  0.65449  0.82587  0.19195  1.0000
  H   H1083     1.0  0.63799  0.81214  0.20328  1.0000
  H   H1084     1.0  0.63355  0.83275  0.18364  1.0000
  H   H1085     1.0  0.56368  0.97815  0.05265  1.0000
  H   H1086     1.0  0.71868  0.67506  0.40686  1.0000
  H   H1087     1.0  0.72211  0.70525  0.39588  1.0000
  C   C681      1.0  0.73618  0.91473  0.44718  1.0000
  S   S276      1.0  0.64522  0.79368  0.01744  1.0000
  C   C682      1.0  0.72503  0.76261  0.99637  1.0000
  C   C683      1.0  0.59616  0.91018  0.01923  1.0000
  C   C684      1.0  0.74252  0.80665  0.45033  1.0000
  H   H1088     1.0  0.65324  0.98011  0.30319  1.0000
  S   S277      1.0  0.58332  0.95649  0.00573  1.0000
  C   C685      1.0  0.57741  0.73120  0.01372  1.0000
  C   C686      1.0  0.59208  0.98954  0.00160  1.0000
  H   H1089     1.0  0.56378  0.90554  0.02837  1.0000
  H   H1090     1.0  0.52180  0.98571  0.09525  1.0000
  H   H1091     1.0  0.49950  0.97377  0.15754  1.0000
  H   H1092     1.0  0.59671  0.92390  0.01883  1.0000
  H   H1093     1.0  0.72099  0.73212  0.02829  1.0000
  S   S278      1.0  0.49810  0.68783  0.08146  1.0000
  C   C687      1.0  0.49879  0.96062  0.16366  1.0000
  H   H1094     1.0  0.54770  0.99085  0.13029  1.0000
  S   S279      1.0  0.68188  0.99402  0.39628  1.0000
  C   C688      1.0  0.49669  0.92682  0.18046  1.0000
  H   H1095     1.0  0.56716  0.92419  0.99863  1.0000
  C   C689      1.0  0.56801  0.91044  0.99767  1.0000
  C   C690      1.0  0.72391  0.94180  0.49226  1.0000
  Fe  Fe141     1.0  0.73046  0.73902  0.77254  1.0000
  H   H1096     1.0  0.54485  0.67287  0.84790  1.0000
  S   S280      1.0  0.71068  0.73444  0.82278  1.0000
  C   C691      1.0  0.55975  0.68294  0.91590  1.0000
  H   H1097     1.0  0.56005  0.69245  0.89060  1.0000
  S   S281      1.0  0.72741  0.74084  0.70353  1.0000
  H   H1098     1.0  0.60119  0.75792  0.80036  1.0000
  H   H1099     1.0  0.58199  0.90729  0.92242  1.0000
  H   H1100     1.0  0.51875  0.67636  0.91595  1.0000
  C   C692      1.0  0.63324  0.75970  0.81907  1.0000
  H   H1101     1.0  0.53407  0.72452  0.96995  1.0000
  H   H1102     1.0  0.61278  0.75290  0.90996  1.0000
  H   H1103     1.0  0.52972  0.69046  0.94639  1.0000
  H   H1104     1.0  0.61055  0.78454  0.82562  1.0000
  N   N69       1.0  0.54502  0.67280  0.91400  1.0000
  S   S282      1.0  0.65700  0.78389  0.90308  1.0000
  C   C693      1.0  0.58584  0.97621  0.98109  1.0000
  C   C694      1.0  0.58168  0.97843  0.93946  1.0000
  C   C695      1.0  0.53011  0.68364  0.91708  1.0000
  C   C696      1.0  0.73766  0.69059  0.62560  1.0000
  H   H1105     1.0  0.73477  0.74887  0.92544  1.0000
  H   H1106     1.0  0.55996  0.68964  0.94548  1.0000
  H   H1107     1.0  0.64382  0.76629  0.83141  1.0000
  H   H1108     1.0  0.57687  0.96822  0.92321  1.0000
  C   C697      1.0  0.59016  0.91126  0.94704  1.0000
  H   H1109     1.0  0.58087  0.99515  0.88627  1.0000
  H   H1110     1.0  0.63384  0.75824  0.90107  1.0000
  C   C698      1.0  0.61400  0.77794  0.85474  1.0000
  H   H1111     1.0  0.57127  0.67519  0.91384  1.0000
  H   H1112     1.0  0.54525  0.66677  0.97869  1.0000
  H   H1113     1.0  0.71609  0.76078  0.91652  1.0000
  C   C699      1.0  0.69579  0.74842  0.84437  1.0000
  C   C700      1.0  0.69468  0.76510  0.83223  1.0000
  C   C701      1.0  0.68283  0.77578  0.85084  1.0000
  C   C702      1.0  0.67210  0.76999  0.88211  1.0000
  C   C703      1.0  0.67324  0.75331  0.89446  1.0000
  C   C704      1.0  0.68497  0.74260  0.87552  1.0000
  H   H1114     1.0  0.70290  0.76976  0.80833  1.0000
  H   H1115     1.0  0.68199  0.78864  0.84087  1.0000
  H   H1116     1.0  0.66501  0.74864  0.91827  1.0000
  H   H1117     1.0  0.68571  0.72968  0.88500  1.0000
  C   C705      1.0  0.62325  0.75227  0.88726  1.0000
  H   H1118     1.0  0.59404  0.75227  0.85140  1.0000
  H   H1119     1.0  0.73728  0.73153  0.99005  1.0000
  H   H1120     1.0  0.56162  0.98779  0.64490  1.0000
  C   C706      1.0  0.71112  0.67769  0.62068  1.0000
  C   C707      1.0  0.72174  0.68806  0.64118  1.0000
  N   N70       1.0  0.61887  0.76047  0.84772  1.0000
  H   H1121     1.0  0.71775  0.69380  0.66954  1.0000
  H   H1122     1.0  0.52959  0.69303  0.89153  1.0000
  H   H1123     1.0  0.73580  0.66742  0.53904  1.0000
  H   H1124     1.0  0.62681  0.73901  0.88340  1.0000
  S   S283      1.0  0.49616  0.68861  0.98030  1.0000
  H   H1125     1.0  0.71616  0.73864  0.91582  1.0000
  H   H1126     1.0  0.60824  0.73876  0.82426  1.0000
  S   S284      1.0  0.61472  0.79351  0.95568  1.0000
  N   N71       1.0  0.71732  0.74872  0.97633  1.0000
  C   C708      1.0  0.54501  0.66403  0.87469  1.0000
  C   C709      1.0  0.73185  0.67289  0.56772  1.0000
  S   S285      1.0  0.58261  0.75965  0.96503  1.0000
  C   C710      1.0  0.72127  0.74931  0.93169  1.0000
  H   H1127     1.0  0.60329  0.77897  0.87663  1.0000
  H   H1128     1.0  0.62425  0.78474  0.86796  1.0000
  S   S286      1.0  0.74432  0.78533  0.66908  1.0000
  Fe  Fe142     1.0  0.63978  0.78103  0.95907  1.0000
  H   H1129     1.0  0.63037  0.76560  0.78868  1.0000
  C   C711      1.0  0.60497  0.75197  0.83007  1.0000
  H   H1130     1.0  0.63756  0.74672  0.81382  1.0000
  H   H1131     1.0  0.71926  0.95216  0.50991  1.0000
  H   H1132     1.0  0.69899  0.67556  0.63361  1.0000
  C   C712      1.0  0.74260  0.68291  0.58875  1.0000
  H   H1133     1.0  0.74142  0.81712  0.62830  1.0000
  H   H1134     1.0  0.74050  0.93271  0.53928  1.0000
  H   H1135     1.0  0.55919  0.90646  0.97456  1.0000
  C   C713      1.0  0.58391  0.99371  0.91838  1.0000
  C   C714      1.0  0.73596  0.93071  0.50886  1.0000
  C   C715      1.0  0.55542  0.73992  0.96872  1.0000
  H   H1136     1.0  0.60297  0.90710  0.93888  1.0000
  H   H1137     1.0  0.55038  0.74859  0.94609  1.0000
  H   H1138     1.0  0.58980  0.92507  0.94664  1.0000
  H   H1139     1.0  0.72011  0.77477  0.98443  1.0000
  H   H1140     1.0  0.57766  0.88148  0.96324  1.0000
  H   H1141     1.0  0.71810  0.72214  0.98029  1.0000
  N   N72       1.0  0.58498  0.90450  0.98778  1.0000
  C   C716      1.0  0.71612  0.66992  0.58401  1.0000
  H   H1142     1.0  0.59833  0.88120  0.98187  1.0000
  H   H1143     1.0  0.64554  0.99331  0.66299  1.0000
  Fe  Fe143     1.0  0.60558  0.77104  0.99117  1.0000
  Fe  Fe144     1.0  0.66336  0.99486  0.50884  1.0000
  C   C717      1.0  0.57110  0.74256  0.98447  1.0000
  C   C718      1.0  0.54611  0.72626  0.98224  1.0000
  C   C719      1.0  0.58558  0.88622  0.98742  1.0000
  H   H1144     1.0  0.69307  0.73976  0.96790  1.0000
  H   H1145     1.0  0.58787  0.99119  0.68135  1.0000
  H   H1146     1.0  0.69402  0.76183  0.96965  1.0000
  C   C720      1.0  0.69928  0.75000  0.98284  1.0000
  S   S287      1.0  0.63054  0.75802  0.99095  1.0000
  S   S288      1.0  0.65446  0.99553  0.57690  1.0000
  H   H1147     1.0  0.55012  0.99501  0.68919  1.0000
  H   H1148     1.0  0.73860  0.76229  0.99115  1.0000
  Fe  Fe145     1.0  0.75576  0.25746  0.08867  1.0000
  S   S289      1.0  0.75603  0.22976  0.08720  1.0000
  S   S290      1.0  0.76841  0.27332  0.03925  1.0000
  S   S291      1.0  0.98893  0.18268  0.02151  1.0000
  S   S292      1.0  0.77142  0.21613  0.20296  1.0000
  S   S293      1.0  0.75756  0.25786  0.15764  1.0000
  Fe  Fe146     1.0  0.77028  0.13282  0.43366  1.0000
  S   S294      1.0  0.75320  0.12353  0.38683  1.0000
  C   C721      1.0  0.94287  0.01347  0.34926  1.0000
  Fe  Fe147     1.0  0.80122  0.12018  0.38738  1.0000
  S   S295      1.0  0.78647  0.10999  0.33667  1.0000
  S   S296      1.0  0.82911  0.12067  0.39749  1.0000
  Fe  Fe148     1.0  0.77119  0.13372  0.33989  1.0000
  S   S297      1.0  0.75901  0.14461  0.28248  1.0000
  Fe  Fe149     1.0  0.76909  0.10041  0.38649  1.0000
  S   S298      1.0  0.75917  0.07445  0.37848  1.0000
  S   S299      1.0  0.78712  0.14484  0.38697  1.0000
  S   S300      1.0  0.78506  0.10878  0.43715  1.0000
  H   H1149     1.0  0.89871  0.12285  0.26826  1.0000
  Fe  Fe150     1.0  0.91807  0.08347  0.31719  1.0000
  S   S301      1.0  0.93259  0.07631  0.26029  1.0000
  S   S302      1.0  0.89046  0.08503  0.30450  1.0000
  Fe  Fe151     1.0  0.94979  0.08438  0.36738  1.0000
  S   S303      1.0  0.96630  0.07786  0.31325  1.0000
  S   S304      1.0  0.95704  0.08977  0.43311  1.0000
  Fe  Fe152     1.0  0.95034  0.09582  0.27560  1.0000
  S   S305      1.0  0.95596  0.11839  0.23296  1.0000
  Fe  Fe153     1.0  0.94709  0.05886  0.30200  1.0000
  S   S306      1.0  0.95234  0.03246  0.28057  1.0000
  S   S307      1.0  0.93511  0.10370  0.33123  1.0000
  S   S308      1.0  0.93137  0.06463  0.35763  1.0000
  C   C722      1.0  0.94851  0.01366  0.30831  1.0000
  C   C723      1.0  0.75465  0.18685  0.21214  1.0000
  H   H1150     1.0  0.94130  0.02498  0.36530  1.0000
  C   C724      1.0  0.74553  0.24048  0.33609  1.0000
  C   C725      1.0  0.97055  0.14208  0.12564  1.0000
  C   C726      1.0  0.96327  0.13821  0.16456  1.0000
  C   C727      1.0  0.96515  0.12229  0.18299  1.0000
  C   C728      1.0  0.97448  0.11029  0.16169  1.0000
  H   H1151     1.0  0.88960  0.10128  0.17238  1.0000
  H   H1152     1.0  0.96887  0.15436  0.11209  1.0000
  H   H1153     1.0  0.95612  0.14766  0.18048  1.0000
  H   H1154     1.0  0.97615  0.09801  0.17516  1.0000
  H   H1155     1.0  0.88351  0.13531  0.20922  1.0000
  H   H1156     1.0  0.77162  0.24634  0.25420  1.0000
  C   C729      1.0  0.88412  0.01903  0.28185  1.0000
  H   H1157     1.0  0.96208  0.12277  0.36882  1.0000
  H   H1158     1.0  0.91757  0.13162  0.24860  1.0000
  H   H1159     1.0  0.74821  0.22700  0.34118  1.0000
  C   C730      1.0  0.84594  0.11047  0.37131  1.0000
  C   C731      1.0  0.86201  0.11233  0.38543  1.0000
  C   C732      1.0  0.87575  0.10460  0.36565  1.0000
  C   C733      1.0  0.87361  0.09493  0.33126  1.0000
  C   C734      1.0  0.85757  0.09310  0.31704  1.0000
  C   C735      1.0  0.84382  0.10077  0.33693  1.0000
  H   H1160     1.0  0.86384  0.11978  0.41196  1.0000
  H   H1161     1.0  0.88797  0.10615  0.37707  1.0000
  H   H1162     1.0  0.85570  0.08568  0.29047  1.0000
  H   H1163     1.0  0.83158  0.09921  0.32562  1.0000
  C   C736      1.0  0.76216  0.16485  0.26212  1.0000
  H   H1164     1.0  0.90835  0.00624  0.32946  1.0000
  H   H1165     1.0  0.74942  0.26812  0.25609  1.0000
  C   C737      1.0  0.76729  0.19650  0.22569  1.0000
  C   C738      1.0  0.77716  0.19038  0.25799  1.0000
  C   C739      1.0  0.77456  0.17467  0.27630  1.0000
  H   H1166     1.0  0.90214  0.14429  0.18980  1.0000
  C   C740      1.0  0.98013  0.13016  0.10465  1.0000
  H   H1167     1.0  0.78701  0.19773  0.26857  1.0000
  H   H1168     1.0  0.78236  0.17003  0.30079  1.0000
  H   H1169     1.0  0.91650  0.10987  0.25891  1.0000
  C   C741      1.0  0.78971  0.27289  0.02702  1.0000
  H   H1170     1.0  0.96973  0.13495  0.43239  1.0000
  C   C742      1.0  0.81796  0.26385  0.03983  1.0000
  C   C743      1.0  0.80109  0.26368  0.05053  1.0000
  H   H1171     1.0  0.82671  0.25679  0.05834  1.0000
  H   H1172     1.0  0.79692  0.25659  0.07722  1.0000
  H   H1173     1.0  0.92661  0.10474  0.18826  1.0000
  H   H1174     1.0  0.77659  0.17182  0.45453  1.0000
  C   C744      1.0  0.81830  0.16255  0.45377  1.0000
  H   H1175     1.0  0.77547  0.24907  0.30782  1.0000
  C   C745      1.0  0.95075  0.99850  0.28829  1.0000
  N   N73       1.0  0.89504  0.02814  0.30828  1.0000
  C   C746      1.0  0.97519  0.11930  0.36204  1.0000
  C   C747      1.0  0.88585  0.04242  0.32606  1.0000
  C   C748      1.0  0.74635  0.26377  0.28807  1.0000
  H   H1176     1.0  0.87327  0.01443  0.29960  1.0000
  H   H1177     1.0  0.97723  0.10643  0.37398  1.0000
  H   H1178     1.0  0.83858  0.13710  0.47430  1.0000
  H   H1179     1.0  0.87946  0.02705  0.25602  1.0000
  H   H1180     1.0  0.82127  0.15432  0.42747  1.0000
  H   H1181     1.0  0.80953  0.13098  0.46828  1.0000
  H   H1182     1.0  0.95518  0.99847  0.25667  1.0000
  H   H1183     1.0  0.74748  0.04152  0.37168  1.0000
  H   H1184     1.0  0.90919  0.02357  0.36265  1.0000
  H   H1185     1.0  0.91632  0.02370  0.26897  1.0000
  C   C749      1.0  0.98400  0.14743  0.36215  1.0000
  H   H1186     1.0  0.92703  0.12647  0.17724  1.0000
  H   H1187     1.0  0.74699  0.19140  0.18726  1.0000
  C   C750      1.0  0.97637  0.08795  0.45772  1.0000
  H   H1188     1.0  0.89060  0.13150  0.15747  1.0000
  H   H1189     1.0  0.91557  0.11347  0.14517  1.0000
  H   H1190     1.0  0.89071  0.00812  0.26820  1.0000
  H   H1191     1.0  0.90518  0.04289  0.25840  1.0000
  C   C751      1.0  0.90916  0.03410  0.28337  1.0000
  C   C752      1.0  0.90107  0.01701  0.34180  1.0000
  N   N74       1.0  0.90425  0.11827  0.20440  1.0000
  C   C753      1.0  0.89392  0.10358  0.20386  1.0000
  C   C754      1.0  0.89469  0.13299  0.18955  1.0000
  C   C755      1.0  0.91895  0.11561  0.17751  1.0000
  C   C756      1.0  0.90945  0.12085  0.24691  1.0000
  H   H1192     1.0  0.88289  0.10504  0.22456  1.0000
  H   H1193     1.0  0.90081  0.09225  0.21486  1.0000
  H   H1194     1.0  0.91788  0.04065  0.30254  1.0000
  H   H1195     1.0  0.75278  0.10658  0.25614  1.0000
  H   H1196     1.0  0.88080  0.05091  0.30162  1.0000
  H   H1197     1.0  0.97111  0.15218  0.36696  1.0000
  Fe  Fe154     1.0  0.75527  0.23015  0.15647  1.0000
  H   H1198     1.0  0.97693  0.11906  0.32798  1.0000
  C   C757      1.0  0.98284  0.13143  0.42577  1.0000
  H   H1199     1.0  0.89077  0.01203  0.36093  1.0000
  C   C758      1.0  0.98200  0.11426  0.12312  1.0000
  H   H1200     1.0  0.87534  0.03844  0.34598  1.0000
  H   H1201     1.0  0.75244  0.24720  0.35923  1.0000
  H   H1202     1.0  0.98651  0.14734  0.32834  1.0000
  C   C759      1.0  0.93915  0.99836  0.36948  1.0000
  N   N75       1.0  0.75007  0.24585  0.29368  1.0000
  H   H1203     1.0  0.75365  0.10565  0.31085  1.0000
  H   H1204     1.0  0.89388  0.04989  0.34514  1.0000
  C   C760      1.0  0.74789  0.10008  0.28419  1.0000
  H   H1205     1.0  0.75337  0.27119  0.30952  1.0000
  C   C761      1.0  0.75219  0.17105  0.23009  1.0000
  H   H1206     1.0  0.77098  0.22898  0.28919  1.0000
  C   C762      1.0  0.82354  0.27295  0.00515  1.0000
  C   C763      1.0  0.76782  0.24246  0.28607  1.0000
  H   H1207     1.0  0.82743  0.17249  0.45298  1.0000
  H   H1208     1.0  0.80602  0.16850  0.44808  1.0000
  N   N76       1.0  0.98642  0.13074  0.38103  1.0000
  H   H1209     1.0  0.75226  0.08689  0.28381  1.0000
  H   H1210     1.0  0.99093  0.08203  0.40366  1.0000
  C   C764      1.0  0.99115  0.08498  0.43586  1.0000
  H   H1211     1.0  0.78210  0.19968  0.48089  1.0000
  S   S309      1.0  0.99081  0.13460  0.05683  1.0000
  H   H1212     1.0  0.98937  0.10489  0.10745  1.0000
  H   H1213     1.0  0.99230  0.15642  0.37559  1.0000
  H   H1214     1.0  0.93457  0.99842  0.40097  1.0000
  C   C765      1.0  0.77157  0.17550  0.48404  1.0000
  H   H1215     1.0  0.98524  0.11924  0.44132  1.0000
  H   H1216     1.0  0.99067  0.14040  0.44089  1.0000
  H   H1217     1.0  0.79381  0.14520  0.48620  1.0000
  Fe  Fe155     1.0  0.99170  0.15572  0.00733  1.0000
  S   S310      1.0  0.75962  0.14383  0.49251  1.0000
  C   C766      1.0  0.80632  0.14001  0.49260  1.0000
  Fe  Fe156     1.0  0.75764  0.25758  0.66566  1.0000
  S   S311      1.0  0.75750  0.22990  0.66985  1.0000
  S   S312      1.0  0.77043  0.27292  0.71281  1.0000
  Fe  Fe157     1.0  0.75682  0.23062  0.60060  1.0000
  S   S313      1.0  0.77317  0.21571  0.55618  1.0000
  S   S314      1.0  0.75937  0.25834  0.59628  1.0000
  Fe  Fe158     1.0  0.85309  0.26889  0.83919  1.0000
  S   S315      1.0  0.84248  0.29032  0.87435  1.0000
  S   S316      1.0  0.83896  0.25345  0.79514  1.0000
  Fe  Fe159     1.0  0.88725  0.27065  0.87898  1.0000
  S   S317      1.0  0.87890  0.29251  0.91698  1.0000
  S   S318      1.0  0.91406  0.26096  0.87542  1.0000
  Fe  Fe160     1.0  0.85557  0.27845  0.92830  1.0000
  C   C767      1.0  0.82513  0.31763  0.77411  1.0000
  Fe  Fe161     1.0  0.86659  0.30266  0.85968  1.0000
  N   N77       1.0  0.95460  0.18366  0.83367  1.0000
  S   S319      1.0  0.86481  0.25612  0.89382  1.0000
  S   S320      1.0  0.87634  0.28166  0.82089  1.0000
  Fe  Fe162     1.0  0.97454  0.18561  0.96310  1.0000
  H   H1218     1.0  0.82800  0.21512  0.90988  1.0000
  S   S321      1.0  0.97586  0.15824  0.95130  1.0000
  C   C768      1.0  0.92340  0.24329  0.90036  1.0000
  C   C769      1.0  0.91426  0.23184  0.92336  1.0000
  C   C770      1.0  0.92216  0.21785  0.94188  1.0000
  C   C771      1.0  0.93930  0.21514  0.93797  1.0000
  C   C772      1.0  0.94848  0.22663  0.91513  1.0000
  C   C773      1.0  0.94054  0.24055  0.89629  1.0000
  H   H1219     1.0  0.90109  0.23377  0.92685  1.0000
  C   C774      1.0  0.81411  0.16444  0.52732  1.0000
  H   H1220     1.0  0.96167  0.22490  0.91218  1.0000
  H   H1221     1.0  0.94774  0.24937  0.87872  1.0000
  H   H1222     1.0  0.84006  0.23215  0.92410  1.0000
  H   H1223     1.0  0.78974  0.24033  0.89276  1.0000
  H   H1224     1.0  0.75033  0.27637  0.79076  1.0000
  H   H1225     1.0  0.74808  0.25700  0.85114  1.0000
  H   H1226     1.0  0.74794  0.16117  0.56377  1.0000
  H   H1227     1.0  0.83547  0.13819  0.52898  1.0000
  C   C775      1.0  0.76778  0.19640  0.53686  1.0000
  C   C776      1.0  0.75790  0.18556  0.55973  1.0000
  H   H1228     1.0  0.82123  0.25815  0.87066  1.0000
  C   C777      1.0  0.80135  0.23304  0.88681  1.0000
  H   H1229     1.0  0.81634  0.28945  0.95537  1.0000
  C   C778      1.0  0.81958  0.25874  0.77376  1.0000
  C   C779      1.0  0.80988  0.27215  0.78758  1.0000
  C   C780      1.0  0.79477  0.27623  0.76889  1.0000
  C   C781      1.0  0.78915  0.26686  0.73651  1.0000
  C   C782      1.0  0.79864  0.25318  0.72349  1.0000
  C   C783      1.0  0.81378  0.24917  0.74205  1.0000
  H   H1230     1.0  0.81404  0.27939  0.81255  1.0000
  H   H1231     1.0  0.78744  0.28677  0.77934  1.0000
  H   H1232     1.0  0.79445  0.24586  0.69863  1.0000
  H   H1233     1.0  0.82115  0.23870  0.73129  1.0000
  C   C784      1.0  0.75527  0.16961  0.54537  1.0000
  H   H1234     1.0  0.80554  0.13301  0.52243  1.0000
  C   C785      1.0  0.82424  0.30591  0.70662  1.0000
  H   H1235     1.0  0.80151  0.17004  0.52388  1.0000
  H   H1236     1.0  0.82274  0.17479  0.52837  1.0000
  C   C786      1.0  0.84701  0.29907  0.75079  1.0000
  H   H1237     1.0  0.97036  0.17096  0.79010  1.0000
  H   H1238     1.0  0.80705  0.22337  0.96489  1.0000
  H   H1239     1.0  0.75266  0.18931  0.58904  1.0000
  H   H1240     1.0  0.80660  0.26405  0.91017  1.0000
  N   N78       1.0  0.81469  0.23849  0.91285  1.0000
  H   H1241     1.0  0.91493  0.20907  0.95947  1.0000
  H   H1242     1.0  0.79889  0.24431  0.96498  1.0000
  C   C787      1.0  0.96783  0.19413  0.84743  1.0000
  H   H1243     1.0  0.93552  0.19720  0.86641  1.0000
  H   H1244     1.0  0.78659  0.28942  0.97456  1.0000
  H   H1245     1.0  0.81620  0.32780  0.76578  1.0000
  C   C788      1.0  0.99218  0.09254  0.51954  1.0000
  H   H1246     1.0  0.99175  0.03548  0.70621  1.0000
  H   H1247     1.0  0.79878  0.21977  0.89281  1.0000
  H   H1248     1.0  0.95964  0.18903  0.76966  1.0000
  H   H1249     1.0  0.96563  0.19783  0.87983  1.0000
  H   H1250     1.0  0.98001  0.18745  0.84577  1.0000
  H   H1251     1.0  0.94365  0.16069  0.85190  1.0000
  H   H1252     1.0  0.80465  0.23462  0.85348  1.0000
  C   C789      1.0  0.93880  0.19323  0.83463  1.0000
  H   H1253     1.0  0.95041  0.17263  0.89365  1.0000
  H   H1254     1.0  0.82787  0.26052  0.92213  1.0000
  S   S322      1.0  0.86499  0.32839  0.82811  1.0000
  S   S323      1.0  0.94834  0.19680  0.96053  1.0000
  C   C790      1.0  0.95340  0.16899  0.86146  1.0000
  H   H1255     1.0  0.81425  0.15780  0.55771  1.0000
  H   H1256     1.0  0.92853  0.18581  0.82399  1.0000
  H   H1257     1.0  0.98681  0.06168  0.74460  1.0000
  H   H1258     1.0  0.83302  0.32223  0.79866  1.0000
  C   C791      1.0  0.76222  0.16444  0.50771  1.0000
  C   C792      1.0  0.80991  0.23641  0.95678  1.0000
  H   H1259     1.0  0.84077  0.28831  0.76528  1.0000
  H   H1260     1.0  0.96522  0.16162  0.86193  1.0000
  H   H1261     1.0  0.85564  0.30365  0.77359  1.0000
  H   H1262     1.0  0.93935  0.20466  0.81490  1.0000
  N   N79       1.0  0.83510  0.31228  0.73799  1.0000
  H   H1263     1.0  0.96873  0.20566  0.82828  1.0000
  C   C793      1.0  0.81770  0.25609  0.90351  1.0000
  H   H1264     1.0  0.81806  0.30729  0.78788  1.0000
  H   H1265     1.0  0.83417  0.23031  0.87158  1.0000
  H   H1266     1.0  0.81753  0.29495  0.71857  1.0000
  H   H1267     1.0  0.75757  0.24678  0.78258  1.0000
  C   C794      1.0  0.95848  0.17826  0.79138  1.0000
  H   H1268     1.0  0.94878  0.17029  0.77990  1.0000
  H   H1269     1.0  0.85455  0.29442  0.72432  1.0000
  C   C795      1.0  0.82988  0.22854  0.90418  1.0000
  H   H1270     1.0  0.96569  0.09379  0.51705  1.0000
  C   C796      1.0  0.83500  0.14560  0.49970  1.0000
  N   N80       1.0  0.81844  0.15317  0.49339  1.0000
  H   H1271     1.0  0.83136  0.30195  0.67876  1.0000
  H   H1272     1.0  0.81486  0.31543  0.69675  1.0000
  S   S324      1.0  0.84475  0.27206  0.99163  1.0000
  H   H1273     1.0  0.84449  0.15515  0.50064  1.0000
  C   C797      1.0  0.77455  0.19131  0.49889  1.0000
  C   C798      1.0  0.97701  0.09143  0.49981  1.0000
  H   H1274     1.0  0.99244  0.09582  0.55155  1.0000
  H   H1275     1.0  0.85201  0.32289  0.69371  1.0000
  C   C799      1.0  0.81215  0.28215  0.98165  1.0000
  H   H1276     1.0  0.81998  0.24000  0.97707  1.0000
  C   C800      1.0  0.84413  0.32650  0.72062  1.0000
  H   H1277     1.0  0.99188  0.03497  0.78268  1.0000
  C   C801      1.0  0.79532  0.28213  0.99261  1.0000
  Fe  Fe163     1.0  0.93571  0.55253  0.14370  1.0000
  S   S325      1.0  0.92813  0.52625  0.14077  1.0000
  S   S326      1.0  0.96027  0.56432  0.15640  1.0000
  Fe  Fe164     1.0  0.90204  0.56596  0.11615  1.0000
  S   S327      1.0  0.89179  0.54038  0.11029  1.0000
  S   S328      1.0  0.88701  0.59052  0.11297  1.0000
  Fe  Fe165     1.0  0.90389  0.53414  0.17075  1.0000
  S   S329      1.0  0.89343  0.51444  0.21593  1.0000
  Fe  Fe166     1.0  0.91630  0.53339  0.08063  1.0000
  S   S330      1.0  0.92348  0.51452  0.03130  1.0000
  S   S331      1.0  0.91253  0.56005  0.17875  1.0000
  S   S332      1.0  0.92547  0.55940  0.08152  1.0000
  H   H1278     1.0  0.99293  0.57671  0.15537  1.0000
  Fe  Fe167     1.0  0.80583  0.46874  0.44131  1.0000
  S   S333      1.0  0.79793  0.44223  0.42970  1.0000
  Fe  Fe168     1.0  0.82524  0.49878  0.40711  1.0000
  S   S334      1.0  0.83732  0.51595  0.35824  1.0000
  H   H1279     1.0  0.93548  0.58937  0.18015  1.0000
  C   C802      1.0  0.92887  0.60138  0.17348  1.0000
  S   S335      1.0  0.83293  0.47471  0.43874  1.0000
  S   S336      1.0  0.79868  0.49173  0.40469  1.0000
  H   H1280     1.0  0.76396  0.36847  0.23918  1.0000
  C   C803      1.0  0.88650  0.51597  0.40821  1.0000
  C   C804      1.0  0.87787  0.51522  0.25566  1.0000
  C   C805      1.0  0.86886  0.52973  0.26480  1.0000
  C   C806      1.0  0.85655  0.52964  0.29618  1.0000
  C   C807      1.0  0.85300  0.51507  0.31889  1.0000
  C   C808      1.0  0.86209  0.50057  0.31000  1.0000
  C   C809      1.0  0.87442  0.50066  0.27862  1.0000
  H   H1281     1.0  0.87133  0.54103  0.24758  1.0000
  H   H1282     1.0  0.84969  0.54098  0.30274  1.0000
  H   H1283     1.0  0.85955  0.48923  0.32696  1.0000
  H   H1284     1.0  0.88129  0.48935  0.27194  1.0000
  C   C810      1.0  0.88889  0.60931  0.08352  1.0000
  C   C811      1.0  0.87996  0.62356  0.09631  1.0000
  C   C812      1.0  0.88129  0.63884  0.07464  1.0000
  C   C813      1.0  0.89155  0.64005  0.03966  1.0000
  C   C814      1.0  0.90035  0.62578  0.02665  1.0000
  C   C815      1.0  0.89902  0.61051  0.04829  1.0000
  H   H1285     1.0  0.87202  0.62280  0.12337  1.0000
  H   H1286     1.0  0.87438  0.64966  0.08500  1.0000
  H   H1287     1.0  0.91457  0.62413  0.12369  1.0000
  H   H1288     1.0  0.90568  0.59964  0.03738  1.0000
  Fe  Fe169     1.0  0.79529  0.50374  0.46620  1.0000
  C   C816      1.0  0.98081  0.53845  0.18553  1.0000
  C   C817      1.0  0.97949  0.55473  0.17013  1.0000
  H   H1289     1.0  0.77276  0.56517  0.34807  1.0000
  H   H1290     1.0  0.96995  0.53112  0.18837  1.0000
  H   H1291     1.0  0.76916  0.53096  0.38872  1.0000
  C   C818      1.0  0.76148  0.41068  0.40405  1.0000
  C   C819      1.0  0.77640  0.41736  0.41618  1.0000
  C   C820      1.0  0.77861  0.43458  0.41531  1.0000
  C   C821      1.0  0.76563  0.44503  0.40214  1.0000
  H   H1292     1.0  0.76008  0.39745  0.40503  1.0000
  H   H1293     1.0  0.78636  0.40916  0.42628  1.0000
  H   H1294     1.0  0.76709  0.45828  0.40122  1.0000
  H   H1295     1.0  0.90819  0.62651  0.99938  1.0000
  N   N81       1.0  0.78924  0.54459  0.36243  1.0000
  H   H1296     1.0  0.79429  0.53834  0.42558  1.0000
  C   C822      1.0  0.76719  0.40590  0.28337  1.0000
  C   C823      1.0  0.77641  0.53219  0.35942  1.0000
  H   H1297     1.0  0.76759  0.53561  0.33476  1.0000
  H   H1298     1.0  0.80652  0.52711  0.38904  1.0000
  C   C824      1.0  0.78144  0.56081  0.37229  1.0000
  H   H1299     1.0  0.86170  0.49474  0.40896  1.0000
  H   H1300     1.0  0.78082  0.65934  0.25367  1.0000
  C   C825      1.0  0.93667  0.60029  0.10162  1.0000
  H   H1301     1.0  0.76012  0.41301  0.30723  1.0000
  H   H1302     1.0  0.88985  0.51661  0.99897  1.0000
  H   H1303     1.0  0.87792  0.51833  0.38229  1.0000
  H   H1304     1.0  0.85543  0.52279  0.43345  1.0000
  S   S337      1.0  0.89339  0.65877  0.01002  1.0000
  H   H1305     1.0  0.94143  0.60711  0.07395  1.0000
  H   H1306     1.0  0.91590  0.59860  0.16668  1.0000
  H   H1307     1.0  0.96113  0.60191  0.15521  1.0000
  H   H1308     1.0  0.77426  0.56014  0.40186  1.0000
  H   H1309     1.0  0.79029  0.54953  0.29711  1.0000
  H   H1310     1.0  0.78186  0.51972  0.35277  1.0000
  N   N82       1.0  0.89871  0.48194  0.11246  1.0000
  C   C826      1.0  0.90108  0.47243  0.07446  1.0000
  C   C827      1.0  0.88917  0.49738  0.10318  1.0000
  C   C828      1.0  0.91491  0.48598  0.12841  1.0000
  C   C829      1.0  0.88968  0.47209  0.14391  1.0000
  H   H1311     1.0  0.90811  0.46061  0.08028  1.0000
  H   H1312     1.0  0.90808  0.47957  0.05053  1.0000
  H   H1313     1.0  0.88912  0.46946  0.06093  1.0000
  H   H1314     1.0  0.88712  0.50484  0.13126  1.0000
  H   H1315     1.0  0.89568  0.50523  0.07989  1.0000
  H   H1316     1.0  0.87691  0.49487  0.09074  1.0000
  H   H1317     1.0  0.91357  0.49328  0.15696  1.0000
  H   H1318     1.0  0.92207  0.49344  0.10544  1.0000
  H   H1319     1.0  0.92246  0.47465  0.13589  1.0000
  H   H1320     1.0  0.88775  0.47911  0.17282  1.0000
  H   H1321     1.0  0.89655  0.46037  0.15195  1.0000
  H   H1322     1.0  0.87736  0.46886  0.13300  1.0000
  C   C830      1.0  0.80070  0.53941  0.39524  1.0000
  C   C831      1.0  0.79850  0.54585  0.32290  1.0000
  H   H1323     1.0  0.81075  0.54827  0.39805  1.0000
  H   H1324     1.0  0.79075  0.57042  0.37551  1.0000
  H   H1325     1.0  0.80827  0.55512  0.32410  1.0000
  N   N83       1.0  0.93679  0.61042  0.13872  1.0000
  H   H1326     1.0  0.75470  0.36749  0.31153  1.0000
  S   S338      1.0  0.82131  0.51196  0.46688  1.0000
  C   C832      1.0  0.76931  0.38074  0.24461  1.0000
  H   H1327     1.0  0.92403  0.59644  0.09511  1.0000
  H   H1328     1.0  0.78006  0.40438  0.29407  1.0000
  H   H1329     1.0  0.76937  0.38779  0.21478  1.0000
  H   H1330     1.0  0.85772  0.51531  0.48557  1.0000
  H   H1331     1.0  0.80476  0.53381  0.31522  1.0000
  H   H1332     1.0  0.89200  0.52796  0.41519  1.0000
  C   C833      1.0  0.77644  0.55154  0.49109  1.0000
  H   H1333     1.0  0.86934  0.53249  0.46670  1.0000
  H   H1334     1.0  0.95459  0.62132  0.17673  1.0000
  S   S339      1.0  0.77094  0.51875  0.47155  1.0000
  H   H1335     1.0  0.96037  0.62032  0.12309  1.0000
  H   H1336     1.0  0.92761  0.63431  0.15801  1.0000
  C   C834      1.0  0.75079  0.43835  0.38949  1.0000
  C   C835      1.0  0.95398  0.61369  0.14889  1.0000
  C   C836      1.0  0.74953  0.54576  0.46629  1.0000
  C   C837      1.0  0.76548  0.54012  0.47687  1.0000
  C   C838      1.0  0.88953  0.50589  0.47851  1.0000
  H   H1337     1.0  0.88050  0.48398  0.42278  1.0000
  H   H1338     1.0  0.92872  0.60862  0.20208  1.0000
  C   C839      1.0  0.92763  0.62624  0.13084  1.0000
  H   H1339     1.0  0.85631  0.65375  0.00625  1.0000
  H   H1340     1.0  0.93299  0.63326  0.10417  1.0000
  H   H1341     1.0  0.94442  0.58878  0.10547  1.0000
  N   N84       1.0  0.75982  0.38975  0.27673  1.0000
  H   H1342     1.0  0.89508  0.51758  0.48770  1.0000
  H   H1343     1.0  0.78232  0.37841  0.25357  1.0000
  H   H1344     1.0  0.89656  0.50750  0.39684  1.0000
  C   C840      1.0  0.76005  0.37985  0.31550  1.0000
  H   H1345     1.0  0.89971  0.49709  0.46956  1.0000
  N   N85       1.0  0.87788  0.50881  0.44465  1.0000
  H   H1346     1.0  0.86453  0.48709  0.46095  1.0000
  H   H1347     1.0  0.84529  0.63559  0.99490  1.0000
  C   C841      1.0  0.87084  0.49296  0.43381  1.0000
  S   S340      1.0  0.74971  0.59512  0.49140  1.0000
  H   H1348     1.0  0.76436  0.65833  0.29142  1.0000
  H   H1349     1.0  0.77278  0.37774  0.32676  1.0000
  C   C842      1.0  0.74860  0.42116  0.39029  1.0000
  C   C843      1.0  0.86452  0.52038  0.45817  1.0000
  H   H1350     1.0  0.75188  0.38786  0.47682  1.0000
  C   C844      1.0  0.75545  0.57392  0.48455  1.0000
  H   H1351     1.0  0.76734  0.41370  0.25469  1.0000
  C   C845      1.0  0.99378  0.56409  0.16705  1.0000
  H   H1352     1.0  0.75277  0.38623  0.34007  1.0000
  H   H1353     1.0  0.84451  0.64459  0.88176  1.0000
  H   H1354     1.0  0.86443  0.36023  0.78684  1.0000
  C   C846      1.0  0.96510  0.40613  0.85068  1.0000
  S   S341      1.0  0.84888  0.48936  0.54566  1.0000
  Fe  Fe170     1.0  0.90306  0.42047  0.82688  1.0000
  S   S342      1.0  0.91312  0.42462  0.76272  1.0000
  S   S343      1.0  0.90283  0.39502  0.85964  1.0000
  Fe  Fe171     1.0  0.90126  0.45819  0.84244  1.0000
  S   S344      1.0  0.91172  0.46447  0.77912  1.0000
  S   S345      1.0  0.88968  0.47794  0.88434  1.0000
  Fe  Fe172     1.0  0.89437  0.44571  0.75593  1.0000
  S   S346      1.0  0.87516  0.44763  0.70424  1.0000
  Fe  Fe173     1.0  0.92959  0.44288  0.79157  1.0000
  S   S347      1.0  0.95697  0.43984  0.77404  1.0000
  S   S348      1.0  0.88325  0.44022  0.81901  1.0000
  S   S349      1.0  0.92019  0.43801  0.85601  1.0000
  C   C847      1.0  0.97482  0.44322  0.80317  1.0000
  S   S350      1.0  0.80133  0.48031  0.50321  1.0000
  C   C848      1.0  0.97385  0.44909  0.84328  1.0000
  H   H1355     1.0  0.87091  0.48484  0.73081  1.0000
  H   H1356     1.0  0.96197  0.45223  0.85703  1.0000
  C   C849      1.0  0.85593  0.47748  0.58966  1.0000
  C   C850      1.0  0.84822  0.46322  0.60442  1.0000
  C   C851      1.0  0.85433  0.45431  0.63921  1.0000
  C   C852      1.0  0.86829  0.45939  0.65988  1.0000
  C   C853      1.0  0.87598  0.47369  0.64522  1.0000
  C   C854      1.0  0.86983  0.48263  0.61050  1.0000
  H   H1357     1.0  0.83756  0.45901  0.58897  1.0000
  H   H1358     1.0  0.84824  0.44329  0.65002  1.0000
  H   H1359     1.0  0.88675  0.47779  0.66041  1.0000
  H   H1360     1.0  0.87596  0.49361  0.59960  1.0000
  C   C855      1.0  0.84534  0.46826  0.76360  1.0000
  C   C856      1.0  0.84416  0.49801  0.76846  1.0000
  H   H1361     1.0  0.86012  0.46947  0.83646  1.0000
  H   H1362     1.0  0.93522  0.40895  0.81839  1.0000
  H   H1363     1.0  0.83118  0.49793  0.77996  1.0000
  C   C857      1.0  0.89711  0.50775  0.98136  1.0000
  H   H1364     1.0  0.88936  0.33697  0.88899  1.0000
  C   C858      1.0  0.88996  0.49940  0.94893  1.0000
  C   C859      1.0  0.89923  0.48793  0.92531  1.0000
  C   C860      1.0  0.91574  0.48480  0.93475  1.0000
  H   H1365     1.0  0.75679  0.60873  0.64982  1.0000
  H   H1366     1.0  0.97188  0.37343  0.85645  1.0000
  H   H1367     1.0  0.92306  0.47605  0.91690  1.0000
  H   H1368     1.0  0.88324  0.50048  0.50637  1.0000
  C   C861      1.0  0.87588  0.34669  0.83714  1.0000
  C   C862      1.0  0.88707  0.34764  0.86897  1.0000
  C   C863      1.0  0.89517  0.36251  0.87525  1.0000
  C   C864      1.0  0.89228  0.37661  0.84978  1.0000
  C   C865      1.0  0.88121  0.37562  0.81771  1.0000
  C   C866      1.0  0.87305  0.36077  0.81154  1.0000
  Fe  Fe174     1.0  0.82800  0.48754  0.49883  1.0000
  H   H1369     1.0  0.90364  0.36310  0.90027  1.0000
  H   H1370     1.0  0.87884  0.38632  0.79785  1.0000
  N   N86       1.0  0.95376  0.39265  0.84361  1.0000
  C   C867      1.0  0.96326  0.37758  0.83189  1.0000
  H   H1371     1.0  0.86004  0.63208  0.90729  1.0000
  H   H1372     1.0  0.93571  0.49071  0.97380  1.0000
  C   C868      1.0  0.94258  0.39772  0.81010  1.0000
  N   N87       1.0  0.84972  0.65200  0.94287  1.0000
  C   C869      1.0  0.83380  0.66111  0.94819  1.0000
  H   H1373     1.0  0.93650  0.40040  0.89091  1.0000
  H   H1374     1.0  0.97066  0.37977  0.80315  1.0000
  H   H1375     1.0  0.87718  0.50194  0.94191  1.0000
  H   H1376     1.0  0.83874  0.63006  0.92192  1.0000
  C   C870      1.0  0.92289  0.49316  0.96706  1.0000
  H   H1377     1.0  0.75235  0.40512  0.53822  1.0000
  H   H1378     1.0  0.76819  0.62452  0.62308  1.0000
  H   H1379     1.0  0.97264  0.40901  0.82255  1.0000
  H   H1380     1.0  0.75453  0.64239  0.56916  1.0000
  H   H1381     1.0  0.95497  0.36722  0.82633  1.0000
  H   H1382     1.0  0.84396  0.49956  0.73432  1.0000
  C   C871      1.0  0.85462  0.64426  0.98260  1.0000
  H   H1383     1.0  0.85952  0.49144  0.84026  1.0000
  H   H1384     1.0  0.87704  0.49367  0.77831  1.0000
  H   H1385     1.0  0.83238  0.46731  0.77472  1.0000
  H   H1386     1.0  0.93369  0.38796  0.80386  1.0000
  H   H1387     1.0  0.93516  0.37926  0.87719  1.0000
  H   H1388     1.0  0.76281  0.60625  0.59672  1.0000
  H   H1389     1.0  0.99136  0.43468  0.75496  1.0000
  H   H1390     1.0  0.85198  0.45646  0.77223  1.0000
  H   H1391     1.0  0.97367  0.40297  0.87604  1.0000
  C   C872      1.0  0.75835  0.61544  0.61977  1.0000
  H   H1392     1.0  0.94944  0.40078  0.78101  1.0000
  H   H1393     1.0  0.87737  0.47174  0.77267  1.0000
  H   H1394     1.0  0.82390  0.65281  0.95909  1.0000
  C   C873      1.0  0.94399  0.38927  0.88161  1.0000
  H   H1395     1.0  0.84993  0.50908  0.78080  1.0000
  H   H1396     1.0  0.87470  0.65734  0.92488  1.0000
  C   C874      1.0  0.98833  0.45097  0.86566  1.0000
  C   C875      1.0  0.87039  0.48335  0.76493  1.0000
  C   C876      1.0  0.85331  0.48097  0.82620  1.0000
  H   H1397     1.0  0.86655  0.63722  0.97957  1.0000
  H   H1398     1.0  0.84535  0.46900  0.72933  1.0000
  H   H1399     1.0  0.84063  0.48047  0.83951  1.0000
  N   N88       1.0  0.85328  0.48265  0.78082  1.0000
  H   H1400     1.0  0.95196  0.38548  0.90775  1.0000
  H   H1401     1.0  0.95821  0.41777  0.85879  1.0000
  H   H1402     1.0  0.85237  0.33159  0.74384  1.0000
  C   C877      1.0  0.84817  0.63908  0.91207  1.0000
  H   H1403     1.0  0.75023  0.62377  0.54294  1.0000
  C   C878      1.0  0.99044  0.43924  0.78593  1.0000
  H   H1404     1.0  0.98739  0.45560  0.89655  1.0000
  C   C879      1.0  0.77142  0.56830  0.49500  1.0000
  C   C880      1.0  0.91369  0.50474  0.99042  1.0000
  H   H1405     1.0  0.77993  0.57696  0.50661  1.0000
  H   H1406     1.0  0.78867  0.54740  0.49988  1.0000
  H   H1407     1.0  0.83558  0.33674  0.71049  1.0000
  H   H1408     1.0  0.74606  0.64600  0.64047  1.0000
  C   C881      1.0  0.74554  0.63241  0.56690  1.0000
  C   C882      1.0  0.99235  0.90881  0.48619  1.0000
  S   S351      1.0  0.76568  0.73576  0.26334  1.0000
  H   H1409     1.0  0.76387  0.79213  0.39717  1.0000
  Fe  Fe175     1.0  0.76347  0.72947  0.19718  1.0000
  S   S352      1.0  0.77827  0.70952  0.16449  1.0000
  H   H1410     1.0  0.98544  0.94110  0.39513  1.0000
  C   C883      1.0  0.79862  0.91700  0.47325  1.0000
  H   H1411     1.0  0.77386  0.93958  0.40860  1.0000
  Fe  Fe176     1.0  0.98149  0.80604  0.03781  1.0000
  H   H1412     1.0  0.82234  0.75304  0.20530  1.0000
  H   H1413     1.0  0.76090  0.70320  0.30894  1.0000
  H   H1414     1.0  0.81453  0.77115  0.23070  1.0000
  S   S353      1.0  0.89087  0.70610  0.05350  1.0000
  Fe  Fe177     1.0  0.86395  0.71389  0.05775  1.0000
  S   S354      1.0  0.85295  0.72233  0.11869  1.0000
  Fe  Fe178     1.0  0.94674  0.90466  0.31661  1.0000
  S   S355      1.0  0.92317  0.91855  0.33566  1.0000
  S   S356      1.0  0.94575  0.89159  0.25447  1.0000
  Fe  Fe179     1.0  0.96223  0.91000  0.40121  1.0000
  S   S357      1.0  0.93938  0.92282  0.42573  1.0000
  S   S358      1.0  0.98707  0.90807  0.43339  1.0000
  Fe  Fe180     1.0  0.92490  0.90359  0.39459  1.0000
  S   S359      1.0  0.90445  0.88810  0.42487  1.0000
  Fe  Fe181     1.0  0.93941  0.93694  0.36483  1.0000
  S   S360      1.0  0.93533  0.96476  0.37596  1.0000
  S   S361      1.0  0.94805  0.88936  0.37517  1.0000
  S   S362      1.0  0.96269  0.92446  0.34076  1.0000
  H   H1415     1.0  0.80054  0.75701  0.21040  1.0000
  Fe  Fe182     1.0  0.77335  0.85311  0.41983  1.0000
  S   S363      1.0  0.79843  0.84427  0.43945  1.0000
  S   S364      1.0  0.75734  0.84077  0.37437  1.0000
  Fe  Fe183     1.0  0.80466  0.87125  0.44224  1.0000
  H   H1416     1.0  0.80262  0.79443  0.19181  1.0000
  S   S365      1.0  0.78009  0.87982  0.41656  1.0000
  C   C884      1.0  0.88254  0.88801  0.42129  1.0000
  C   C885      1.0  0.87376  0.87629  0.44501  1.0000
  C   C886      1.0  0.85646  0.87550  0.44291  1.0000
  C   C887      1.0  0.84765  0.88641  0.41685  1.0000
  C   C888      1.0  0.85645  0.89805  0.39289  1.0000
  C   C889      1.0  0.87375  0.89887  0.39507  1.0000
  N   N89       1.0  0.75813  0.79774  0.46028  1.0000
  H   H1417     1.0  0.78461  0.70485  0.25722  1.0000
  H   H1418     1.0  0.88023  0.90798  0.37666  1.0000
  C   C890      1.0  0.77563  0.66508  0.28208  1.0000
  C   C891      1.0  0.94717  0.98336  0.30864  1.0000
  C   C892      1.0  0.94116  0.98322  0.34926  1.0000
  H   H1419     1.0  0.77412  0.77888  0.43424  1.0000
  H   H1420     1.0  0.78335  0.80358  0.47042  1.0000
  H   H1421     1.0  0.94878  0.97185  0.29260  1.0000
  H   H1422     1.0  0.79889  0.95479  0.42544  1.0000
  C   C893      1.0  0.98288  0.86080  0.17425  1.0000
  H   H1423     1.0  0.79656  0.69001  0.28686  1.0000
  C   C894      1.0  0.97682  0.87720  0.23590  1.0000
  C   C895      1.0  0.96040  0.87967  0.22460  1.0000
  C   C896      1.0  0.95531  0.87251  0.18811  1.0000
  C   C897      1.0  0.96642  0.86311  0.16318  1.0000
  H   H1424     1.0  0.84983  0.90655  0.37255  1.0000
  H   H1425     1.0  0.98101  0.88260  0.26371  1.0000
  H   H1426     1.0  0.94270  0.87434  0.17880  1.0000
  H   H1427     1.0  0.96228  0.85782  0.13519  1.0000
  H   H1428     1.0  0.84996  0.86647  0.46156  1.0000
  C   C898      1.0  0.80316  0.92340  0.40111  1.0000
  C   C899      1.0  0.75274  0.81463  0.32466  1.0000
  S   S366      1.0  0.82577  0.88620  0.41286  1.0000
  C   C900      1.0  0.79893  0.71341  0.15155  1.0000
  C   C901      1.0  0.80533  0.70905  0.11278  1.0000
  C   C902      1.0  0.82193  0.71162  0.10228  1.0000
  C   C903      1.0  0.83232  0.71808  0.13106  1.0000
  C   C904      1.0  0.82602  0.72192  0.17030  1.0000
  C   C905      1.0  0.80930  0.71991  0.18031  1.0000
  H   H1429     1.0  0.79739  0.70386  0.09056  1.0000
  H   H1430     1.0  0.82665  0.70865  0.07193  1.0000
  H   H1431     1.0  0.83417  0.72650  0.19289  1.0000
  H   H1432     1.0  0.80456  0.72299  0.21056  1.0000
  C   C906      1.0  0.76429  0.82366  0.34534  1.0000
  H   H1433     1.0  0.77306  0.81667  0.43290  1.0000
  C   C907      1.0  0.75776  0.80099  0.30098  1.0000
  C   C908      1.0  0.77444  0.79642  0.29733  1.0000
  C   C909      1.0  0.78600  0.80536  0.31833  1.0000
  C   C910      1.0  0.78094  0.81887  0.34253  1.0000
  N   N90       1.0  0.79507  0.92911  0.43958  1.0000
  H   H1434     1.0  0.88038  0.86779  0.46540  1.0000
  H   H1435     1.0  0.79892  0.80191  0.31565  1.0000
  H   H1436     1.0  0.78995  0.82578  0.35821  1.0000
  S   S367      1.0  0.85551  0.69185  0.02460  1.0000
  N   N91       1.0  0.77185  0.68291  0.27515  1.0000
  H   H1437     1.0  0.92584  0.77969  0.07104  1.0000
  H   H1438     1.0  0.77402  0.68942  0.33859  1.0000
  H   H1439     1.0  0.79551  0.94991  0.47912  1.0000
  H   H1440     1.0  0.78471  0.66296  0.30690  1.0000
  H   H1441     1.0  0.75612  0.69837  0.23709  1.0000
  C   C911      1.0  0.76236  0.78578  0.42779  1.0000
  C   C912      1.0  0.93023  0.77279  0.04472  1.0000
  C   C913      1.0  0.97750  0.97817  0.43929  1.0000
  H   H1442     1.0  0.90862  0.75782  0.04368  1.0000
  Fe  Fe184     1.0  0.77111  0.88093  0.48204  1.0000
  N   N92       1.0  0.90626  0.86514  0.30878  1.0000
  C   C914      1.0  0.90814  0.85847  0.26700  1.0000
  C   C915      1.0  0.90283  0.88316  0.30562  1.0000
  C   C916      1.0  0.92163  0.86184  0.33132  1.0000
  C   C917      1.0  0.89251  0.85719  0.33125  1.0000
  H   H1443     1.0  0.91081  0.84489  0.26810  1.0000
  H   H1444     1.0  0.91852  0.86431  0.24963  1.0000
  H   H1445     1.0  0.89683  0.86083  0.24891  1.0000
  H   H1446     1.0  0.90174  0.88867  0.33657  1.0000
  H   H1447     1.0  0.91284  0.88954  0.28830  1.0000
  H   H1448     1.0  0.89115  0.88614  0.28955  1.0000
  H   H1449     1.0  0.92467  0.84837  0.33415  1.0000
  H   H1450     1.0  0.92065  0.86670  0.36305  1.0000
  H   H1451     1.0  0.93225  0.86778  0.31535  1.0000
  H   H1452     1.0  0.89098  0.86200  0.36301  1.0000
  H   H1453     1.0  0.89462  0.84357  0.33421  1.0000
  H   H1454     1.0  0.88063  0.85961  0.31554  1.0000
  N   N93       1.0  0.81275  0.77222  0.16475  1.0000
  C   C918      1.0  0.82922  0.77901  0.15717  1.0000
  C   C919      1.0  0.80900  0.76106  0.13113  1.0000
  C   C920      1.0  0.80028  0.78592  0.16635  1.0000
  C   C921      1.0  0.81256  0.76292  0.20445  1.0000
  H   H1455     1.0  0.83251  0.78739  0.18208  1.0000
  H   H1456     1.0  0.82982  0.78613  0.12747  1.0000
  H   H1457     1.0  0.83890  0.76893  0.15566  1.0000
  H   H1458     1.0  0.79715  0.75484  0.13696  1.0000
  H   H1459     1.0  0.80817  0.76785  0.10104  1.0000
  H   H1460     1.0  0.81871  0.75116  0.12752  1.0000
  H   H1461     1.0  0.78774  0.78120  0.17226  1.0000
  H   H1462     1.0  0.80002  0.79331  0.13707  1.0000
  H   H1463     1.0  0.80076  0.93217  0.37490  1.0000
  H   H1464     1.0  0.96579  0.98140  0.42331  1.0000
  C   C922      1.0  0.80139  0.94533  0.45015  1.0000
  H   H1465     1.0  0.76486  0.68061  0.21214  1.0000
  C   C923      1.0  0.94563  0.77636  0.02649  1.0000
  H   H1466     1.0  0.97092  0.95714  0.37952  1.0000
  S   S368      1.0  0.95695  0.79288  0.04623  1.0000
  Fe  Fe185     1.0  0.76285  0.76228  0.24220  1.0000
  S   S369      1.0  0.78129  0.77997  0.26589  1.0000
  H   H1467     1.0  0.95554  0.95438  0.44586  1.0000
  C   C924      1.0  0.75977  0.68510  0.24205  1.0000
  S   S370      1.0  0.97884  0.83392  0.03384  1.0000
  Fe  Fe186     1.0  0.88234  0.68522  0.01548  1.0000
  C   C925      1.0  0.78707  0.69140  0.26284  1.0000
  C   C926      1.0  0.98255  0.95463  0.39631  1.0000
  S   S371      1.0  0.76306  0.75585  0.17543  1.0000
  H   H1468     1.0  0.79872  0.91110  0.39250  1.0000
  C   C927      1.0  0.76493  0.69000  0.31353  1.0000
  C   C928      1.0  0.92042  0.76035  0.02932  1.0000
  N   N94       1.0  0.98107  0.96014  0.43923  1.0000
  H   H1469     1.0  0.96964  0.93786  0.46045  1.0000
  C   C929      1.0  0.98794  0.86789  0.21085  1.0000
  S   S372      1.0  0.76230  0.85479  0.48369  1.0000
  C   C930      1.0  0.77711  0.93066  0.43393  1.0000
  H   H1470     1.0  0.77192  0.91854  0.42655  1.0000
  H   H1471     1.0  0.79248  0.68651  0.23362  1.0000
  S   S373      1.0  0.86438  0.73086  0.00159  1.0000
  C   C931      1.0  0.96753  0.95151  0.46073  1.0000
  H   H1472     1.0  0.76848  0.81894  0.48664  1.0000
  C   C932      1.0  0.77135  0.80973  0.46257  1.0000
  H   H1473     1.0  0.81673  0.92189  0.40443  1.0000
  H   H1474     1.0  0.77061  0.93492  0.46245  1.0000
  H   H1475     1.0  0.81492  0.94453  0.45471  1.0000
  H   H1476     1.0  0.98741  0.98511  0.42311  1.0000
  H   H1477     1.0  0.79387  0.90473  0.46627  1.0000
  H   H1478     1.0  0.74876  0.79427  0.28482  1.0000
  H   H1479     1.0  0.94487  0.82413  0.00650  1.0000
  H   H1480     1.0  0.75261  0.77658  0.42494  1.0000
  H   H1481     1.0  0.75398  0.68325  0.32495  1.0000
  H   H1482     1.0  0.81207  0.91519  0.47802  1.0000
  H   H1483     1.0  0.97624  0.98278  0.47117  1.0000
  C   C933      1.0  0.92573  0.75146  0.99488  1.0000
  Fe  Fe187     1.0  0.89100  0.72193  0.99549  1.0000
  H   H1484     1.0  0.74841  0.67828  0.24929  1.0000
  H   H1485     1.0  0.99250  0.96103  0.37893  1.0000
  S   S374      1.0  0.75084  0.71931  0.76927  1.0000
  S   S375      1.0  0.76800  0.74198  0.69655  1.0000
  H   H1486     1.0  0.94543  0.74819  0.95014  1.0000
  Fe  Fe188     1.0  0.76826  0.74039  0.76599  1.0000
  S   S376      1.0  0.79093  0.74659  0.80302  1.0000
  C   C934      1.0  0.95995  0.80915  0.94234  1.0000
  H   H1487     1.0  0.77548  0.77546  0.62678  1.0000
  C   C935      1.0  0.94114  0.75503  0.97666  1.0000
  S   S377      1.0  0.75802  0.90405  0.50820  1.0000
  S   S378      1.0  0.83841  0.70236  0.91972  1.0000
  Fe  Fe189     1.0  0.74874  0.72240  0.70013  1.0000
  H   H1488     1.0  0.79658  0.80795  0.68470  1.0000
  S   S379      1.0  0.88429  0.70050  0.95672  1.0000
  Fe  Fe190     1.0  0.85772  0.70814  0.96742  1.0000
  H   H1489     1.0  0.76803  0.78240  0.50945  1.0000
  Fe  Fe191     1.0  0.78762  0.84689  0.50378  1.0000
  H   H1490     1.0  0.94300  0.84794  0.93197  1.0000
  S   S380      1.0  0.79285  0.82457  0.54698  1.0000
  H   H1491     1.0  0.85911  0.66990  0.89883  1.0000
  S   S381      1.0  0.79585  0.87323  0.50820  1.0000
  H   H1492     1.0  0.98883  0.89522  0.69415  1.0000
  C   C936      1.0  0.93522  0.81766  0.90716  1.0000
  C   C937      1.0  0.95293  0.83819  0.93333  1.0000
  C   C938      1.0  0.98048  0.90981  0.51791  1.0000
  C   C939      1.0  0.98315  0.86287  0.70787  1.0000
  C   C940      1.0  0.86238  0.66362  0.92855  1.0000
  H   H1493     1.0  0.99244  0.87373  0.86444  1.0000
  C   C941      1.0  0.98534  0.91039  0.55926  1.0000
  H   H1494     1.0  0.79260  0.92076  0.50282  1.0000
  H   H1495     1.0  0.77500  0.80787  0.69671  1.0000
  S   S382      1.0  0.74797  0.75982  0.77270  1.0000
  H   H1496     1.0  0.92997  0.80519  0.91218  1.0000
  H   H1497     1.0  0.94190  0.81765  0.87692  1.0000
  H   H1498     1.0  0.86374  0.67350  0.95103  1.0000
  N   N95       1.0  0.94625  0.82157  0.94079  1.0000
  C   C942      1.0  0.75728  0.79527  0.63172  1.0000
  C   C943      1.0  0.80358  0.73407  0.83640  1.0000
  C   C944      1.0  0.80222  0.71691  0.84015  1.0000
  C   C945      1.0  0.81290  0.70749  0.86595  1.0000
  C   C946      1.0  0.82499  0.71506  0.88870  1.0000
  C   C947      1.0  0.82621  0.73226  0.88536  1.0000
  C   C948      1.0  0.81563  0.74166  0.85923  1.0000
  H   H1499     1.0  0.79308  0.71086  0.82276  1.0000
  H   H1500     1.0  0.81183  0.69421  0.86813  1.0000
  H   H1501     1.0  0.83545  0.73828  0.90246  1.0000
  H   H1502     1.0  0.81686  0.75491  0.85659  1.0000
  S   S383      1.0  0.75224  0.70207  0.65222  1.0000
  H   H1503     1.0  0.96800  0.81124  0.96864  1.0000
  C   C949      1.0  0.76334  0.82031  0.59057  1.0000
  C   C950      1.0  0.77850  0.81334  0.57786  1.0000
  C   C951      1.0  0.78275  0.79710  0.59120  1.0000
  C   C952      1.0  0.77210  0.78801  0.61738  1.0000
  H   H1504     1.0  0.95534  0.79642  0.94654  1.0000
  H   H1505     1.0  0.75989  0.83279  0.58070  1.0000
  H   H1506     1.0  0.79439  0.79151  0.58126  1.0000
  N   N96       1.0  0.78992  0.79260  0.73719  1.0000
  C   C953      1.0  0.78892  0.77773  0.71217  1.0000
  C   C954      1.0  0.77699  0.79228  0.76984  1.0000
  C   C955      1.0  0.78741  0.80754  0.71062  1.0000
  C   C956      1.0  0.80625  0.79270  0.75608  1.0000
  H   H1507     1.0  0.79164  0.76624  0.73059  1.0000
  H   H1508     1.0  0.79775  0.77795  0.68557  1.0000
  H   H1509     1.0  0.77639  0.77668  0.69995  1.0000
  H   H1510     1.0  0.77832  0.78096  0.78994  1.0000
  H   H1511     1.0  0.77745  0.80320  0.78977  1.0000
  H   H1512     1.0  0.76449  0.79229  0.75645  1.0000
  H   H1513     1.0  0.78837  0.81905  0.72823  1.0000
  H   H1514     1.0  0.96136  0.84147  0.95811  1.0000
  H   H1515     1.0  0.99433  0.87654  0.63654  1.0000
  H   H1516     1.0  0.80751  0.80374  0.77529  1.0000
  H   H1517     1.0  0.81627  0.79275  0.73222  1.0000
  H   H1518     1.0  0.80835  0.78150  0.77631  1.0000
  H   H1519     1.0  0.97329  0.86941  0.68989  1.0000
  H   H1520     1.0  0.97604  0.91101  0.58350  1.0000
  H   H1521     1.0  0.96757  0.90993  0.51065  1.0000
  H   H1522     1.0  0.74664  0.77953  0.49982  1.0000
  H   H1523     1.0  0.96624  0.95507  0.49346  1.0000
  H   H1524     1.0  0.96027  0.83887  0.90405  1.0000
  H   H1525     1.0  0.92636  0.83023  0.98034  1.0000
  H   H1526     1.0  0.75290  0.79760  0.52543  1.0000
  H   H1527     1.0  0.97945  0.86336  0.74101  1.0000
  C   C957      1.0  0.93694  0.82118  0.98036  1.0000
  H   H1528     1.0  0.92474  0.82680  0.90496  1.0000
  H   H1529     1.0  0.96777  0.80953  0.91385  1.0000
  C   C958      1.0  0.75288  0.81138  0.61762  1.0000
  Fe  Fe192     1.0  0.74686  0.76021  0.70343  1.0000
  S   S384      1.0  0.91336  0.73650  0.97194  1.0000
  H   H1530     1.0  0.75484  0.68486  0.57624  1.0000
  H   H1531     1.0  0.82983  0.66728  0.91886  1.0000
  H   H1532     1.0  0.93209  0.80867  0.98741  1.0000
  C   C959      1.0  0.75633  0.78890  0.50043  1.0000
  H   H1533     1.0  0.96301  0.76953  0.97858  1.0000
  H   H1534     1.0  0.98351  0.84966  0.69903  1.0000
  H   H1535     1.0  0.83462  0.67108  0.97095  1.0000
  H   H1536     1.0  0.99486  0.88912  0.74550  1.0000
  C   C960      1.0  0.95112  0.76722  0.99261  1.0000
