data_image0
_chemical_formula_structural       CSCSH2FeSFeHNHFeHSH2CHCH2SHC6H4NC4H9SC2SH3SC3H3CHFeSH2CHCHCHFeS2FeH2SFeH2FeHSHCHCHCHC2HCH2C3H4SCH2SCHNHSH2SCH2NFeHFeNH4C3H2CH2SHCH2FeC2HSHC6H7S2H2CNH5SFeH2FeH2CH4CH2C2HCFeHSHSH2SC3SC2SH2C6H2CHCHC4H2FeHCHSCSHC2HCHNH3SFeCFeS2CHC6H2CHC2HCHFeH2SH5CSFeH2CH3CHCH6CHN2H2CHSHFe2HSHCHSHC6H4CSHC3H4C2HS2FeSH2Fe2S3C6H4CHCH2SH4CHCH3S2NC4NH6FeH5CHSHFeSHSHFe2SCS2HS2CHSFeSNHCHFeH2C6H6CH5C2H2SH2NC4H11CHCHFeSCHNC4HFeSHSHC2SH2FeSH2FeS2C2HCH2CSHSH10SCH3C5FeH4CSH2CNCHC2HCH5C2H6CSN2FeH4C2HSHC2HSFeSC2HCS2H2FeSC3HC4H2NHC2HC3H4C7H3SH3NH6FeH2CH4CHCS2CHCSFeCHC2H7SH2CHNCH2NCH4CNHC2SCH7SC2HFeSFeS2FeSFeS3H3CHC2HC2H5SC3H9C2H2CHC2HC3SH3SC4HCH2NH4SCHCSCH2CHFeNH4FeH2C2H2SHC2SNH2SHCFe2SCHCH2C6H4FeH2S2HCHS2H2CSHFeCH2CH2CHCH4SHC2HCHFeS2Fe2SHSHC6H4CNH5NHSH2CHC2H2SHCHSC6H5C3HCH2CNCHCH2CH6SH3CSNSHFeSFeSH3C6H4C3HC2H2CH2FeS2CFeC3HCFeHCNHCHCH6SHCFeSHCH3SHCH5S2H2FeH2SH5C6H4NC2HCHC2H2CHSH2CH8SHSNFe2S2CHC7H4C2H2FeH2SFeH2SFeC2H4CSH4CHCHFeS2FeSFeSFeHSH5SCH4FeSHCHSC6H5CH4C2SH3CSH3NC4H2CHC2SNH2NCHN2HCH3SCH3CHFeSHFeSHFeHFeS4HC6H5CHNFeH2FeH4C2SHSHSH3CNH6SHNH2NCHC2H3CHC2HFeH2CHC2S2H2C2HC4HCSHC3NCH2CH2CHCH2CH2CH2FeH4C2HCHSH2FeS3C7H8CHCFeCHFeSCH3NSH2FeCSH3SH2C3H5C2H2C4H2CHC2HSC2HCHC2HFeH3SCH2C2FeH3CHSH3CH3FeC3HC2H5CSHSH4C3HCSH6CHCH2C2HNHSHCFeS2CH3CH5C2HSC2H2C2FeHNSH2CH2CSCHCNCH3CHCSH2SFeSFeSCSCFeSHC2FeH2C2H2FeSHSCH5S2C2HCHNCHC2H2CHCHCFeSFeH4FeC2FeCHNH3SHCH3CHCS2H
_chemical_formula_sum              "C480 S192 H768 Fe96 N48"
_cell_length_a       29.933
_cell_length_b       54.1033
_cell_length_c       52.0426
_cell_angle_alpha    90.0851
_cell_angle_beta     95.7734
_cell_angle_gamma    90.0336

_space_group_name_H-M_alt    "P 1"
_space_group_IT_number       1

loop_
  _space_group_symop_operation_xyz
  'x, y, z'

loop_
  _atom_site_type_symbol
  _atom_site_label
  _atom_site_symmetry_multiplicity
  _atom_site_fract_x
  _atom_site_fract_y
  _atom_site_fract_z
  _atom_site_occupancy
  C   C1        1.0  0.47228  0.25462  0.24483  1.0000
  S   S1        1.0  0.39486  0.06195  0.08638  1.0000
  C   C2        1.0  0.04852  0.11476  0.44600  1.0000
  S   S2        1.0  0.45996  0.21400  0.15258  1.0000
  H   H1        1.0  0.41208  0.12115  0.42771  1.0000
  H   H2        1.0  0.50041  0.19751  0.30849  1.0000
  Fe  Fe1       1.0  0.47779  0.18975  0.12043  1.0000
  S   S3        1.0  0.42191  0.17730  0.09107  1.0000
  Fe  Fe2       1.0  0.51030  0.19234  0.17790  1.0000
  H   H3        1.0  0.18737  0.04388  0.23083  1.0000
  N   N1        1.0  0.06754  0.05857  0.50907  1.0000
  H   H4        1.0  0.46345  0.18004  0.26775  1.0000
  Fe  Fe3       1.0  0.33270  0.04768  0.06317  1.0000
  H   H5        1.0  0.22471  0.05692  0.25651  1.0000
  S   S4        1.0  0.47232  0.23066  0.35604  1.0000
  H   H6        1.0  0.11022  0.04028  0.48418  1.0000
  H   H7        1.0  0.29791  0.10723  0.38657  1.0000
  C   C3        1.0  0.49515  0.18965  0.26764  1.0000
  H   H8        1.0  0.39025  0.09171  0.16379  1.0000
  C   C4        1.0  0.47582  0.15046  0.45247  1.0000
  H   H9        1.0  0.37417  0.10749  0.13401  1.0000
  H   H10       1.0  0.43112  0.10907  0.14848  1.0000
  S   S5        1.0  0.52293  0.16547  0.14655  1.0000
  H   H11       1.0  0.13308  0.20052  0.44636  1.0000
  C   C5        1.0  0.40349  0.09385  0.08485  1.0000
  C   C6        1.0  0.36973  0.10962  0.07403  1.0000
  C   C7        1.0  0.37608  0.13533  0.07530  1.0000
  C   C8        1.0  0.41597  0.14520  0.08754  1.0000
  C   C9        1.0  0.45010  0.12937  0.09766  1.0000
  C   C10       1.0  0.44399  0.10373  0.09620  1.0000
  H   H12       1.0  0.33840  0.10202  0.06519  1.0000
  H   H13       1.0  0.34961  0.14754  0.06732  1.0000
  H   H14       1.0  0.48109  0.13679  0.10678  1.0000
  H   H15       1.0  0.47020  0.09150  0.10447  1.0000
  N   N2        1.0  0.38452  0.13126  0.16730  1.0000
  C   C11       1.0  0.41463  0.13279  0.19157  1.0000
  C   C12       1.0  0.39065  0.15347  0.15151  1.0000
  C   C13       1.0  0.33735  0.12991  0.17326  1.0000
  C   C14       1.0  0.39546  0.10892  0.15279  1.0000
  H   H16       1.0  0.45048  0.13443  0.18773  1.0000
  H   H17       1.0  0.41166  0.11619  0.20387  1.0000
  H   H18       1.0  0.40704  0.14930  0.20319  1.0000
  H   H19       1.0  0.36800  0.15323  0.13316  1.0000
  H   H20       1.0  0.38387  0.17076  0.16207  1.0000
  H   H21       1.0  0.42557  0.15477  0.14614  1.0000
  H   H22       1.0  0.33156  0.11342  0.18527  1.0000
  H   H23       1.0  0.31389  0.12860  0.15527  1.0000
  H   H24       1.0  0.32791  0.14659  0.18405  1.0000
  S   S6        1.0  0.48676  0.18036  0.21571  1.0000
  C   C15       1.0  0.37194  0.15471  0.38123  1.0000
  C   C16       1.0  0.10366  0.07468  0.52118  1.0000
  S   S7        1.0  0.40856  0.16615  0.35957  1.0000
  H   H25       1.0  0.51663  0.10902  0.47109  1.0000
  H   H26       1.0  0.46972  0.14668  0.47283  1.0000
  H   H27       1.0  0.10750  0.09162  0.50952  1.0000
  S   S8        1.0  0.50310  0.27794  0.14832  1.0000
  C   C17       1.0  0.52170  0.11396  0.45085  1.0000
  C   C18       1.0  0.17638  0.04438  0.29525  1.0000
  C   C19       1.0  0.34592  0.13363  0.37451  1.0000
  H   H28       1.0  0.49745  0.24804  0.26055  1.0000
  H   H29       1.0  0.16858  0.06881  0.24987  1.0000
  H   H30       1.0  0.51105  0.11515  0.05306  1.0000
  C   C20       1.0  0.54283  0.12495  0.05985  1.0000
  H   H31       1.0  0.34805  0.12491  0.35594  1.0000
  Fe  Fe4       1.0  0.51804  0.23741  0.14372  1.0000
  S   S9        1.0  0.26268  0.04994  0.07485  1.0000
  H   H32       1.0  0.41692  0.27516  0.05325  1.0000
  H   H33       1.0  0.50711  0.16892  0.07084  1.0000
  C   C21       1.0  0.49078  0.13339  0.41132  1.0000
  H   H34       1.0  0.44651  0.16107  0.44343  1.0000
  C   C22       1.0  0.18915  0.05165  0.25078  1.0000
  H   H35       1.0  0.14816  0.15057  0.39866  1.0000
  C   C23       1.0  0.07968  0.12317  0.46586  1.0000
  H   H36       1.0  0.23625  0.17328  0.42295  1.0000
  Fe  Fe5       1.0  0.23526  0.08945  0.43045  1.0000
  S   S10       1.0  0.18340  0.08298  0.39671  1.0000
  S   S11       1.0  0.28098  0.12260  0.43847  1.0000
  Fe  Fe6       1.0  0.13458  0.07798  0.42646  1.0000
  H   H37       1.0  0.19311  0.18905  0.40283  1.0000
  H   H38       1.0  0.21757  0.15105  0.46205  1.0000
  S   S12       1.0  0.18494  0.08748  0.45943  1.0000
  Fe  Fe7       1.0  0.46361  0.19315  0.37357  1.0000
  H   H39       1.0  0.52825  0.09662  0.44034  1.0000
  H   H40       1.0  0.19162  0.13492  0.41855  1.0000
  Fe  Fe8       1.0  0.49704  0.24239  0.39651  1.0000
  H   H41       1.0  0.19406  0.17903  0.47345  1.0000
  S   S13       1.0  0.48248  0.20563  0.41429  1.0000
  H   H42       1.0  0.49444  0.11646  0.39957  1.0000
  C   C24       1.0  0.18635  0.16230  0.46134  1.0000
  H   H43       1.0  0.10101  0.17248  0.44287  1.0000
  C   C25       1.0  0.31498  0.13474  0.41584  1.0000
  H   H44       1.0  0.13499  0.13444  0.42690  1.0000
  C   C26       1.0  0.44191  0.11174  0.43781  1.0000
  H   H45       1.0  0.52189  0.14451  0.41078  1.0000
  C   C27       1.0  0.36900  0.16595  0.40519  1.0000
  C   C28       1.0  0.34057  0.15599  0.42243  1.0000
  H   H46       1.0  0.09209  0.14795  0.49831  1.0000
  C   C29       1.0  0.51607  0.19956  0.29075  1.0000
  H   H47       1.0  0.38832  0.18244  0.41033  1.0000
  H   H48       1.0  0.33853  0.16475  0.44098  1.0000
  C   C30       1.0  0.31753  0.12361  0.39179  1.0000
  C   C31       1.0  0.16073  0.14624  0.41900  1.0000
  C   C32       1.0  0.52974  0.26360  0.21685  1.0000
  H   H49       1.0  0.16123  0.15130  0.47070  1.0000
  H   H50       1.0  0.46112  0.23818  0.23294  1.0000
  H   H51       1.0  0.44604  0.09398  0.42751  1.0000
  H   H52       1.0  0.11437  0.18884  0.41470  1.0000
  S   S14       1.0  0.53213  0.21483  0.10918  1.0000
  C   C33       1.0  0.51484  0.19228  0.24447  1.0000
  H   H53       1.0  0.11341  0.11625  0.46754  1.0000
  H   H54       1.0  0.09668  0.08067  0.54084  1.0000
  S   S15       1.0  0.25429  0.04949  0.43564  1.0000
  C   C34       1.0  0.20421  0.18381  0.42314  1.0000
  H   H55       1.0  0.43376  0.10736  0.45770  1.0000
  N   N3        1.0  0.48252  0.12736  0.43813  1.0000
  H   H56       1.0  0.50581  0.16274  0.45290  1.0000
  S   S16       1.0  0.53341  0.18067  0.36802  1.0000
  H   H57       1.0  0.21199  0.20112  0.43428  1.0000
  H   H58       1.0  0.44285  0.26160  0.25413  1.0000
  S   S17       1.0  0.47391  0.27672  0.41609  1.0000
  C   C35       1.0  0.12778  0.18337  0.43459  1.0000
  H   H59       1.0  0.15717  0.06195  0.29574  1.0000
  H   H60       1.0  0.46275  0.14436  0.40146  1.0000
  N   N4        1.0  0.16973  0.16894  0.43452  1.0000
  Fe  Fe9       1.0  0.19839  0.04260  0.40383  1.0000
  H   H61       1.0  0.21185  0.04823  0.30276  1.0000
  Fe  Fe10      1.0  0.19940  0.04702  0.46191  1.0000
  N   N5        1.0  0.49136  0.27392  0.22905  1.0000
  H   H62       1.0  0.13668  0.06499  0.52303  1.0000
  H   H63       1.0  0.37573  0.27444  0.07618  1.0000
  H   H64       1.0  0.10337  0.04374  0.26122  1.0000
  H   H65       1.0  0.44528  0.26702  0.19536  1.0000
  C   C36       1.0  0.39758  0.28683  0.06584  1.0000
  C   C37       1.0  0.45674  0.28240  0.20870  1.0000
  C   C38       1.0  0.07841  0.05105  0.48311  1.0000
  H   H66       1.0  0.51918  0.24737  0.20458  1.0000
  H   H67       1.0  0.53983  0.27238  0.09887  1.0000
  C   C39       1.0  0.06746  0.14104  0.48338  1.0000
  H   H68       1.0  0.08264  0.06737  0.47063  1.0000
  H   H69       1.0  0.05146  0.03937  0.47304  1.0000
  S   S18       1.0  0.06444  0.09393  0.42246  1.0000
  H   H70       1.0  0.54272  0.12801  0.08096  1.0000
  C   C40       1.0  0.50831  0.16457  0.05001  1.0000
  H   H71       1.0  0.54420  0.27739  0.20410  1.0000
  H   H72       1.0  0.05563  0.04119  0.54492  1.0000
  Fe  Fe11      1.0  0.54379  0.21900  0.35380  1.0000
  C   C41       1.0  0.11135  0.19423  0.91901  1.0000
  C   C42       1.0  0.10033  0.22895  0.94686  1.0000
  H   H73       1.0  0.12342  0.11816  0.00166  1.0000
  S   S19       1.0  0.18611  0.08229  0.02277  1.0000
  H   H74       1.0  0.14527  0.17278  0.96342  1.0000
  C   C43       1.0  0.17563  0.09389  0.99119  1.0000
  C   C44       1.0  0.14134  0.11137  0.98604  1.0000
  C   C45       1.0  0.12977  0.11985  0.96078  1.0000
  C   C46       1.0  0.15328  0.11142  0.94060  1.0000
  C   C47       1.0  0.18858  0.09455  0.94588  1.0000
  C   C48       1.0  0.19942  0.08554  0.97110  1.0000
  H   H75       1.0  0.07512  0.18952  0.91865  1.0000
  H   H76       1.0  0.11205  0.23907  0.96491  1.0000
  H   H77       1.0  0.18898  0.22306  0.96077  1.0000
  H   H78       1.0  0.47582  0.15553  0.04313  1.0000
  H   H79       1.0  0.06437  0.22406  0.94792  1.0000
  H   H80       1.0  0.12994  0.17673  0.91623  1.0000
  H   H81       1.0  0.35627  0.28291  0.01735  1.0000
  S   S20       1.0  0.13979  0.12224  0.90888  1.0000
  S   S21       1.0  0.04790  0.16294  0.86943  1.0000
  H   H82       1.0  0.13511  0.19841  0.98405  1.0000
  H   H83       1.0  0.10306  0.13310  0.95700  1.0000
  C   C49       1.0  0.12410  0.18952  0.96518  1.0000
  N   N6        1.0  0.12778  0.20668  0.94342  1.0000
  H   H84       1.0  0.08880  0.18316  0.96583  1.0000
  H   H85       1.0  0.06837  0.04178  0.95824  1.0000
  H   H86       1.0  0.11511  0.20621  0.90200  1.0000
  H   H87       1.0  0.20716  0.08811  0.93037  1.0000
  H   H88       1.0  0.22606  0.07213  0.97494  1.0000
  S   S22       1.0  0.31348  0.05589  0.02119  1.0000
  Fe  Fe12      1.0  0.24255  0.05494  0.03226  1.0000
  H   H89       1.0  0.31515  0.28181  0.04031  1.0000
  H   H90       1.0  0.08370  0.25601  0.86174  1.0000
  Fe  Fe13      1.0  0.06741  0.13189  0.89704  1.0000
  H   H91       1.0  0.10147  0.24208  0.93047  1.0000
  H   H92       1.0  0.17892  0.22705  0.92640  1.0000
  C   C50       1.0  0.17521  0.21390  0.94251  1.0000
  H   H93       1.0  0.19659  0.19750  0.93946  1.0000
  H   H94       1.0  0.08998  0.07262  0.96034  1.0000
  H   H95       1.0  0.50999  0.18249  0.03970  1.0000
  H   H96       1.0  0.08739  0.07314  0.00758  1.0000
  C   C51       1.0  0.05981  0.25702  0.87599  1.0000
  H   H97       1.0  0.06710  0.04204  0.00611  1.0000
  H   H98       1.0  0.04674  0.10570  0.98217  1.0000
  C   C52       1.0  0.05089  0.27985  0.88724  1.0000
  C   C53       1.0  0.05846  0.06159  0.95842  1.0000
  H   H99       1.0  0.51698  0.13392  0.00997  1.0000
  C   C54       1.0  0.05630  0.06171  0.00472  1.0000
  Fe  Fe14      1.0  0.40361  0.42049  0.07586  1.0000
  H   H100      1.0  0.47378  0.47029  0.33088  1.0000
  S   S23       1.0  0.39048  0.43377  0.11546  1.0000
  H   H101      1.0  0.39870  0.49593  0.40092  1.0000
  S   S24       1.0  0.39492  0.37989  0.06806  1.0000
  H   H102      1.0  0.31671  0.49489  0.39892  1.0000
  H   H103      1.0  0.30648  0.39827  0.54278  1.0000
  S   S25       1.0  0.47189  0.42236  0.06143  1.0000
  C   C55       1.0  0.48441  0.50956  0.33407  1.0000
  C   C56       1.0  0.34648  0.32106  0.06838  1.0000
  C   C57       1.0  0.52674  0.30707  0.07898  1.0000
  S   S26       1.0  0.51019  0.35104  0.05363  1.0000
  C   C58       1.0  0.43980  0.48962  0.29844  1.0000
  C   C59       1.0  0.46638  0.48812  0.32216  1.0000
  S   S27       1.0  0.39808  0.51332  0.25661  1.0000
  H   H104      1.0  0.54318  0.30160  0.06228  1.0000
  H   H105      1.0  0.31562  0.52678  0.38943  1.0000
  C   C60       1.0  0.38536  0.46588  0.11994  1.0000
  C   C61       1.0  0.38304  0.47520  0.14494  1.0000
  C   C62       1.0  0.37870  0.50072  0.14907  1.0000
  C   C63       1.0  0.35302  0.47720  0.35760  1.0000
  C   C64       1.0  0.37809  0.50771  0.10311  1.0000
  C   C65       1.0  0.38306  0.48220  0.09902  1.0000
  H   H106      1.0  0.38484  0.46264  0.16117  1.0000
  H   H107      1.0  0.37720  0.50771  0.16845  1.0000
  C   C66       1.0  0.43101  0.51253  0.28647  1.0000
  H   H108      1.0  0.38488  0.47515  0.07969  1.0000
  C   C67       1.0  0.50792  0.33076  0.07996  1.0000
  H   H109      1.0  0.42648  0.47289  0.28912  1.0000
  C   C68       1.0  0.48540  0.32133  0.12241  1.0000
  C   C69       1.0  0.48672  0.33773  0.10159  1.0000
  C   C70       1.0  0.51601  0.30842  0.38464  1.0000
  C   C71       1.0  0.39630  0.50767  0.38333  1.0000
  H   H110      1.0  0.47244  0.35604  0.10261  1.0000
  H   H111      1.0  0.26729  0.42978  0.51398  1.0000
  Fe  Fe15      1.0  0.46004  0.38246  0.05064  1.0000
  H   H112      1.0  0.52171  0.30983  0.23441  1.0000
  C   C72       1.0  0.52710  0.33205  0.37598  1.0000
  H   H113      1.0  0.39115  0.42450  0.52802  1.0000
  S   S28       1.0  0.51752  0.50800  0.36393  1.0000
  C   C73       1.0  0.37610  0.51700  0.12814  1.0000
  S   S29       1.0  0.37286  0.52285  0.53084  1.0000
  H   H114      1.0  0.52776  0.52464  0.27546  1.0000
  C   C74       1.0  0.47535  0.53257  0.32224  1.0000
  C   C75       1.0  0.31557  0.50751  0.38191  1.0000
  H   H115      1.0  0.37612  0.52024  0.08687  1.0000
  C   C76       1.0  0.25557  0.53688  0.13735  1.0000
  H   H116      1.0  0.32208  0.30977  0.07808  1.0000
  N   N7        1.0  0.35404  0.50309  0.36678  1.0000
  H   H117      1.0  0.28627  0.46128  0.51558  1.0000
  H   H118      1.0  0.47861  0.30336  0.25516  1.0000
  H   H119      1.0  0.49989  0.53151  0.24425  1.0000
  S   S30       1.0  0.48988  0.48122  0.42816  1.0000
  Fe  Fe16      1.0  0.50591  0.41801  0.39515  1.0000
  C   C77       1.0  0.47111  0.32732  0.41544  1.0000
  Fe  Fe17      1.0  0.43929  0.45101  0.41970  1.0000
  S   S31       1.0  0.36883  0.45625  0.43065  1.0000
  S   S32       1.0  0.48530  0.42080  0.43526  1.0000
  C   C78       1.0  0.51015  0.35337  0.38697  1.0000
  H   H120      1.0  0.34341  0.41600  0.50593  1.0000
  C   C79       1.0  0.36895  0.47393  0.45904  1.0000
  C   C80       1.0  0.32873  0.48350  0.46665  1.0000
  C   C81       1.0  0.32924  0.49836  0.48891  1.0000
  C   C82       1.0  0.37005  0.50381  0.50339  1.0000
  C   C83       1.0  0.40996  0.49389  0.49597  1.0000
  C   C84       1.0  0.40932  0.47872  0.47412  1.0000
  H   H121      1.0  0.29731  0.47972  0.45515  1.0000
  H   H122      1.0  0.29834  0.50612  0.49449  1.0000
  C   C85       1.0  0.35143  0.51991  0.34431  1.0000
  H   H123      1.0  0.44018  0.47053  0.46918  1.0000
  C   C86       1.0  0.50452  0.29772  0.12154  1.0000
  C   C87       1.0  0.48194  0.35094  0.40667  1.0000
  H   H124      1.0  0.46826  0.36721  0.41506  1.0000
  C   C88       1.0  0.48800  0.30600  0.40443  1.0000
  H   H125      1.0  0.44151  0.49779  0.50730  1.0000
  Fe  Fe18      1.0  0.50795  0.47400  0.38805  1.0000
  H   H126      1.0  0.44923  0.32552  0.43067  1.0000
  H   H127      1.0  0.46988  0.32710  0.13933  1.0000
  S   S33       1.0  0.45430  0.44547  0.37860  1.0000
  H   H128      1.0  0.28302  0.50431  0.37007  1.0000
  H   H129      1.0  0.38139  0.47331  0.34588  1.0000
  H   H130      1.0  0.35558  0.46396  0.37407  1.0000
  H   H131      1.0  0.52908  0.29208  0.37601  1.0000
  H   H132      1.0  0.42604  0.50348  0.37295  1.0000
  C   C89       1.0  0.53326  0.53148  0.25586  1.0000
  S   S34       1.0  0.52658  0.38264  0.37630  1.0000
  Fe  Fe19      1.0  0.53753  0.45059  0.44056  1.0000
  H   H133      1.0  0.36987  0.32979  0.08379  1.0000
  H   H134      1.0  0.32138  0.47299  0.34528  1.0000
  C   C90       1.0  0.35747  0.43067  0.51942  1.0000
  H   H135      1.0  0.23171  0.52106  0.13608  1.0000
  H   H136      1.0  0.42686  0.29002  0.21705  1.0000
  H   H137      1.0  0.39920  0.52725  0.38983  1.0000
  C   C91       1.0  0.28317  0.44420  0.52714  1.0000
  H   H138      1.0  0.32020  0.51683  0.33119  1.0000
  C   C92       1.0  0.44831  0.53409  0.29855  1.0000
  H   H139      1.0  0.38023  0.51700  0.33266  1.0000
  H   H140      1.0  0.42503  0.33192  0.05194  1.0000
  H   H141      1.0  0.36271  0.44735  0.50763  1.0000
  H   H142      1.0  0.47006  0.29711  0.19656  1.0000
  H   H143      1.0  0.42245  0.29538  0.08063  1.0000
  H   H144      1.0  0.27258  0.53717  0.11927  1.0000
  C   C93       1.0  0.50681  0.29502  0.24573  1.0000
  H   H145      1.0  0.28215  0.53288  0.15335  1.0000
  N   N8        1.0  0.32733  0.43609  0.53954  1.0000
  N   N9        1.0  0.37112  0.30593  0.05078  1.0000
  H   H146      1.0  0.53286  0.28919  0.26135  1.0000
  H   H147      1.0  0.32736  0.33623  0.05777  1.0000
  C   C94       1.0  0.52473  0.29048  0.09963  1.0000
  H   H148      1.0  0.25950  0.44835  0.54178  1.0000
  S   S35       1.0  0.04945  0.35911  0.92998  1.0000
  H   H149      1.0  0.31828  0.30834  0.01978  1.0000
  Fe  Fe20      1.0  0.05780  0.34453  0.89012  1.0000
  Fe  Fe21      1.0  0.25722  0.49424  0.58768  1.0000
  H   H150      1.0  0.12785  0.42985  0.77535  1.0000
  S   S36       1.0  0.24426  0.45380  0.59502  1.0000
  H   H151      1.0  0.50073  0.49602  0.96925  1.0000
  C   C95       1.0  0.33876  0.29414  0.03119  1.0000
  H   H152      1.0  0.51395  0.42081  0.99523  1.0000
  S   S37       1.0  0.32617  0.51084  0.59474  1.0000
  H   H153      1.0  0.07654  0.45059  0.74213  1.0000
  C   C96       1.0  0.12561  0.43597  0.64082  1.0000
  C   C97       1.0  0.14375  0.45987  0.64132  1.0000
  C   C98       1.0  0.17974  0.46550  0.62706  1.0000
  C   C99       1.0  0.19822  0.44718  0.61244  1.0000
  C   C100      1.0  0.18030  0.42316  0.61206  1.0000
  C   C101      1.0  0.14376  0.41758  0.62609  1.0000
  H   H154      1.0  0.12993  0.47411  0.65279  1.0000
  H   H155      1.0  0.19371  0.48391  0.62782  1.0000
  H   H156      1.0  0.19458  0.40888  0.60084  1.0000
  H   H157      1.0  0.13003  0.39906  0.62573  1.0000
  C   C102      1.0  0.10738  0.39387  0.72186  1.0000
  S   S38       1.0  0.08160  0.42986  0.65985  1.0000
  H   H158      1.0  0.42275  0.31114  0.02519  1.0000
  C   C103      1.0  0.51934  0.47886  0.97070  1.0000
  C   C104      1.0  0.40178  0.32190  0.03768  1.0000
  C   C105      1.0  0.12344  0.41246  0.76393  1.0000
  H   H159      1.0  0.13717  0.38160  0.72531  1.0000
  H   H160      1.0  0.14581  0.43512  0.70558  1.0000
  H   H161      1.0  0.35399  0.40715  0.56487  1.0000
  H   H162      1.0  0.06486  0.43705  0.71071  1.0000
  C   C106      1.0  0.34719  0.45592  0.55661  1.0000
  C   C107      1.0  0.32142  0.41365  0.55501  1.0000
  H   H163      1.0  0.38320  0.33610  0.02542  1.0000
  S   S39       1.0  0.42727  0.39100  0.01095  1.0000
  S   S40       1.0  0.30780  0.36645  0.00951  1.0000
  Fe  Fe22      1.0  0.43292  0.43066  0.02324  1.0000
  S   S41       1.0  0.45025  0.46111  0.99628  1.0000
  H   H164      1.0  0.41187  0.41676  0.92637  1.0000
  H   H165      1.0  0.32592  0.46003  0.57241  1.0000
  Fe  Fe23      1.0  0.36252  0.39098  0.02908  1.0000
  Fe  Fe24      1.0  0.08926  0.39178  0.91780  1.0000
  S   S42       1.0  0.14205  0.41440  0.94172  1.0000
  S   S43       1.0  0.36495  0.43154  0.03843  1.0000
  S   S44       1.0  0.07822  0.30646  0.87736  1.0000
  C   C108      1.0  0.26124  0.37992  0.99126  1.0000
  C   C109      1.0  0.23132  0.36477  0.97583  1.0000
  C   C110      1.0  0.19446  0.37506  0.96061  1.0000
  C   C111      1.0  0.18735  0.40060  0.96078  1.0000
  C   C112      1.0  0.21733  0.41574  0.97622  1.0000
  C   C113      1.0  0.25407  0.40544  0.99150  1.0000
  H   H166      1.0  0.23665  0.34501  0.97558  1.0000
  H   H167      1.0  0.17152  0.36328  0.94876  1.0000
  H   H168      1.0  0.21173  0.43549  0.97657  1.0000
  H   H169      1.0  0.27656  0.41722  0.00360  1.0000
  C   C114      1.0  0.15217  0.43098  0.72664  1.0000
  H   H170      1.0  0.38109  0.45082  0.56578  1.0000
  C   C115      1.0  0.50246  0.45862  0.98355  1.0000
  H   H171      1.0  0.41932  0.41965  0.96091  1.0000
  H   H172      1.0  0.29862  0.41725  0.57029  1.0000
  S   S45       1.0  0.22330  0.52770  0.60234  1.0000
  H   H173      1.0  0.41730  0.44676  0.94136  1.0000
  H   H174      1.0  0.07789  0.38354  0.72767  1.0000
  H   H175      1.0  0.06005  0.36609  0.82114  1.0000
  H   H176      1.0  0.34519  0.45921  0.91665  1.0000
  C   C116      1.0  0.07291  0.43272  0.73155  1.0000
  H   H177      1.0  0.29512  0.44144  0.91941  1.0000
  C   C117      1.0  0.52666  0.43649  0.98534  1.0000
  H   H178      1.0  0.18367  0.41997  0.72939  1.0000
  H   H179      1.0  0.09543  0.40200  0.77138  1.0000
  H   H180      1.0  0.33928  0.42897  0.90228  1.0000
  S   S46       1.0  0.06202  0.35586  0.66811  1.0000
  S   S47       1.0  0.10179  0.37586  0.87929  1.0000
  N   N10       1.0  0.35325  0.42914  0.94360  1.0000
  C   C118      1.0  0.40249  0.42797  0.94291  1.0000
  C   C119      1.0  0.34281  0.44455  0.96568  1.0000
  C   C120      1.0  0.33531  0.40393  0.94651  1.0000
  C   C121      1.0  0.33229  0.44018  0.91937  1.0000
  N   N11       1.0  0.11399  0.41751  0.73600  1.0000
  H   H181      1.0  0.30598  0.44585  0.96696  1.0000
  H   H182      1.0  0.35832  0.43676  0.98418  1.0000
  H   H183      1.0  0.35636  0.46365  0.96440  1.0000
  H   H184      1.0  0.29802  0.40404  0.94605  1.0000
  H   H185      1.0  0.34872  0.39549  0.96524  1.0000
  H   H186      1.0  0.34411  0.39145  0.93079  1.0000
  Fe  Fe25      1.0  0.31353  0.52468  0.55405  1.0000
  H   H187      1.0  0.05833  0.33785  0.78347  1.0000
  H   H188      1.0  0.15825  0.44893  0.73685  1.0000
  H   H189      1.0  0.10151  0.39697  0.70070  1.0000
  H   H190      1.0  0.15442  0.40120  0.76808  1.0000
  H   H191      1.0  0.07109  0.53287  0.57779  1.0000
  C   C122      1.0  0.05289  0.52154  0.56220  1.0000
  H   H192      1.0  0.07843  0.51540  0.54938  1.0000
  S   S48       1.0  0.24728  0.50546  0.54597  1.0000
  H   H193      1.0  0.35077  0.47341  0.54582  1.0000
  Fe  Fe26      1.0  0.43117  0.59451  0.21257  1.0000
  S   S49       1.0  0.37320  0.60161  0.18266  1.0000
  H   H194      1.0  0.51770  0.72760  0.11608  1.0000
  S   S50       1.0  0.06630  0.68045  0.25357  1.0000
  H   H195      1.0  0.49019  0.57471  0.25533  1.0000
  Fe  Fe27      1.0  0.37795  0.56106  0.17442  1.0000
  Fe  Fe28      1.0  0.32977  0.59033  0.21341  1.0000
  S   S51       1.0  0.25718  0.60227  0.21326  1.0000
  C   C123      1.0  0.26594  0.58088  0.14321  1.0000
  S   S52       1.0  0.38742  0.58696  0.24473  1.0000
  S   S53       1.0  0.49527  0.61681  0.21777  1.0000
  H   H196      1.0  0.51679  0.56969  0.28742  1.0000
  S   S54       1.0  0.06438  0.73111  0.21915  1.0000
  S   S55       1.0  0.08937  0.73471  0.28193  1.0000
  C   C124      1.0  0.13907  0.61984  0.50450  1.0000
  H   H197      1.0  0.06215  0.66653  0.37432  1.0000
  S   S56       1.0  0.33124  0.55002  0.20316  1.0000
  Fe  Fe29      1.0  0.11224  0.71240  0.24905  1.0000
  S   S57       1.0  0.18720  0.70652  0.24878  1.0000
  N   N12       1.0  0.23271  0.56058  0.14150  1.0000
  H   H198      1.0  0.07132  0.68885  0.41609  1.0000
  C   C125      1.0  0.52317  0.57428  0.26730  1.0000
  H   H199      1.0  0.17274  0.55026  0.11769  1.0000
  Fe  Fe30      1.0  0.06824  0.69297  0.51300  1.0000
  H   H200      1.0  0.28367  0.58214  0.12544  1.0000
  H   H201      1.0  0.23598  0.55569  0.18265  1.0000
  C   C126      1.0  0.23915  0.63183  0.22230  1.0000
  C   C127      1.0  0.26928  0.65002  0.23231  1.0000
  C   C128      1.0  0.25307  0.67311  0.23983  1.0000
  C   C129      1.0  0.20676  0.67814  0.23733  1.0000
  C   C130      1.0  0.17682  0.66003  0.22699  1.0000
  C   C131      1.0  0.19296  0.63696  0.21963  1.0000
  H   H202      1.0  0.30496  0.64627  0.23438  1.0000
  H   H203      1.0  0.27645  0.68706  0.24777  1.0000
  H   H204      1.0  0.14117  0.66374  0.22469  1.0000
  H   H205      1.0  0.16944  0.62301  0.21183  1.0000
  H   H206      1.0  0.19453  0.57726  0.16989  1.0000
  H   H207      1.0  0.46565  0.69093  0.06042  1.0000
  C   C132      1.0  0.50921  0.62553  0.14155  1.0000
  H   H208      1.0  0.06054  0.55246  0.52243  1.0000
  H   H209      1.0  0.29209  0.57796  0.15956  1.0000
  H   H210      1.0  0.09961  0.59939  0.52942  1.0000
  H   H211      1.0  0.22056  0.66622  0.29206  1.0000
  H   H212      1.0  0.21377  0.56636  0.10106  1.0000
  C   C133      1.0  0.16062  0.58003  0.52317  1.0000
  C   C134      1.0  0.19835  0.56526  0.11963  1.0000
  H   H213      1.0  0.49024  0.62086  0.12339  1.0000
  H   H214      1.0  0.45649  0.70440  0.09110  1.0000
  S   S58       1.0  0.43921  0.55473  0.20183  1.0000
  H   H215      1.0  0.11595  0.63520  0.50256  1.0000
  H   H216      1.0  0.46194  0.60811  0.16436  1.0000
  N   N13       1.0  0.17285  0.66342  0.32021  1.0000
  C   C135      1.0  0.20729  0.66386  0.34263  1.0000
  C   C136      1.0  0.15578  0.68872  0.31507  1.0000
  C   C137      1.0  0.13534  0.64716  0.32581  1.0000
  C   C138      1.0  0.19274  0.65408  0.29721  1.0000
  H   H217      1.0  0.22092  0.64505  0.34709  1.0000
  H   H218      1.0  0.19311  0.67093  0.36023  1.0000
  H   H219      1.0  0.23592  0.67607  0.33895  1.0000
  H   H220      1.0  0.14016  0.69648  0.33187  1.0000
  H   H221      1.0  0.18280  0.70153  0.31017  1.0000
  H   H222      1.0  0.12959  0.68882  0.29841  1.0000
  H   H223      1.0  0.10845  0.64675  0.30933  1.0000
  H   H224      1.0  0.11928  0.65380  0.34294  1.0000
  H   H225      1.0  0.14671  0.62784  0.32962  1.0000
  H   H226      1.0  0.16732  0.65353  0.28004  1.0000
  H   H227      1.0  0.20636  0.63508  0.30021  1.0000
  C   C139      1.0  0.21102  0.55941  0.16577  1.0000
  H   H228      1.0  0.48880  0.54923  0.33160  1.0000
  C   C140      1.0  0.49299  0.61835  0.16480  1.0000
  H   H229      1.0  0.44061  0.55184  0.28968  1.0000
  Fe  Fe31      1.0  0.39193  0.54753  0.23180  1.0000
  S   S59       1.0  0.07491  0.73325  0.50344  1.0000
  C   C141      1.0  0.51651  0.62476  0.18844  1.0000
  H   H230      1.0  0.18047  0.58300  0.12221  1.0000
  N   N14       1.0  0.52032  0.71315  0.07769  1.0000
  C   C142      1.0  0.17862  0.62053  0.49234  1.0000
  C   C143      1.0  0.12976  0.59945  0.51961  1.0000
  C   C144      1.0  0.19960  0.58035  0.51043  1.0000
  C   C145      1.0  0.54181  0.71893  0.10384  1.0000
  H   H231      1.0  0.49368  0.67859  0.08972  1.0000
  Fe  Fe32      1.0  0.08709  0.71959  0.46395  1.0000
  S   S60       1.0  0.19827  0.75384  0.53444  1.0000
  H   H232      1.0  0.22338  0.56529  0.51298  1.0000
  S   S61       1.0  0.14125  0.68822  0.52672  1.0000
  H   H233      1.0  0.35217  0.53963  0.35041  1.0000
  C   C146      1.0  0.20846  0.60056  0.49487  1.0000
  C   C147      1.0  0.06174  0.69889  0.39847  1.0000
  S   S62       1.0  0.07447  0.67974  0.47261  1.0000
  H   H234      1.0  0.23909  0.60110  0.48546  1.0000
  H   H235      1.0  0.53203  0.56481  0.21738  1.0000
  Fe  Fe33      1.0  0.14868  0.72740  0.51366  1.0000
  S   S63       1.0  0.16162  0.71713  0.47325  1.0000
  H   H236      1.0  0.25010  0.59908  0.14654  1.0000
  H   H237      1.0  0.53178  0.74922  0.06231  1.0000
  Fe  Fe34      1.0  0.14817  0.67841  0.48543  1.0000
  S   S64       1.0  0.19245  0.64708  0.47573  1.0000
  S   S65       1.0  0.36935  0.54896  0.13283  1.0000
  C   C148      1.0  0.48229  0.69606  0.07977  1.0000
  C   C149      1.0  0.05682  0.68629  0.37476  1.0000
  H   H238      1.0  0.21617  0.63885  0.54307  1.0000
  C   C150      1.0  0.50375  0.73620  0.06480  1.0000
  H   H239      1.0  0.47958  0.74601  0.07614  1.0000
  H   H240      1.0  0.18522  0.54457  0.16515  1.0000
  C   C151      1.0  0.05330  0.72428  0.39934  1.0000
  S   S66       1.0  0.05499  0.74002  0.42909  1.0000
  H   H241      1.0  0.53688  0.59343  0.26734  1.0000
  S   S67       1.0  0.28365  0.56071  0.56513  1.0000
  H   H242      1.0  0.37193  0.59465  0.67903  1.0000
  H   H243      1.0  0.20089  0.66997  0.57627  1.0000
  H   H244      1.0  0.45800  0.68682  0.63177  1.0000
  H   H245      1.0  0.51548  0.74220  0.69917  1.0000
  H   H246      1.0  0.50142  0.62827  0.66128  1.0000
  H   H247      1.0  0.50975  0.70461  0.74842  1.0000
  H   H248      1.0  0.54023  0.72309  0.77282  1.0000
  H   H249      1.0  0.21868  0.61744  0.62240  1.0000
  H   H250      1.0  0.20109  0.66096  0.60947  1.0000
  H   H251      1.0  0.44486  0.63902  0.66145  1.0000
  S   S68       1.0  0.52659  0.57754  0.65915  1.0000
  C   C152      1.0  0.50385  0.66368  0.77658  1.0000
  H   H252      1.0  0.51049  0.69278  0.81876  1.0000
  H   H253      1.0  0.42676  0.62051  0.61871  1.0000
  H   H254      1.0  0.54200  0.77993  0.72337  1.0000
  C   C153      1.0  0.37351  0.57322  0.64418  1.0000
  C   C154      1.0  0.46762  0.57542  0.65465  1.0000
  C   C155      1.0  0.44019  0.58692  0.67134  1.0000
  C   C156      1.0  0.39315  0.58592  0.66603  1.0000
  C   C157      1.0  0.46003  0.62656  0.61311  1.0000
  Fe  Fe35      1.0  0.21828  0.54008  0.56115  1.0000
  H   H255      1.0  0.47106  0.66708  0.78429  1.0000
  H   H256      1.0  0.14572  0.62844  0.59662  1.0000
  H   H257      1.0  0.45518  0.59642  0.68838  1.0000
  H   H258      1.0  0.38636  0.55229  0.61050  1.0000
  C   C158      1.0  0.44619  0.66981  0.62101  1.0000
  S   S69       1.0  0.31465  0.57208  0.63756  1.0000
  H   H259      1.0  0.14571  0.63651  0.56312  1.0000
  H   H260      1.0  0.05357  0.56991  0.55111  1.0000
  C   C159      1.0  0.23310  0.61485  0.60369  1.0000
  N   N15       1.0  0.47671  0.64880  0.62761  1.0000
  C   C160      1.0  0.16298  0.62513  0.57898  1.0000
  H   H261      1.0  0.46891  0.55398  0.61980  1.0000
  C   C161      1.0  0.40106  0.56183  0.62756  1.0000
  C   C162      1.0  0.21684  0.65728  0.59137  1.0000
  H   H262      1.0  0.15769  0.60536  0.57353  1.0000
  C   C163      1.0  0.47850  0.64391  0.65561  1.0000
  H   H263      1.0  0.41160  0.66574  0.62594  1.0000
  H   H264      1.0  0.49097  0.66025  0.66721  1.0000
  H   H265      1.0  0.45655  0.62980  0.59190  1.0000
  H   H266      1.0  0.48345  0.61068  0.61694  1.0000
  H   H267      1.0  0.22883  0.59496  0.59836  1.0000
  C   C164      1.0  0.44788  0.56285  0.63283  1.0000
  C   C165      1.0  0.23235  0.62729  0.55912  1.0000
  H   H268      1.0  0.26989  0.61831  0.60713  1.0000
  H   H269      1.0  0.49703  0.66066  0.75538  1.0000
  H   H270      1.0  0.51780  0.64603  0.78508  1.0000
  H   H271      1.0  0.26873  0.63192  0.56147  1.0000
  H   H272      1.0  0.25292  0.66246  0.59482  1.0000
  H   H273      1.0  0.22942  0.60770  0.55277  1.0000
  C   C166      1.0  0.13705  0.77368  0.56505  1.0000
  S   S70       1.0  0.53975  0.62607  0.71993  1.0000
  N   N16       1.0  0.21134  0.63115  0.58332  1.0000
  N   N17       1.0  0.53533  0.68449  0.78237  1.0000
  Fe  Fe36      1.0  0.29145  0.54560  0.60532  1.0000
  H   H274      1.0  0.53692  0.67082  0.63252  1.0000
  H   H275      1.0  0.44400  0.67414  0.60002  1.0000
  H   H276      1.0  0.48436  0.71263  0.77710  1.0000
  H   H277      1.0  0.11406  0.75932  0.55768  1.0000
  C   C167      1.0  0.18047  0.77460  0.55733  1.0000
  C   C168      1.0  0.51654  0.70720  0.76970  1.0000
  H   H278      1.0  0.53895  0.69741  0.04225  1.0000
  S   S71       1.0  0.15251  0.55693  0.54574  1.0000
  H   H279      1.0  0.52198  0.65977  0.60009  1.0000
  C   C169      1.0  0.52224  0.65493  0.62087  1.0000
  C   C170      1.0  0.54253  0.68836  0.81059  1.0000
  H   H280      1.0  0.48660  0.73247  0.04520  1.0000
  S   S72       1.0  0.33031  0.00659  0.05844  1.0000
  Fe  Fe37      1.0  0.25838  0.00938  0.06605  1.0000
  S   S73       1.0  0.22920  0.97818  0.08776  1.0000
  C   C171      1.0  0.19296  0.99549  0.53544  1.0000
  C   C172      1.0  0.31304  0.93524  0.07497  1.0000
  H   H281      1.0  0.31494  0.95549  0.07880  1.0000
  C   C173      1.0  0.12561  0.02731  0.26080  1.0000
  S   S74       1.0  0.13121  0.95225  0.24796  1.0000
  S   S75       1.0  0.12952  0.88241  0.23421  1.0000
  H   H282      1.0  0.07447  0.01327  0.15440  1.0000
  H   H283      1.0  0.28707  0.97270  0.53325  1.0000
  Fe  Fe38      1.0  0.11608  0.97233  0.21048  1.0000
  S   S76       1.0  0.16085  0.00171  0.19618  1.0000
  C   C174      1.0  0.04847  0.85838  0.23568  1.0000
  C   C175      1.0  0.12036  0.01259  0.35403  1.0000
  C   C176      1.0  0.19157  0.98489  0.49017  1.0000
  H   H284      1.0  0.35013  0.89200  0.06260  1.0000
  C   C177      1.0  0.18317  0.95269  0.52207  1.0000
  C   C178      1.0  0.09517  0.85622  0.23692  1.0000
  C   C179      1.0  0.11516  0.83297  0.24158  1.0000
  C   C180      1.0  0.08862  0.81199  0.24503  1.0000
  H   H285      1.0  0.20035  0.84116  0.50549  1.0000
  H   H286      1.0  0.19887  0.00235  0.24958  1.0000
  N   N18       1.0  0.13425  0.84861  0.51647  1.0000
  H   H287      1.0  0.18293  0.94610  0.48118  1.0000
  C   C181      1.0  0.09200  0.98644  0.31771  1.0000
  C   C182      1.0  0.08459  0.00403  0.33666  1.0000
  H   H288      1.0  0.33157  0.92587  0.09181  1.0000
  C   C183      1.0  0.16371  0.00339  0.35265  1.0000
  C   C184      1.0  0.17081  0.98516  0.33428  1.0000
  C   C185      1.0  0.13509  0.97671  0.31687  1.0000
  H   H289      1.0  0.13498  0.81379  0.49629  1.0000
  H   H290      1.0  0.11967  0.92181  0.33372  1.0000
  H   H291      1.0  0.11264  0.01309  0.27359  1.0000
  H   H292      1.0  0.14101  0.96276  0.30277  1.0000
  C   C186      1.0  0.21304  0.98487  0.11853  1.0000
  C   C187      1.0  0.21328  0.00910  0.12794  1.0000
  C   C188      1.0  0.19806  0.01407  0.15208  1.0000
  C   C189      1.0  0.18234  0.99485  0.16679  1.0000
  C   C190      1.0  0.18263  0.97059  0.15753  1.0000
  C   C191      1.0  0.19796  0.96562  0.13345  1.0000
  C   C192      1.0  0.12018  0.86318  0.49305  1.0000
  H   H293      1.0  0.11454  0.02666  0.36811  1.0000
  H   H294      1.0  0.17142  0.95560  0.16898  1.0000
  H   H295      1.0  0.19790  0.94682  0.12631  1.0000
  S   S77       1.0  0.04903  0.98610  0.21988  1.0000
  H   H296      1.0  0.15129  0.83116  0.24253  1.0000
  H   H297      1.0  0.20427  0.97790  0.33324  1.0000
  H   H298      1.0  0.34346  0.98366  0.54095  1.0000
  N   N19       1.0  0.09778  0.88843  0.31370  1.0000
  H   H299      1.0  0.19536  0.83888  0.53941  1.0000
  H   H300      1.0  0.11628  0.98443  0.11103  1.0000
  H   H301      1.0  0.22481  0.02403  0.11655  1.0000
  H   H302      1.0  0.10426  0.79412  0.24858  1.0000
  H   H303      1.0  0.27696  0.93000  0.07444  1.0000
  H   H304      1.0  0.15286  0.89488  0.34279  1.0000
  Fe  Fe39      1.0  0.09685  0.91975  0.22739  1.0000
  H   H305      1.0  0.23667  0.01496  0.27532  1.0000
  H   H306      1.0  0.13106  0.88284  0.49549  1.0000
  C   C193      1.0  0.11375  0.85921  0.53869  1.0000
  H   H307      1.0  0.05838  0.95378  0.11926  1.0000
  H   H308      1.0  0.15800  0.90984  0.31241  1.0000
  H   H309      1.0  0.10467  0.01683  0.11221  1.0000
  H   H310      1.0  0.08301  0.86313  0.48871  1.0000
  C   C194      1.0  0.19562  0.00268  0.50979  1.0000
  H   H311      1.0  0.13625  0.85489  0.31955  1.0000
  C   C195      1.0  0.13367  0.90442  0.32627  1.0000
  S   S78       1.0  0.08870  0.93883  0.18893  1.0000
  S   S79       1.0  0.21032  0.01573  0.37182  1.0000
  C   C196      1.0  0.08967  0.99855  0.10649  1.0000
  H   H312      1.0  0.08149  0.99855  0.08516  1.0000
  C   C197      1.0  0.11777  0.86577  0.30378  1.0000
  S   S80       1.0  0.17782  0.92121  0.52968  1.0000
  Fe  Fe40      1.0  0.06193  0.96320  0.25584  1.0000
  C   C198      1.0  0.37883  0.93735  0.05181  1.0000
  H   H313      1.0  0.05124  0.01150  0.33758  1.0000
  C   C199      1.0  0.18552  0.95988  0.49635  1.0000
  C   C200      1.0  0.11944  0.82269  0.51253  1.0000
  H   H314      1.0  0.18938  0.99686  0.28248  1.0000
  H   H315      1.0  0.09599  0.02568  0.52722  1.0000
  H   H316      1.0  0.19360  0.99034  0.47032  1.0000
  H   H317      1.0  0.33293  0.95644  0.52134  1.0000
  H   H318      1.0  0.08233  0.82128  0.50841  1.0000
  H   H319      1.0  0.08333  0.87138  0.34923  1.0000
  H   H320      1.0  0.08894  0.98121  0.15448  1.0000
  S   S81       1.0  0.14506  0.03702  0.43075  1.0000
  H   H321      1.0  0.19796  0.03287  0.15917  1.0000
  H   H322      1.0  0.14186  0.87022  0.28945  1.0000
  C   C201      1.0  0.18370  0.84939  0.52165  1.0000
  H   H323      1.0  0.19608  0.86869  0.52456  1.0000
  N   N20       1.0  0.17298  0.03359  0.26901  1.0000
  C   C202      1.0  0.06610  0.88164  0.33255  1.0000
  H   H324      1.0  0.09160  0.85346  0.29379  1.0000
  H   H325      1.0  0.09641  0.90731  0.27747  1.0000
  N   N21       1.0  0.33169  0.92891  0.05055  1.0000
  C   C203      1.0  0.32251  0.96668  0.53831  1.0000
  H   H326      1.0  0.16249  0.03164  0.30915  1.0000
  H   H327      1.0  0.12168  0.01979  0.24082  1.0000
  H   H328      1.0  0.04623  0.89049  0.28188  1.0000
  H   H329      1.0  0.12911  0.81143  0.53002  1.0000
  C   C204      1.0  0.06193  0.99459  0.14824  1.0000
  N   N22       1.0  0.04966  0.99325  0.12006  1.0000
  H   H330      1.0  0.12350  0.87890  0.54190  1.0000
  C   C205      1.0  0.20073  0.01098  0.26911  1.0000
  C   C206      1.0  0.07342  0.90199  0.29203  1.0000
  S   S82       1.0  0.04719  0.97751  0.29493  1.0000
  C   C207      1.0  0.18643  0.97060  0.54154  1.0000
  H   H331      1.0  0.13501  0.85566  0.47590  1.0000
  H   H332      1.0  0.38137  0.95775  0.05434  1.0000
  H   H333      1.0  0.05788  0.91930  0.29866  1.0000
  H   H334      1.0  0.07645  0.85838  0.53587  1.0000
  H   H335      1.0  0.30647  0.91814  0.54055  1.0000
  H   H336      1.0  0.40001  0.92871  0.06816  1.0000
  H   H337      1.0  0.05016  0.89834  0.34024  1.0000
  S   S83       1.0  0.20467  0.03400  0.50323  1.0000
  C   C208      1.0  0.06387  0.03630  0.52515  1.0000
  C   C209      1.0  0.32997  0.90185  0.04663  1.0000
  H   H338      1.0  0.29489  0.89482  0.04575  1.0000
  Fe  Fe41      1.0  0.18536  0.91250  0.57241  1.0000
  S   S84       1.0  0.12686  0.90339  0.59429  1.0000
  Fe  Fe42      1.0  0.25440  0.90174  0.61867  1.0000
  S   S85       1.0  0.20134  0.89172  0.64461  1.0000
  S   S86       1.0  0.33012  0.90534  0.62659  1.0000
  Fe  Fe43      1.0  0.16890  0.87125  0.60976  1.0000
  S   S87       1.0  0.13314  0.83450  0.61045  1.0000
  Fe  Fe44      1.0  0.16350  0.92453  0.62699  1.0000
  S   S88       1.0  0.13382  0.95534  0.64914  1.0000
  S   S89       1.0  0.22475  0.87874  0.58517  1.0000
  S   S90       1.0  0.21906  0.93618  0.60386  1.0000
  H   H339      1.0  0.40241  0.00447  0.02470  1.0000
  H   H340      1.0  0.27745  0.97216  0.57982  1.0000
  H   H341      1.0  0.18348  0.96538  0.56129  1.0000
  C   C210      1.0  0.19619  0.81119  0.58403  1.0000
  H   H342      1.0  0.21939  0.82534  0.59159  1.0000
  C   C211      1.0  0.35794  0.89232  0.65498  1.0000
  C   C212      1.0  0.33411  0.88039  0.67314  1.0000
  H   H343      1.0  0.37775  0.93147  0.58556  1.0000
  C   C213      1.0  0.42798  0.88392  0.68194  1.0000
  C   C214      1.0  0.40493  0.89407  0.65948  1.0000
  H   H344      1.0  0.29796  0.87889  0.66987  1.0000
  H   H345      1.0  0.46416  0.88531  0.68522  1.0000
  H   H346      1.0  0.42361  0.90324  0.64552  1.0000
  H   H347      1.0  0.33840  0.86108  0.70952  1.0000
  H   H348      1.0  0.09071  0.94156  0.74517  1.0000
  S   S91       1.0  0.23326  0.01435  0.02438  1.0000
  C   C215      1.0  0.07497  0.95789  0.64581  1.0000
  C   C216      1.0  0.30499  0.94118  0.02876  1.0000
  C   C217      1.0  0.37388  0.94315  0.56780  1.0000
  H   H349      1.0  0.07635  0.99603  0.65771  1.0000
  H   H350      1.0  0.06252  0.92032  0.63339  1.0000
  H   H351      1.0  0.08937  0.79121  0.58775  1.0000
  H   H352      1.0  0.31477  0.95427  0.60175  1.0000
  H   H353      1.0  0.24395  0.79371  0.56153  1.0000
  H   H354      1.0  0.33433  0.98213  0.58790  1.0000
  H   H355      1.0  0.48211  0.86543  0.82345  1.0000
  H   H356      1.0  0.10558  0.96076  0.71925  1.0000
  H   H357      1.0  0.26928  0.93514  0.02703  1.0000
  C   C218      1.0  0.31273  0.96558  0.58376  1.0000
  C   C219      1.0  0.35711  0.87033  0.69562  1.0000
  H   H358      1.0  0.30501  0.96158  0.03119  1.0000
  H   H359      1.0  0.39411  0.93267  0.03380  1.0000
  C   C220      1.0  0.12316  0.79172  0.58207  1.0000
  H   H360      1.0  0.37806  0.91598  0.79715  1.0000
  C   C221      1.0  0.15247  0.81075  0.59122  1.0000
  C   C222      1.0  0.40407  0.87200  0.70009  1.0000
  H   H361      1.0  0.10427  0.97366  0.75102  1.0000
  C   C223      1.0  0.29780  0.92915  0.55741  1.0000
  C   C224      1.0  0.40570  0.86908  0.79225  1.0000
  C   C225      1.0  0.45435  0.97716  0.02292  1.0000
  S   S92       1.0  0.33043  0.98978  0.98664  1.0000
  H   H362      1.0  0.04949  0.00643  0.73395  1.0000
  H   H363      1.0  0.37580  0.89997  0.82728  1.0000
  H   H364      1.0  0.39689  0.95923  0.57124  1.0000
  S   S93       1.0  0.51486  0.87107  0.99413  1.0000
  C   C226      1.0  0.38446  0.97755  0.99497  1.0000
  C   C227      1.0  0.39875  0.95653  0.98220  1.0000
  C   C228      1.0  0.44068  0.94565  0.99001  1.0000
  C   C229      1.0  0.46837  0.95590  0.01057  1.0000
  H   H365      1.0  0.42894  0.85478  0.78578  1.0000
  C   C230      1.0  0.46067  0.90116  0.78865  1.0000
  H   H366      1.0  0.37713  0.94848  0.96647  1.0000
  H   H367      1.0  0.45138  0.92930  0.98031  1.0000
  N   N23       1.0  0.32678  0.95116  0.56180  1.0000
  H   H368      1.0  0.44168  0.90821  0.77065  1.0000
  H   H369      1.0  0.26197  0.93447  0.55368  1.0000
  H   H370      1.0  0.43680  0.87091  0.84284  1.0000
  H   H371      1.0  0.31870  0.93736  0.01002  1.0000
  S   S94       1.0  0.43135  0.85924  0.72873  1.0000
  C   C231      1.0  0.05527  0.98019  0.65250  1.0000
  H   H372      1.0  0.48029  0.91670  0.79827  1.0000
  C   C232      1.0  0.45799  0.87966  0.82900  1.0000
  S   S95       1.0  0.53071  0.84127  0.77501  1.0000
  C   C233      1.0  0.39891  0.90813  0.81412  1.0000
  H   H373      1.0  0.47823  0.89447  0.83955  1.0000
  H   H374      1.0  0.38549  0.93195  0.55181  1.0000
  C   C234      1.0  0.41267  0.98799  0.01510  1.0000
  H   H375      1.0  0.30078  0.91669  0.57449  1.0000
  Fe  Fe45      1.0  0.30607  0.01459  0.01730  1.0000
  N   N24       1.0  0.43075  0.88951  0.80603  1.0000
  H   H376      1.0  0.41700  0.92375  0.82458  1.0000
  H   H377      1.0  0.38270  0.85977  0.80468  1.0000
  H   H378      1.0  0.47546  0.98516  0.03888  1.0000
  H   H379      1.0  0.38531  0.87577  0.77452  1.0000
  Fe  Fe46      1.0  0.50702  0.85937  0.73708  1.0000
  H   H380      1.0  0.19571  0.00923  0.55065  1.0000
  H   H381      1.0  0.48547  0.88764  0.78269  1.0000
  C   C235      1.0  0.08710  0.96047  0.73685  1.0000
  C   C236      1.0  0.21015  0.79314  0.56719  1.0000
  H   H382      1.0  0.05603  0.99400  0.70266  1.0000
  H   H383      1.0  0.34367  0.89656  0.02826  1.0000
  S   S96       1.0  0.52010  0.94258  0.02216  1.0000
  H   H384      1.0  0.12455  0.84911  0.55685  1.0000
  C   C237      1.0  0.04760  0.93762  0.63847  1.0000
  C   C238      1.0  0.02448  0.07220  0.50680  1.0000
  S   S97       1.0  0.64527  0.18006  0.12810  1.0000
  N   N25       1.0  0.69578  0.20184  0.37026  1.0000
  H   H385      1.0  0.60873  0.22406  0.26774  1.0000
  H   H386      1.0  0.66273  0.16643  0.36856  1.0000
  S   S98       1.0  0.80058  0.08657  0.08196  1.0000
  H   H387      1.0  0.80416  0.08854  0.19485  1.0000
  C   C239      1.0  0.79106  0.07493  0.17991  1.0000
  Fe  Fe47      1.0  0.55331  0.19612  0.40751  1.0000
  Fe  Fe48      1.0  0.73835  0.06665  0.06622  1.0000
  S   S99       1.0  0.66863  0.07525  0.07687  1.0000
  C   C240      1.0  0.68533  0.22770  0.37662  1.0000
  H   H388      1.0  0.71567  0.18134  0.33787  1.0000
  C   C241      1.0  0.70813  0.20063  0.34349  1.0000
  H   H389      1.0  0.95759  0.14801  0.46098  1.0000
  H   H390      1.0  0.67605  0.22936  0.39672  1.0000
  C   C242      1.0  0.65247  0.15033  0.11541  1.0000
  C   C243      1.0  0.62083  0.13159  0.11752  1.0000
  C   C244      1.0  0.62634  0.10846  0.10592  1.0000
  C   C245      1.0  0.66328  0.10403  0.09202  1.0000
  C   C246      1.0  0.69529  0.12261  0.09031  1.0000
  C   C247      1.0  0.69004  0.14563  0.10212  1.0000
  H   H391      1.0  0.59214  0.13489  0.12805  1.0000
  H   H392      1.0  0.60172  0.09403  0.10755  1.0000
  H   H393      1.0  0.72352  0.11955  0.07928  1.0000
  H   H394      1.0  0.71454  0.16010  0.10030  1.0000
  Fe  Fe49      1.0  0.57663  0.19214  0.13762  1.0000
  H   H395      1.0  0.62721  0.19208  0.35856  1.0000
  H   H396      1.0  0.58831  0.16641  0.07690  1.0000
  S   S100      1.0  0.01081  0.17412  0.50250  1.0000
  S   S101      1.0  0.56787  0.21724  0.17133  1.0000
  H   H397      1.0  0.01519  0.07827  0.52602  1.0000
  C   C248      1.0  0.57695  0.21453  0.26774  1.0000
  H   H398      1.0  0.76390  0.20464  0.38790  1.0000
  S   S102      1.0  0.56960  0.23375  0.39295  1.0000
  S   S103      1.0  0.86966  0.04749  0.12825  1.0000
  H   H399      1.0  0.73822  0.21216  0.34107  1.0000
  H   H400      1.0  0.55706  0.25744  0.23152  1.0000
  C   C249      1.0  0.74948  0.06837  0.13837  1.0000
  S   S104      1.0  0.58328  0.22493  0.31959  1.0000
  H   H401      1.0  0.73176  0.07701  0.12091  1.0000
  Fe  Fe50      1.0  0.83054  0.04892  0.08883  1.0000
  C   C250      1.0  0.73353  0.19283  0.38836  1.0000
  H   H402      1.0  0.65661  0.23494  0.36346  1.0000
  H   H403      1.0  0.68022  0.20746  0.32946  1.0000
  C   C251      1.0  0.65587  0.18621  0.37248  1.0000
  H   H404      1.0  0.76951  0.06149  0.18914  1.0000
  H   H405      1.0  0.57168  0.20649  0.22691  1.0000
  C   C252      1.0  0.79619  0.10464  0.14580  1.0000
  H   H406      1.0  0.74297  0.17355  0.38379  1.0000
  C   C253      1.0  0.02350  0.15014  0.48164  1.0000
  H   H407      1.0  0.77839  0.11436  0.12891  1.0000
  H   H408      1.0  0.64459  0.18731  0.39217  1.0000
  H   H409      1.0  0.97973  0.11694  0.42934  1.0000
  H   H410      1.0  0.80957  0.11903  0.15980  1.0000
  S   S105      1.0  0.82678  0.17690  0.54484  1.0000
  H   H411      1.0  0.73863  0.11558  0.18044  1.0000
  C   C254      1.0  0.55589  0.20469  0.24457  1.0000
  C   C255      1.0  0.00422  0.12347  0.44456  1.0000
  H   H412      1.0  0.70799  0.11041  0.14947  1.0000
  C   C256      1.0  0.72747  0.10103  0.16606  1.0000
  H   H413      1.0  0.02613  0.08908  0.49469  1.0000
  Fe  Fe51      1.0  0.84066  0.18850  0.50483  1.0000
  S   S106      1.0  0.90197  0.21102  0.51853  1.0000
  S   S107      1.0  0.79144  0.20890  0.47622  1.0000
  Fe  Fe52      1.0  0.94033  0.17580  0.51431  1.0000
  Fe  Fe53      1.0  0.87175  0.14458  0.53857  1.0000
  S   S108      1.0  0.88046  0.15433  0.49726  1.0000
  H   H414      1.0  0.71455  0.24010  0.37496  1.0000
  S   S109      1.0  0.59627  0.17147  0.43515  1.0000
  H   H415      1.0  0.72471  0.19280  0.40863  1.0000
  C   C257      1.0  0.73630  0.19843  0.46707  1.0000
  C   C258      1.0  0.72357  0.17388  0.47057  1.0000
  C   C259      1.0  0.68021  0.16586  0.46113  1.0000
  C   C260      1.0  0.64937  0.18235  0.44830  1.0000
  C   C261      1.0  0.66175  0.20702  0.44543  1.0000
  C   C262      1.0  0.70515  0.21498  0.45462  1.0000
  H   H416      1.0  0.74741  0.16100  0.48011  1.0000
  H   H417      1.0  0.67082  0.14676  0.46354  1.0000
  H   H418      1.0  0.63788  0.22000  0.43622  1.0000
  H   H419      1.0  0.71471  0.23404  0.45209  1.0000
  C   C263      1.0  0.99157  0.14097  0.46251  1.0000
  N   N26       1.0  0.76604  0.08725  0.15756  1.0000
  H   H420      1.0  0.70388  0.08854  0.17501  1.0000
  H   H421      1.0  0.82554  0.09484  0.13894  1.0000
  H   H422      1.0  0.61895  0.14918  0.05496  1.0000
  H   H423      1.0  0.99644  0.06064  0.49770  1.0000
  H   H424      1.0  0.77748  0.05721  0.13190  1.0000
  N   N27       1.0  0.54706  0.14857  0.04606  1.0000
  H   H425      1.0  0.55276  0.12547  0.45152  1.0000
  S   S110      1.0  0.85812  0.04715  0.05023  1.0000
  H   H426      1.0  0.57125  0.11224  0.05705  1.0000
  H   H427      1.0  0.72562  0.05532  0.14628  1.0000
  C   C264      1.0  0.58901  0.16119  0.05624  1.0000
  H   H428      1.0  0.82043  0.06445  0.17388  1.0000
  C   C265      1.0  0.55701  0.21204  0.29086  1.0000
  C   C266      1.0  0.00098  0.06211  0.79352  1.0000
  H   H429      1.0  0.96675  0.05564  0.99160  1.0000
  H   H430      1.0  0.71672  0.05508  0.69654  1.0000
  S   S111      1.0  0.89499  0.21996  0.59460  1.0000
  H   H431      1.0  0.95856  0.14643  0.67300  1.0000
  C   C267      1.0  0.98742  0.27253  0.58163  1.0000
  H   H432      1.0  0.91163  0.25561  0.63508  1.0000
  S   S112      1.0  0.82274  0.07609  0.66271  1.0000
  C   C268      1.0  0.85405  0.09667  0.58114  1.0000
  C   C269      1.0  0.87048  0.07450  0.59242  1.0000
  C   C270      1.0  0.86095  0.06795  0.61742  1.0000
  C   C271      1.0  0.83413  0.08332  0.63105  1.0000
  C   C272      1.0  0.81676  0.10519  0.61954  1.0000
  C   C273      1.0  0.82711  0.11202  0.59474  1.0000
  H   H433      1.0  0.89098  0.06245  0.58186  1.0000
  H   H434      1.0  0.79545  0.11694  0.62989  1.0000
  H   H435      1.0  0.81365  0.12890  0.58594  1.0000
  H   H436      1.0  0.00857  0.27720  0.56666  1.0000
  H   H437      1.0  0.85221  0.15183  0.63069  1.0000
  C   C274      1.0  0.92506  0.15292  0.66440  1.0000
  C   C275      1.0  0.93154  0.24561  0.59779  1.0000
  C   C276      1.0  0.93270  0.26030  0.62008  1.0000
  H   H438      1.0  0.95882  0.24038  0.56143  1.0000
  C   C277      1.0  0.01984  0.28108  0.90553  1.0000
  H   H439      1.0  0.91015  0.11740  0.62934  1.0000
  H   H440      1.0  0.91758  0.17064  0.67400  1.0000
  C   C278      1.0  0.95916  0.25170  0.57860  1.0000
  N   N28       1.0  0.92399  0.15600  0.63613  1.0000
  C   C279      1.0  0.93382  0.13203  0.62422  1.0000
  H   H441      1.0  0.95791  0.17729  0.60912  1.0000
  C   C280      1.0  0.95799  0.17446  0.63030  1.0000
  H   H442      1.0  0.68068  0.04290  0.64139  1.0000
  H   H443      1.0  0.74937  0.04338  0.67214  1.0000
  C   C281      1.0  0.87897  0.16462  0.62564  1.0000
  H   H444      1.0  0.87133  0.18324  0.63323  1.0000
  H   H445      1.0  0.89977  0.13904  0.66942  1.0000
  H   H446      1.0  0.96834  0.12552  0.63071  1.0000
  H   H447      1.0  0.87625  0.16615  0.60419  1.0000
  H   H448      1.0  0.95117  0.19289  0.63867  1.0000
  H   H449      1.0  0.93072  0.13320  0.60274  1.0000
  S   S113      1.0  0.75752  0.06687  0.02579  1.0000
  H   H450      1.0  0.97024  0.05441  0.95748  1.0000
  H   H451      1.0  0.02413  0.08916  0.82235  1.0000
  H   H452      1.0  0.87426  0.05097  0.62608  1.0000
  C   C282      1.0  0.03774  0.23548  0.88294  1.0000
  S   S114      1.0  0.02015  0.10455  0.87632  1.0000
  N   N29       1.0  0.03046  0.06699  0.97961  1.0000
  S   S115      1.0  0.94307  0.14806  0.87669  1.0000
  H   H453      1.0  0.97493  0.26040  0.92733  1.0000
  Fe  Fe54      1.0  0.97104  0.11791  0.90293  1.0000
  S   S116      1.0  0.92867  0.08827  0.91864  1.0000
  Fe  Fe55      1.0  0.99585  0.13646  0.85136  1.0000
  S   S117      1.0  0.97369  0.13389  0.80865  1.0000
  H   H454      1.0  0.89842  0.09883  0.86552  1.0000
  H   H455      1.0  0.03618  0.06571  0.02110  1.0000
  H   H456      1.0  0.55101  0.16099  0.00712  1.0000
  C   C283      1.0  0.90586  0.09656  0.94722  1.0000
  C   C284      1.0  0.88281  0.07880  0.96033  1.0000
  C   C285      1.0  0.86727  0.08452  0.98418  1.0000
  C   C286      1.0  0.87462  0.10807  0.99491  1.0000
  C   C287      1.0  0.89722  0.12592  0.98164  1.0000
  C   C288      1.0  0.91275  0.12021  0.95777  1.0000
  H   H457      1.0  0.87722  0.06051  0.95220  1.0000
  H   H458      1.0  0.84953  0.07071  0.99424  1.0000
  H   H459      1.0  0.90266  0.14421  0.98983  1.0000
  H   H460      1.0  0.93012  0.13410  0.94764  1.0000
  C   C289      1.0  0.97492  0.10461  0.79389  1.0000
  C   C290      1.0  0.94737  0.10003  0.77095  1.0000
  C   C291      1.0  0.94613  0.07646  0.75950  1.0000
  H   H461      1.0  0.94140  0.05961  0.87374  1.0000
  C   C292      1.0  0.98815  0.28742  0.60379  1.0000
  C   C293      1.0  0.00200  0.08564  0.80503  1.0000
  H   H462      1.0  0.92652  0.11469  0.76217  1.0000
  H   H463      1.0  0.92450  0.07304  0.74192  1.0000
  C   C294      1.0  0.87614  0.05780  0.81643  1.0000
  H   H464      1.0  0.91696  0.27488  0.79923  1.0000
  H   H465      1.0  0.99245  0.16875  0.63796  1.0000
  Fe  Fe56      1.0  0.82281  0.08322  0.04241  1.0000
  S   S118      1.0  0.86727  0.10442  0.54994  1.0000
  S   S119      1.0  0.02025  0.14259  0.92587  1.0000
  C   C295      1.0  0.98970  0.05137  0.97659  1.0000
  Fe  Fe57      1.0  0.85333  0.04106  0.68028  1.0000
  C   C296      1.0  0.89075  0.09252  0.84521  1.0000
  C   C297      1.0  0.00743  0.23658  0.90166  1.0000
  C   C298      1.0  0.99841  0.25944  0.91283  1.0000
  H   H466      1.0  0.04034  0.06601  0.93921  1.0000
  C   C299      1.0  0.54808  0.14357  0.01820  1.0000
  Fe  Fe58      1.0  0.89079  0.19722  0.55786  1.0000
  H   H467      1.0  0.81949  0.06449  0.85300  1.0000
  C   C300      1.0  0.97277  0.05741  0.77087  1.0000
  N   N30       1.0  0.88782  0.06528  0.84361  1.0000
  H   H468      1.0  0.91767  0.09981  0.83405  1.0000
  C   C301      1.0  0.85292  0.05648  0.85960  1.0000
  H   H469      1.0  0.84322  0.06556  0.80847  1.0000
  C   C302      1.0  0.93158  0.05439  0.85327  1.0000
  H   H470      1.0  0.95878  0.06089  0.84188  1.0000
  H   H471      1.0  0.85878  0.10147  0.83745  1.0000
  H   H472      1.0  0.96162  0.27669  0.77863  1.0000
  H   H473      1.0  0.04444  0.21803  0.87397  1.0000
  H   H474      1.0  0.97392  0.27644  0.85010  1.0000
  H   H475      1.0  0.02199  0.04751  0.80225  1.0000
  S   S120      1.0  0.85654  0.11529  0.02506  1.0000
  H   H476      1.0  0.00007  0.09822  0.95940  1.0000
  C   C303      1.0  0.96095  0.28108  0.62311  1.0000
  Fe  Fe59      1.0  0.99709  0.17192  0.89694  1.0000
  S   S121      1.0  0.98245  0.20966  0.91276  1.0000
  H   H477      1.0  0.90169  0.06445  0.80393  1.0000
  C   C304      1.0  0.95412  0.27549  0.79914  1.0000
  H   H478      1.0  0.99364  0.09776  0.99326  1.0000
  H   H479      1.0  0.57720  0.13165  0.01465  1.0000
  H   H480      1.0  0.96774  0.25756  0.80699  1.0000
  S   S122      1.0  0.93426  0.16390  0.55496  1.0000
  H   H481      1.0  0.64769  0.05374  0.66606  1.0000
  C   C305      1.0  0.01720  0.09331  0.97864  1.0000
  H   H482      1.0  0.03837  0.27955  0.82367  1.0000
  H   H483      1.0  0.86100  0.06185  0.88026  1.0000
  H   H484      1.0  0.59441  0.17855  0.04553  1.0000
  H   H485      1.0  0.64594  0.52119  0.47399  1.0000
  H   H486      1.0  0.60119  0.51050  0.49159  1.0000
  S   S123      1.0  0.56112  0.44628  0.40132  1.0000
  S   S124      1.0  0.77492  0.49483  0.48496  1.0000
  H   H487      1.0  0.97771  0.50381  0.53508  1.0000
  H   H488      1.0  0.55462  0.51767  0.24702  1.0000
  Fe  Fe60      1.0  0.79889  0.51864  0.51915  1.0000
  H   H489      1.0  0.64218  0.36254  0.48294  1.0000
  H   H490      1.0  0.56638  0.39655  0.46315  1.0000
  S   S125      1.0  0.58027  0.44890  0.47871  1.0000
  H   H491      1.0  0.64546  0.39566  0.48071  1.0000
  H   H492      1.0  0.61629  0.33775  0.44341  1.0000
  H   H493      1.0  0.54886  0.33381  0.36070  1.0000
  H   H494      1.0  0.68502  0.37669  0.46594  1.0000
  H   H495      1.0  0.62381  0.41651  0.43905  1.0000
  C   C306      1.0  0.72171  0.48103  0.48340  1.0000
  C   C307      1.0  0.70428  0.47242  0.50565  1.0000
  C   C308      1.0  0.66100  0.46214  0.50392  1.0000
  C   C309      1.0  0.63502  0.46065  0.48001  1.0000
  C   C310      1.0  0.65274  0.46888  0.45771  1.0000
  C   C311      1.0  0.69627  0.47879  0.45939  1.0000
  H   H496      1.0  0.72416  0.47370  0.52416  1.0000
  H   H497      1.0  0.64743  0.45562  0.52118  1.0000
  H   H498      1.0  0.63289  0.46786  0.43921  1.0000
  H   H499      1.0  0.65373  0.50944  0.53058  1.0000
  N   N31       1.0  0.61873  0.37747  0.44578  1.0000
  C   C312      1.0  0.62899  0.39853  0.42930  1.0000
  C   C313      1.0  0.57185  0.37936  0.45208  1.0000
  H   H500      1.0  0.70989  0.48528  0.44212  1.0000
  C   C314      1.0  0.64927  0.37805  0.46992  1.0000
  H   H501      1.0  0.60703  0.39838  0.41069  1.0000
  C   C315      1.0  0.66931  0.52697  0.52475  1.0000
  C   C316      1.0  0.61876  0.52741  0.48563  1.0000
  H   H502      1.0  0.65949  0.35193  0.42667  1.0000
  H   H503      1.0  0.56225  0.36339  0.46381  1.0000
  C   C317      1.0  0.62450  0.35408  0.43176  1.0000
  H   H504      1.0  0.66437  0.39806  0.42454  1.0000
  S   S126      1.0  0.87266  0.52121  0.53107  1.0000
  H   H505      1.0  0.60182  0.35336  0.41339  1.0000
  H   H506      1.0  0.54816  0.37973  0.43422  1.0000
  C   C318      1.0  0.99371  0.52027  0.52701  1.0000
  H   H507      1.0  0.69922  0.52225  0.51464  1.0000
  H   H508      1.0  0.92153  0.33771  0.53716  1.0000
  H   H509      1.0  0.58224  0.53374  0.53044  1.0000
  H   H510      1.0  0.01764  0.51362  0.51350  1.0000
  H   H511      1.0  0.96683  0.53082  0.51536  1.0000
  H   H512      1.0  0.84343  0.35111  0.54070  1.0000
  H   H513      1.0  0.68171  0.53688  0.54277  1.0000
  H   H514      1.0  0.86339  0.30619  0.54556  1.0000
  S   S127      1.0  0.89780  0.50924  0.60476  1.0000
  H   H515      1.0  0.89717  0.29601  0.57396  1.0000
  S   S128      1.0  0.95367  0.34181  0.66095  1.0000
  N   N32       1.0  0.01655  0.53583  0.54771  1.0000
  Fe  Fe61      1.0  0.01053  0.34355  0.63608  1.0000
  Fe  Fe62      1.0  0.94232  0.38145  0.64929  1.0000
  S   S129      1.0  0.87505  0.39669  0.63364  1.0000
  S   S130      1.0  0.02166  0.31439  0.60610  1.0000
  C   C319      1.0  0.04018  0.35513  0.78177  1.0000
  H   H516      1.0  0.01265  0.29864  0.91423  1.0000
  C   C320      1.0  0.99592  0.40056  0.77695  1.0000
  C   C321      1.0  0.89084  0.47780  0.61173  1.0000
  C   C322      1.0  0.92531  0.46552  0.62674  1.0000
  C   C323      1.0  0.92063  0.44058  0.63312  1.0000
  C   C324      1.0  0.88094  0.42790  0.62514  1.0000
  C   C325      1.0  0.84609  0.44024  0.61032  1.0000
  C   C326      1.0  0.85120  0.46514  0.60338  1.0000
  H   H517      1.0  0.95605  0.47521  0.63323  1.0000
  H   H518      1.0  0.94783  0.43125  0.64437  1.0000
  H   H519      1.0  0.81537  0.43047  0.60403  1.0000
  H   H520      1.0  0.82443  0.47452  0.59178  1.0000
  C   C327      1.0  0.95554  0.31997  0.80315  1.0000
  C   C328      1.0  0.01618  0.36152  0.75823  1.0000
  H   H521      1.0  0.70449  0.45756  0.98992  1.0000
  H   H522      1.0  0.72963  0.43883  0.94981  1.0000
  Fe  Fe63      1.0  0.85384  0.52499  0.57130  1.0000
  H   H523      1.0  0.82111  0.35052  0.57157  1.0000
  H   H524      1.0  0.84066  0.30586  0.57631  1.0000
  S   S131      1.0  0.98647  0.39634  0.68310  1.0000
  Fe  Fe64      1.0  0.04126  0.39455  0.65666  1.0000
  H   H525      1.0  0.04327  0.42298  0.73788  1.0000
  H   H526      1.0  0.87467  0.48142  0.86356  1.0000
  S   S132      1.0  0.99575  0.38236  0.62222  1.0000
  Fe  Fe65      1.0  0.00372  0.35686  0.69216  1.0000
  C   C329      1.0  0.83931  0.52275  0.66602  1.0000
  C   C330      1.0  0.01948  0.39397  0.80057  1.0000
  H   H527      1.0  0.03284  0.29689  0.79405  1.0000
  H   H528      1.0  0.92481  0.32622  0.60760  1.0000
  H   H529      1.0  0.68178  0.42849  0.99808  1.0000
  H   H530      1.0  0.97877  0.41816  0.77504  1.0000
  C   C331      1.0  0.56718  0.43452  0.97399  1.0000
  S   S133      1.0  0.75324  0.53542  0.91544  1.0000
  H   H531      1.0  0.77111  0.40713  0.02344  1.0000
  H   H532      1.0  0.78401  0.46066  0.97980  1.0000
  H   H533      1.0  0.91009  0.35812  0.60408  1.0000
  H   H534      1.0  0.73210  0.50812  0.64326  1.0000
  C   C332      1.0  0.87134  0.30978  0.56658  1.0000
  H   H535      1.0  0.95541  0.45382  0.89116  1.0000
  C   C333      1.0  0.76692  0.50483  0.65229  1.0000
  H   H536      1.0  0.58539  0.41723  0.97513  1.0000
  Fe  Fe66      1.0  0.76950  0.49891  0.93442  1.0000
  S   S134      1.0  0.72304  0.47776  0.90621  1.0000
  S   S135      1.0  0.84202  0.48837  0.94547  1.0000
  Fe  Fe67      1.0  0.67147  0.48488  0.93399  1.0000
  S   S136      1.0  0.63461  0.45127  0.94678  1.0000
  Fe  Fe68      1.0  0.70251  0.51471  0.88914  1.0000
  S   S137      1.0  0.71964  0.50393  0.96356  1.0000
  Fe  Fe69      1.0  0.98927  0.37942  0.91055  1.0000
  H   H537      1.0  0.87257  0.45650  0.88590  1.0000
  S   S138      1.0  0.91831  0.38211  0.92192  1.0000
  H   H538      1.0  0.94260  0.35835  0.56279  1.0000
  H   H539      1.0  0.86815  0.33596  0.61038  1.0000
  H   H540      1.0  0.91699  0.47635  0.82513  1.0000
  H   H541      1.0  0.78261  0.49076  0.64033  1.0000
  H   H542      1.0  0.91132  0.41672  0.87835  1.0000
  S   S139      1.0  0.99444  0.36184  0.87183  1.0000
  C   C334      1.0  0.58417  0.45477  0.96122  1.0000
  H   H543      1.0  0.94465  0.44761  0.81979  1.0000
  H   H544      1.0  0.84219  0.45422  0.85453  1.0000
  H   H545      1.0  0.88029  0.41469  0.84715  1.0000
  H   H546      1.0  0.81122  0.52482  0.61545  1.0000
  Fe  Fe70      1.0  0.03746  0.39421  0.86428  1.0000
  S   S140      1.0  0.78045  0.51836  0.55992  1.0000
  H   H547      1.0  0.57315  0.49271  0.94990  1.0000
  C   C335      1.0  0.87404  0.46091  0.86517  1.0000
  H   H548      1.0  0.94056  0.41307  0.85038  1.0000
  S   S141      1.0  0.64624  0.51988  0.91416  1.0000
  C   C336      1.0  0.86251  0.45876  0.93867  1.0000
  C   C337      1.0  0.83374  0.43978  0.92909  1.0000
  C   C338      1.0  0.85108  0.41620  0.92449  1.0000
  C   C339      1.0  0.89742  0.41164  0.92874  1.0000
  C   C340      1.0  0.92626  0.43078  0.93776  1.0000
  C   C341      1.0  0.90878  0.45417  0.94297  1.0000
  H   H549      1.0  0.79821  0.44330  0.92519  1.0000
  H   H550      1.0  0.82867  0.40152  0.91721  1.0000
  H   H551      1.0  0.96199  0.42742  0.94129  1.0000
  H   H552      1.0  0.93126  0.46877  0.95041  1.0000
  H   H553      1.0  0.80127  0.44809  0.01109  1.0000
  C   C342      1.0  0.91129  0.42232  0.85784  1.0000
  H   H554      1.0  0.96815  0.52771  0.57442  1.0000
  H   H555      1.0  0.88442  0.44924  0.81585  1.0000
  H   H556      1.0  0.97905  0.30923  0.85386  1.0000
  H   H557      1.0  0.98567  0.45061  0.86323  1.0000
  C   C343      1.0  0.95496  0.45870  0.87034  1.0000
  C   C344      1.0  0.99391  0.38423  0.75586  1.0000
  S   S142      1.0  0.70436  0.52159  0.84635  1.0000
  H   H558      1.0  0.96371  0.32222  0.78284  1.0000
  H   H559      1.0  0.96971  0.33625  0.81432  1.0000
  H   H560      1.0  0.97470  0.38910  0.73788  1.0000
  C   C345      1.0  0.91495  0.45599  0.82778  1.0000
  S   S143      1.0  0.02815  0.41305  0.90160  1.0000
  H   H561      1.0  0.78848  0.39358  0.99450  1.0000
  H   H562      1.0  0.91838  0.32079  0.80295  1.0000
  H   H563      1.0  0.95776  0.47916  0.86915  1.0000
  N   N33       1.0  0.75016  0.42704  0.98859  1.0000
  C   C346      1.0  0.76064  0.40368  0.00260  1.0000
  C   C347      1.0  0.73645  0.42154  0.96110  1.0000
  C   C348      1.0  0.79040  0.44308  0.99068  1.0000
  C   C349      1.0  0.71309  0.43979  0.99994  1.0000
  H   H564      1.0  0.73092  0.39117  0.00133  1.0000
  H   H565      1.0  0.96180  0.29210  0.64047  1.0000
  C   C350      1.0  0.02311  0.29637  0.81413  1.0000
  H   H566      1.0  0.76291  0.41114  0.95210  1.0000
  C   C351      1.0  0.56036  0.47704  0.95978  1.0000
  C   C352      1.0  0.89799  0.33901  0.59964  1.0000
  S   S144      1.0  0.01436  0.34064  0.73232  1.0000
  N   N34       1.0  0.91379  0.44949  0.85527  1.0000
  H   H567      1.0  0.03959  0.50482  0.57131  1.0000
  H   H568      1.0  0.70498  0.41042  0.95865  1.0000
  N   N35       1.0  0.79330  0.52798  0.65418  1.0000
  C   C353      1.0  0.04137  0.37116  0.80302  1.0000
  H   H569      1.0  0.95515  0.32605  0.56492  1.0000
  N   N36       1.0  0.88744  0.33536  0.57159  1.0000
  N   N37       1.0  0.97379  0.29657  0.81446  1.0000
  H   H570      1.0  0.72185  0.44401  0.02075  1.0000
  C   C354      1.0  0.92836  0.33960  0.55847  1.0000
  H   H571      1.0  0.76447  0.49656  0.67168  1.0000
  H   H572      1.0  0.81928  0.43390  0.98266  1.0000
  H   H573      1.0  0.85650  0.50900  0.65443  1.0000
  S   S145      1.0  0.02231  0.41455  0.82670  1.0000
  C   C355      1.0  0.85228  0.35314  0.56188  1.0000
  H   H574      1.0  0.03894  0.31261  0.82464  1.0000
  H   H575      1.0  0.86355  0.37258  0.56575  1.0000
  H   H576      1.0  0.92571  0.29577  0.84262  1.0000
  C   C356      1.0  0.96252  0.29443  0.84139  1.0000
  H   H577      1.0  0.83911  0.51520  0.68588  1.0000
  Fe  Fe71      1.0  0.63714  0.66331  0.10997  1.0000
  S   S146      1.0  0.70081  0.64558  0.12700  1.0000
  H   H578      1.0  0.59390  0.61566  0.07161  1.0000
  Fe  Fe72      1.0  0.68645  0.69897  0.07703  1.0000
  S   S147      1.0  0.75450  0.68351  0.09088  1.0000
  H   H579      1.0  0.91266  0.78564  0.21755  1.0000
  Fe  Fe73      1.0  0.72092  0.64623  0.08651  1.0000
  H   H580      1.0  0.63816  0.75059  0.08800  1.0000
  Fe  Fe74      1.0  0.72865  0.68424  0.13000  1.0000
  S   S148      1.0  0.76628  0.69934  0.16666  1.0000
  S   S149      1.0  0.65562  0.66167  0.06938  1.0000
  S   S150      1.0  0.66231  0.70219  0.11626  1.0000
  S   S151      1.0  0.97658  0.68369  0.19165  1.0000
  H   H581      1.0  0.57643  0.55603  0.10409  1.0000
  C   C357      1.0  0.82421  0.69340  0.17384  1.0000
  C   C358      1.0  0.84532  0.69995  0.19823  1.0000
  C   C359      1.0  0.89193  0.69682  0.20407  1.0000
  C   C360      1.0  0.91772  0.68699  0.18556  1.0000
  C   C361      1.0  0.89649  0.68010  0.16131  1.0000
  C   C362      1.0  0.84992  0.68329  0.15544  1.0000
  H   H582      1.0  0.82554  0.70756  0.21263  1.0000
  H   H583      1.0  0.90776  0.70185  0.22293  1.0000
  H   H584      1.0  0.91619  0.67233  0.14695  1.0000
  H   H585      1.0  0.83401  0.67808  0.13663  1.0000
  H   H586      1.0  0.94781  0.72393  0.47751  1.0000
  C   C363      1.0  0.62787  0.76084  0.07060  1.0000
  H   H587      1.0  0.86962  0.75022  0.19691  1.0000
  N   N38       1.0  0.61851  0.57980  0.08376  1.0000
  Fe  Fe75      1.0  0.01575  0.70090  0.22671  1.0000
  H   H588      1.0  0.89895  0.61713  0.54464  1.0000
  H   H589      1.0  0.02854  0.73463  0.33468  1.0000
  Fe  Fe76      1.0  0.03677  0.75015  0.25248  1.0000
  H   H590      1.0  0.60496  0.65487  0.16564  1.0000
  H   H591      1.0  0.96899  0.78671  0.15730  1.0000
  H   H592      1.0  0.85285  0.76782  0.16840  1.0000
  H   H593      1.0  0.62550  0.55189  0.05492  1.0000
  C   C364      1.0  0.04145  0.73713  0.37625  1.0000
  C   C365      1.0  0.57374  0.57126  0.08967  1.0000
  S   S152      1.0  0.03799  0.68251  0.32246  1.0000
  H   H594      1.0  0.67811  0.59549  0.10389  1.0000
  S   S153      1.0  0.74736  0.61043  0.07125  1.0000
  H   H595      1.0  0.03247  0.64211  0.50148  1.0000
  S   S154      1.0  0.01275  0.68118  0.53667  1.0000
  H   H596      1.0  0.94920  0.69110  0.41466  1.0000
  H   H597      1.0  0.94984  0.74565  0.21211  1.0000
  H   H598      1.0  0.93875  0.76082  0.14255  1.0000
  C   C366      1.0  0.64400  0.58907  0.10764  1.0000
  N   N39       1.0  0.92361  0.76920  0.18106  1.0000
  H   H599      1.0  0.98042  0.65964  0.46177  1.0000
  H   H600      1.0  0.58673  0.55106  0.22233  1.0000
  H   H601      1.0  0.88101  0.71571  0.44647  1.0000
  H   H602      1.0  0.00945  0.56899  0.52509  1.0000
  H   H603      1.0  0.98945  0.70052  0.48395  1.0000
  H   H604      1.0  0.59076  0.54994  0.29405  1.0000
  S   S155      1.0  0.98595  0.72060  0.25880  1.0000
  H   H605      1.0  0.57830  0.58290  0.23088  1.0000
  N   N40       1.0  0.63710  0.54215  0.50823  1.0000
  H   H606      1.0  0.62661  0.60495  0.11595  1.0000
  H   H607      1.0  0.87431  0.68618  0.43068  1.0000
  N   N41       1.0  0.55406  0.55634  0.25698  1.0000
  C   C367      1.0  0.88010  0.75606  0.17791  1.0000
  H   H608      1.0  0.99746  0.69660  0.43711  1.0000
  C   C368      1.0  0.96081  0.70013  0.43338  1.0000
  C   C369      1.0  0.94404  0.66392  0.45775  1.0000
  H   H609      1.0  0.57049  0.73189  0.10309  1.0000
  H   H610      1.0  0.55341  0.56431  0.07204  1.0000
  H   H611      1.0  0.86858  0.68875  0.46465  1.0000
  C   C370      1.0  0.95861  0.75251  0.19313  1.0000
  H   H612      1.0  0.68848  0.55887  0.48794  1.0000
  C   C371      1.0  0.60186  0.78239  0.07176  1.0000
  C   C372      1.0  0.55345  0.70135  0.06236  1.0000
  H   H613      1.0  0.57562  0.64273  0.20689  1.0000
  Fe  Fe77      1.0  0.86334  0.56223  0.52858  1.0000
  H   H614      1.0  0.99154  0.76213  0.19662  1.0000
  H   H615      1.0  0.95680  0.72047  0.43082  1.0000
  C   C373      1.0  0.64335  0.55914  0.07320  1.0000
  H   H616      1.0  0.64846  0.57449  0.12271  1.0000
  C   C374      1.0  0.61313  0.59989  0.06451  1.0000
  C   C375      1.0  0.03788  0.72464  0.35241  1.0000
  S   S156      1.0  0.91642  0.57959  0.50651  1.0000
  S   S157      1.0  0.79037  0.55951  0.51388  1.0000
  H   H617      1.0  0.67514  0.57554  0.51598  1.0000
  H   H618      1.0  0.92699  0.65631  0.47411  1.0000
  C   C376      1.0  0.92792  0.62261  0.53514  1.0000
  C   C377      1.0  0.88788  0.69558  0.44887  1.0000
  H   H619      1.0  0.93143  0.65357  0.43999  1.0000
  C   C378      1.0  0.94317  0.60754  0.51601  1.0000
  C   C379      1.0  0.98078  0.61478  0.50383  1.0000
  C   C380      1.0  0.00315  0.63695  0.51071  1.0000
  C   C381      1.0  0.98729  0.65239  0.52929  1.0000
  H   H620      1.0  0.96329  0.73602  0.18086  1.0000
  C   C382      1.0  0.66040  0.56418  0.49935  1.0000
  S   S158      1.0  0.56722  0.64826  0.11202  1.0000
  H   H621      1.0  0.93591  0.69677  0.49569  1.0000
  C   C383      1.0  0.57384  0.64463  0.16532  1.0000
  C   C384      1.0  0.94982  0.64512  0.54163  1.0000
  C   C385      1.0  0.95293  0.70359  0.47898  1.0000
  N   N42       1.0  0.93642  0.69080  0.45474  1.0000
  C   C386      1.0  0.93594  0.77704  0.15552  1.0000
  H   H622      1.0  0.99286  0.60311  0.48909  1.0000
  H   H623      1.0  0.88199  0.73902  0.16599  1.0000
  C   C387      1.0  0.55720  0.63774  0.18866  1.0000
  H   H624      1.0  0.56551  0.68354  0.07109  1.0000
  H   H625      1.0  0.67740  0.56517  0.06878  1.0000
  C   C388      1.0  0.59657  0.55564  0.27408  1.0000
  H   H626      1.0  0.64797  0.54354  0.08712  1.0000
  C   C389      1.0  0.56334  0.56402  0.23078  1.0000
  H   H627      1.0  0.55505  0.70192  0.11400  1.0000
  H   H628      1.0  0.03488  0.75677  0.37681  1.0000
  C   C390      1.0  0.54947  0.63879  0.14173  1.0000
  H   H629      1.0  0.58347  0.71328  0.06116  1.0000
  H   H630      1.0  0.61305  0.57413  0.27539  1.0000
  C   C391      1.0  0.03586  0.55777  0.53610  1.0000
  H   H631      1.0  0.63712  0.57622  0.48695  1.0000
  H   H632      1.0  0.64630  0.60715  0.06019  1.0000
  Fe  Fe78      1.0  0.04126  0.70336  0.28516  1.0000
  H   H633      1.0  0.61314  0.56121  0.54041  1.0000
  H   H634      1.0  0.55449  0.58656  0.09783  1.0000
  H   H635      1.0  0.57501  0.56138  0.51138  1.0000
  H   H636      1.0  0.62071  0.54228  0.26689  1.0000
  C   C392      1.0  0.60018  0.54998  0.52326  1.0000
  C   C393      1.0  0.64169  0.75307  0.04699  1.0000
  H   H637      1.0  0.59519  0.59344  0.04594  1.0000
  C   C394      1.0  0.04491  0.69911  0.35169  1.0000
  H   H638      1.0  0.59425  0.53820  0.47265  1.0000
  S   S159      1.0  0.85017  0.56641  0.57009  1.0000
  H   H639      1.0  0.55686  0.67151  0.82058  1.0000
  H   H640      1.0  0.72703  0.61739  0.92808  1.0000
  Fe  Fe79      1.0  0.77785  0.55972  0.55575  1.0000
  S   S160      1.0  0.71663  0.57827  0.56884  1.0000
  S   S161      1.0  0.72801  0.61392  0.68540  1.0000
  S   S162      1.0  0.60276  0.63252  0.67275  1.0000
  C   C395      1.0  0.54704  0.74183  0.71131  1.0000
  C   C396      1.0  0.72042  0.58858  0.60108  1.0000
  C   C397      1.0  0.76111  0.59690  0.61374  1.0000
  C   C398      1.0  0.76317  0.60492  0.63955  1.0000
  C   C399      1.0  0.72463  0.60453  0.65283  1.0000
  C   C400      1.0  0.68414  0.59591  0.64020  1.0000
  C   C401      1.0  0.68195  0.58822  0.61433  1.0000
  H   H641      1.0  0.79081  0.59757  0.60352  1.0000
  H   H642      1.0  0.79457  0.61162  0.64921  1.0000
  H   H643      1.0  0.65455  0.59481  0.65043  1.0000
  H   H644      1.0  0.65042  0.58166  0.60472  1.0000
  H   H645      1.0  0.59377  0.66148  0.78142  1.0000
  H   H646      1.0  0.95604  0.55481  0.55509  1.0000
  H   H647      1.0  0.99975  0.55557  0.58134  1.0000
  H   H648      1.0  0.81597  0.55540  0.62858  1.0000
  C   C402      1.0  0.57232  0.71994  0.71355  1.0000
  H   H649      1.0  0.70228  0.78156  0.72388  1.0000
  C   C403      1.0  0.57864  0.67862  0.77251  1.0000
  Fe  Fe80      1.0  0.66011  0.61916  0.70000  1.0000
  C   C404      1.0  0.77154  0.54612  0.67018  1.0000
  H   H650      1.0  0.73703  0.55083  0.66153  1.0000
  Fe  Fe81      1.0  0.58364  0.65564  0.70559  1.0000
  S   S163      1.0  0.67589  0.72690  0.04472  1.0000
  C   C405      1.0  0.74147  0.57774  0.03071  1.0000
  H   H651      1.0  0.56621  0.70394  0.81555  1.0000
  H   H652      1.0  0.63324  0.70308  0.73072  1.0000
  H   H653      1.0  0.74768  0.58803  0.91935  1.0000
  N   N43       1.0  0.70901  0.60703  0.88841  1.0000
  S   S164      1.0  0.68152  0.57617  0.95698  1.0000
  H   H654      1.0  0.60342  0.69384  0.77651  1.0000
  H   H655      1.0  0.67061  0.62144  0.98396  1.0000
  Fe  Fe82      1.0  0.60230  0.61412  0.74445  1.0000
  C   C406      1.0  0.62965  0.76702  0.02469  1.0000
  S   S165      1.0  0.59467  0.60834  0.78697  1.0000
  H   H656      1.0  0.76150  0.54264  0.61851  1.0000
  H   H657      1.0  0.64066  0.59628  0.87706  1.0000
  H   H658      1.0  0.58619  0.58523  0.83593  1.0000
  S   S166      1.0  0.64496  0.64528  0.73183  1.0000
  H   H659      1.0  0.77354  0.61559  0.90870  1.0000
  H   H660      1.0  0.73230  0.64189  0.87520  1.0000
  C   C407      1.0  0.72822  0.59275  0.86789  1.0000
  C   C408      1.0  0.70066  0.63272  0.87960  1.0000
  C   C409      1.0  0.63700  0.55681  0.84074  1.0000
  H   H661      1.0  0.68600  0.64394  0.89463  1.0000
  H   H662      1.0  0.65183  0.60514  0.91034  1.0000
  H   H663      1.0  0.73543  0.55144  0.99923  1.0000
  H   H664      1.0  0.76151  0.60009  0.86388  1.0000
  H   H665      1.0  0.73282  0.57292  0.87327  1.0000
  C   C410      1.0  0.60220  0.76278  0.74115  1.0000
  C   C411      1.0  0.68191  0.55189  0.80497  1.0000
  H   H666      1.0  0.65912  0.74059  0.75544  1.0000
  H   H667      1.0  0.86040  0.53975  0.66724  1.0000
  C   C412      1.0  0.65796  0.57104  0.79153  1.0000
  C   C413      1.0  0.62367  0.58330  0.80273  1.0000
  C   C414      1.0  0.61315  0.57607  0.82733  1.0000
  C   C415      1.0  0.61309  0.71970  0.72921  1.0000
  H   H668      1.0  0.67090  0.57588  0.89973  1.0000
  H   H669      1.0  0.66635  0.57644  0.77259  1.0000
  C   C416      1.0  0.56196  0.76323  0.72501  1.0000
  H   H670      1.0  0.70590  0.59322  0.84944  1.0000
  C   C417      1.0  0.70103  0.58541  0.98864  1.0000
  C   C418      1.0  0.72678  0.56971  0.00554  1.0000
  H   H671      1.0  0.67680  0.63330  0.86174  1.0000
  S   S167      1.0  0.62280  0.58709  0.71490  1.0000
  C   C419      1.0  0.70512  0.61720  0.02209  1.0000
  C   C420      1.0  0.69033  0.60916  0.99698  1.0000
  H   H672      1.0  0.69710  0.63562  0.02818  1.0000
  C   C421      1.0  0.74081  0.60709  0.91208  1.0000
  H   H673      1.0  0.79079  0.56376  0.67220  1.0000
  C   C422      1.0  0.62779  0.74100  0.74310  1.0000
  C   C423      1.0  0.66620  0.59563  0.89406  1.0000
  H   H674      1.0  0.64038  0.76114  0.00639  1.0000
  Fe  Fe83      1.0  0.56407  0.60193  0.68924  1.0000
  H   H675      1.0  0.93757  0.65698  0.55614  1.0000
  H   H676      1.0  0.76866  0.53900  0.68999  1.0000
  H   H677      1.0  0.76135  0.56553  0.04374  1.0000
  S   S168      1.0  0.55067  0.69295  0.69768  1.0000
  C   C424      1.0  0.98372  0.54383  0.56544  1.0000
  H   H678      1.0  0.62836  0.55111  0.85953  1.0000
  H   H679      1.0  0.57424  0.67566  0.75127  1.0000
  C   C425      1.0  0.67180  0.54484  0.82968  1.0000
  C   C426      1.0  0.73051  0.60146  0.03910  1.0000
  Fe  Fe84      1.0  0.69867  0.53849  0.94181  1.0000
  H   H680      1.0  0.71819  0.78045  0.69153  1.0000
  H   H681      1.0  0.70863  0.54261  0.79624  1.0000
  H   H682      1.0  0.54552  0.63898  0.62457  1.0000
  C   C427      1.0  0.79551  0.53818  0.62804  1.0000
  H   H683      1.0  0.76590  0.92845  0.05418  1.0000
  S   S169      1.0  0.96434  0.94868  0.16941  1.0000
  H   H684      1.0  0.00228  0.96367  0.12272  1.0000
  H   H685      1.0  0.03279  0.99017  0.15911  1.0000
  H   H686      1.0  0.00343  0.01087  0.09144  1.0000
  C   C428      1.0  0.01421  0.01160  0.11251  1.0000
  H   H687      1.0  0.03266  0.87609  0.23183  1.0000
  H   H688      1.0  0.98590  0.83933  0.23857  1.0000
  H   H689      1.0  0.98383  0.00823  0.12270  1.0000
  Fe  Fe85      1.0  0.02218  0.95133  0.20067  1.0000
  C   C429      1.0  0.93654  0.97597  0.15866  1.0000
  C   C430      1.0  0.94307  0.99803  0.17252  1.0000
  C   C431      1.0  0.92202  0.01980  0.16303  1.0000
  H   H690      1.0  0.79937  0.83113  0.05050  1.0000
  C   C432      1.0  0.88778  0.99762  0.12568  1.0000
  C   C433      1.0  0.90862  0.97577  0.13531  1.0000
  H   H691      1.0  0.96389  0.99829  0.19070  1.0000
  H   H692      1.0  0.86647  0.99738  0.10761  1.0000
  H   H693      1.0  0.90334  0.95871  0.12455  1.0000
  H   H694      1.0  0.03714  0.02361  0.51651  1.0000
  H   H695      1.0  0.64997  0.97773  0.06121  1.0000
  C   C434      1.0  0.73283  0.80156  0.06319  1.0000
  S   S170      1.0  0.76633  0.02886  0.07569  1.0000
  H   H696      1.0  0.69457  0.84139  0.08237  1.0000
  S   S171      1.0  0.02795  0.92951  0.23758  1.0000
  H   H697      1.0  0.77701  0.84326  0.07883  1.0000
  H   H698      1.0  0.02578  0.03075  0.11739  1.0000
  H   H699      1.0  0.65790  0.82965  0.05579  1.0000
  H   H700      1.0  0.02399  0.96623  0.09195  1.0000
  C   C435      1.0  0.58990  0.79634  0.04939  1.0000
  C   C436      1.0  0.02200  0.83749  0.23939  1.0000
  C   C437      1.0  0.89452  0.01967  0.13958  1.0000
  H   H701      1.0  0.73913  0.80283  0.08458  1.0000
  C   C438      1.0  0.69013  0.83946  0.06100  1.0000
  S   S172      1.0  0.55888  0.82380  0.05146  1.0000
  H   H702      1.0  0.70176  0.79049  0.05874  1.0000
  H   H703      1.0  0.89326  0.80391  0.18974  1.0000
  H   H704      1.0  0.95230  0.80163  0.20020  1.0000
  H   H705      1.0  0.03865  0.86958  0.32353  1.0000
  H   H706      1.0  0.76759  0.85925  0.04863  1.0000
  H   H707      1.0  0.59161  0.78853  0.09008  1.0000
  C   C439      1.0  0.76996  0.84055  0.05761  1.0000
  H   H708      1.0  0.68602  0.85834  0.05272  1.0000
  C   C440      1.0  0.03288  0.96815  0.11312  1.0000
  H   H709      1.0  0.76076  0.79086  0.05597  1.0000
  H   H710      1.0  0.59153  0.01063  0.05512  1.0000
  C   C441      1.0  0.04195  0.81425  0.24405  1.0000
  C   C442      1.0  0.92012  0.79110  0.19777  1.0000
  H   H711      1.0  0.79155  0.97161  0.04808  1.0000
  N   N44       1.0  0.72820  0.82628  0.05116  1.0000
  H   H712      1.0  0.91049  0.78983  0.14587  1.0000
  S   S173      1.0  0.00734  0.78867  0.24881  1.0000
  H   H713      1.0  0.92714  0.03681  0.17389  1.0000
  C   C443      1.0  0.66288  0.01502  0.69802  1.0000
  Fe  Fe86      1.0  0.89758  0.99133  0.67538  1.0000
  S   S174      1.0  0.92331  0.96216  0.64968  1.0000
  S   S175      1.0  0.82541  0.00355  0.66933  1.0000
  C   C444      1.0  0.72203  0.79126  0.70983  1.0000
  H   H714      1.0  0.74767  0.83107  0.73877  1.0000
  H   H715      1.0  0.97982  0.92351  0.63366  1.0000
  H   H716      1.0  0.99367  0.99906  0.65858  1.0000
  C   C445      1.0  0.73290  0.82947  0.68701  1.0000
  H   H717      1.0  0.93076  0.03386  0.85213  1.0000
  H   H718      1.0  0.77106  0.94827  0.69029  1.0000
  H   H719      1.0  0.68346  0.00408  0.71299  1.0000
  H   H720      1.0  0.72665  0.97083  0.97060  1.0000
  H   H721      1.0  0.03676  0.94813  0.69409  1.0000
  C   C446      1.0  0.98128  0.96139  0.64660  1.0000
  C   C447      1.0  0.68320  0.91460  0.70913  1.0000
  H   H722      1.0  0.72353  0.91177  0.67718  1.0000
  S   S176      1.0  0.64958  0.88879  0.69926  1.0000
  C   C448      1.0  0.70644  0.00013  0.66461  1.0000
  C   C449      1.0  0.74448  0.94275  0.70171  1.0000
  H   H723      1.0  0.63380  0.00322  0.69081  1.0000
  H   H724      1.0  0.72938  0.81993  0.66796  1.0000
  C   C450      1.0  0.71760  0.92205  0.69435  1.0000
  C   C451      1.0  0.75669  0.93786  0.03610  1.0000
  Fe  Fe87      1.0  0.82497  0.99727  0.71189  1.0000
  H   H725      1.0  0.71631  0.84182  0.01308  1.0000
  N   N45       1.0  0.62421  0.99347  0.02475  1.0000
  S   S177      1.0  0.89470  0.98194  0.71716  1.0000
  H   H726      1.0  0.68839  0.81295  0.01725  1.0000
  H   H727      1.0  0.69033  0.00557  0.01785  1.0000
  C   C452      1.0  0.00853  0.98193  0.65303  1.0000
  H   H728      1.0  0.01754  0.94781  0.76319  1.0000
  H   H729      1.0  0.67112  0.96391  0.03353  1.0000
  C   C453      1.0  0.57298  0.88503  0.84851  1.0000
  S   S178      1.0  0.92584  0.02948  0.68287  1.0000
  C   C454      1.0  0.67582  0.92794  0.73133  1.0000
  H   H730      1.0  0.58058  0.91976  0.86884  1.0000
  C   C455      1.0  0.55917  0.84957  0.87513  1.0000
  N   N46       1.0  0.70641  0.81700  0.70569  1.0000
  C   C456      1.0  0.00080  0.93943  0.63876  1.0000
  H   H731      1.0  0.56986  0.01958  0.02300  1.0000
  H   H732      1.0  0.03055  0.98003  0.76880  1.0000
  H   H733      1.0  0.72596  0.00496  0.64821  1.0000
  C   C457      1.0  0.71851  0.93784  0.99279  1.0000
  H   H734      1.0  0.64240  0.97700  0.98963  1.0000
  C   C458      1.0  0.64081  0.97220  0.04078  1.0000
  S   S179      1.0  0.61814  0.84959  0.99241  1.0000
  H   H735      1.0  0.67859  0.98758  0.65719  1.0000
  H   H736      1.0  0.99816  0.03137  0.97798  1.0000
  S   S180      1.0  0.59581  0.90767  0.97580  1.0000
  Fe  Fe88      1.0  0.60216  0.87455  0.72720  1.0000
  S   S181      1.0  0.78044  0.00381  0.00327  1.0000
  Fe  Fe89      1.0  0.64194  0.88730  0.00519  1.0000
  S   S182      1.0  0.71370  0.89501  0.02029  1.0000
  C   C459      1.0  0.56578  0.85965  0.85092  1.0000
  S   S183      1.0  0.59585  0.88944  0.03615  1.0000
  C   C460      1.0  0.58387  0.00384  0.03495  1.0000
  Fe  Fe90      1.0  0.57291  0.87532  0.78183  1.0000
  S   S184      1.0  0.63186  0.85876  0.76481  1.0000
  H   H737      1.0  0.72909  0.98932  0.67863  1.0000
  C   C461      1.0  0.70222  0.94882  0.73846  1.0000
  C   C462      1.0  0.56928  0.88993  0.89493  1.0000
  Fe  Fe91      1.0  0.58706  0.82613  0.75425  1.0000
  H   H738      1.0  0.76923  0.83004  0.69408  1.0000
  H   H739      1.0  0.00100  0.99741  0.71309  1.0000
  C   C463      1.0  0.71983  0.82351  0.02282  1.0000
  C   C464      1.0  0.01815  0.94924  0.71150  1.0000
  H   H740      1.0  0.84969  0.03599  0.85885  1.0000
  H   H741      1.0  0.69856  0.92841  0.97726  1.0000
  Fe  Fe92      1.0  0.91734  0.02109  0.72440  1.0000
  S   S185      1.0  0.97039  0.02740  0.75774  1.0000
  H   H742      1.0  0.70024  0.84998  0.72815  1.0000
  S   S186      1.0  0.55973  0.84109  0.71569  1.0000
  C   C465      1.0  0.77112  0.96225  0.03270  1.0000
  H   H743      1.0  0.69598  0.95917  0.75555  1.0000
  H   H744      1.0  0.64950  0.92232  0.74289  1.0000
  H   H745      1.0  0.55691  0.98971  0.03510  1.0000
  H   H746      1.0  0.56452  0.84784  0.83408  1.0000
  H   H747      1.0  0.65299  0.80672  0.67684  1.0000
  S   S187      1.0  0.76707  0.98346  0.73277  1.0000
  S   S188      1.0  0.57597  0.89878  0.81799  1.0000
  C   C466      1.0  0.73657  0.95631  0.72372  1.0000
  C   C467      1.0  0.73449  0.96178  0.98904  1.0000
  H   H748      1.0  0.63746  0.80779  0.70920  1.0000
  C   C468      1.0  0.73032  0.92568  0.01614  1.0000
  H   H749      1.0  0.58620  0.97050  0.99668  1.0000
  N   N47       1.0  0.68957  0.02245  0.67689  1.0000
  C   C469      1.0  0.65854  0.81686  0.69549  1.0000
  H   H750      1.0  0.61501  0.95730  0.04057  1.0000
  C   C470      1.0  0.76072  0.97401  0.00896  1.0000
  C   C471      1.0  0.71195  0.83049  0.73052  1.0000
  H   H751      1.0  0.74771  0.81353  0.01470  1.0000
  H   H752      1.0  0.64561  0.83598  0.69207  1.0000
  C   C472      1.0  0.56083  0.86465  0.89720  1.0000
  H   H753      1.0  0.64814  0.02900  0.01350  1.0000
  C   C473      1.0  0.60386  0.78857  0.02587  1.0000
  H   H754      1.0  0.57047  0.90170  0.91180  1.0000
  C   C474      1.0  0.03637  0.99230  0.71954  1.0000
  Fe  Fe93      1.0  0.56830  0.85315  0.02140  1.0000
  S   S189      1.0  0.54963  0.85132  0.92681  1.0000
  Fe  Fe94      1.0  0.56704  0.86988  0.96559  1.0000
  H   H755      1.0  0.69240  0.82162  0.74511  1.0000
  H   H756      1.0  0.63214  0.02568  0.64879  1.0000
  H   H757      1.0  0.60001  0.00053  0.98508  1.0000
  H   H758      1.0  0.72155  0.84898  0.68371  1.0000
  Fe  Fe95      1.0  0.54740  0.90735  0.00626  1.0000
  C   C475      1.0  0.72795  0.03784  0.68746  1.0000
  C   C476      1.0  0.65942  0.01271  0.02544  1.0000
  Fe  Fe96      1.0  0.79095  0.03065  0.03628  1.0000
  C   C477      1.0  0.61269  0.98506  0.99784  1.0000
  H   H759      1.0  0.74975  0.02772  0.70251  1.0000
  N   N48       1.0  0.03936  0.96710  0.73052  1.0000
  H   H760      1.0  0.01748  0.93026  0.71962  1.0000
  H   H761      1.0  0.97982  0.97141  0.74993  1.0000
  H   H762      1.0  0.98289  0.95450  0.70481  1.0000
  S   S190      1.0  0.84744  0.03586  0.72260  1.0000
  H   H763      1.0  0.59437  0.79903  0.00848  1.0000
  C   C478      1.0  0.57498  0.90011  0.87059  1.0000
  H   H764      1.0  0.64986  0.03136  0.70790  1.0000
  H   H765      1.0  0.75799  0.79059  0.71766  1.0000
  H   H766      1.0  0.55276  0.82999  0.87681  1.0000
  C   C479      1.0  0.01590  0.96645  0.75418  1.0000
  H   H767      1.0  0.87429  0.03733  0.81432  1.0000
  C   C480      1.0  0.66117  0.03682  0.65741  1.0000
  S   S191      1.0  0.62141  0.78880  0.75952  1.0000
  S   S192      1.0  0.54674  0.89427  0.74485  1.0000
  H   H768      1.0  0.66905  0.01944  0.04547  1.0000
