data_image0
_chemical_formula_structural       FeS2FeS2FeCFeCS2HCNH3SCH2C4H4CH2CH2SC2HC2FeCSHCH2CNCHCHCHSH2CHCH4CH3NCH3C2FeSCHC2H5SH8CHCH2C2SCH4NH2CH4CHCH2SHFeSCFeSCFeSFeCS2C2SC3HC3HCSHC5H4CHSH4SH3CH5NHCH2CH3CHCH2CSH2CSCH3CFeC2SHSH3C2HCH4NCH3C2HCHFeH3CHFeHFeSH2C4NSHC3HSC3H2SH2CHCSH2CHNCH6C2HCH2CSHC2SNFeSFeCFeHC3H4CHCH5SCSH2SHS2HCS2FeHC4HC2FeCH2CH4FeCFeS2HC3HCH6C2HC3NH2SHSHNH3CHCHC2H5SCSH2NH2CH3FeHC2H3NCHC2H4CH5CSFeSH7NCFeS2Fe2SH6C7H4S2CH3SHSCH2Fe2C2H2CNSH2CHCHSCSCH5CHCHC2H4NHS2FeSHFeHC3HC2H3CH2SH2SC2H2SH3FeC2SCFeHNC2HFeC2SCSC2NHCH3CH3CH2CH2FeH5SNFeCHC3H5CHC2H6C3HCS2FeCH2C2HCHC2FeS2FeS2FeCFeCS3H2C2NH4C4H4SHNC3HCSHCH3CH6C2H3CHCH4C2H6SCHSC2FeHCH2NH2C2H2CHC2H2FeHCH4SHS2H2CH4CSH2CHCFeSH2SHFeSFeS2HFeSHNC2H3SC6HCHCH5SHFeCH4SCH2NFeHC
_chemical_formula_sum              "Fe48 S96 C240 H384 N24"
_cell_length_a       28.338
_cell_length_b       27.9891
_cell_length_c       39.0749
_cell_angle_alpha    88.9212
_cell_angle_beta     88.5329
_cell_angle_gamma    90.1775

_space_group_name_H-M_alt    "P 1"
_space_group_IT_number       1

loop_
  _space_group_symop_operation_xyz
  'x, y, z'

loop_
  _atom_site_type_symbol
  _atom_site_label
  _atom_site_symmetry_multiplicity
  _atom_site_fract_x
  _atom_site_fract_y
  _atom_site_fract_z
  _atom_site_occupancy
  Fe  Fe1       1.0  0.23152  0.18287  0.25975  1.0000
  S   S1        1.0  0.21203  0.14014  0.30694  1.0000
  S   S2        1.0  0.24789  0.14438  0.21127  1.0000
  Fe  Fe2       1.0  0.20667  0.27730  0.29193  1.0000
  S   S3        1.0  0.18446  0.24297  0.34210  1.0000
  S   S4        1.0  0.20154  0.35646  0.28251  1.0000
  Fe  Fe3       1.0  0.24948  0.19814  0.33460  1.0000
  C   C1        1.0  0.43287  0.15812  0.39309  1.0000
  Fe  Fe4       1.0  0.14935  0.18848  0.30994  1.0000
  C   C2        1.0  0.06928  0.10190  0.32498  1.0000
  S   S5        1.0  0.27481  0.23718  0.28680  1.0000
  S   S6        1.0  0.16591  0.22686  0.26037  1.0000
  H   H1        1.0  0.45532  0.14868  0.41407  1.0000
  C   C3        1.0  0.42233  0.17518  0.33286  1.0000
  N   N1        1.0  0.10951  0.06498  0.21935  1.0000
  H   H2        1.0  0.17739  0.41286  0.22301  1.0000
  H   H3        1.0  0.08209  0.36768  0.20856  1.0000
  H   H4        1.0  0.10769  0.37807  0.40010  1.0000
  S   S7        1.0  0.07445  0.16331  0.31603  1.0000
  C   C4        1.0  0.19760  0.40402  0.38440  1.0000
  H   H5        1.0  0.17413  0.07978  0.19100  1.0000
  H   H6        1.0  0.13746  0.09507  0.34760  1.0000
  C   C5        1.0  0.10830  0.11195  0.23600  1.0000
  C   C6        1.0  0.14425  0.42717  0.30684  1.0000
  C   C7        1.0  0.14910  0.37823  0.30098  1.0000
  C   C8        1.0  0.11325  0.34659  0.31180  1.0000
  H   H7        1.0  0.35106  0.18898  0.31785  1.0000
  H   H8        1.0  0.20898  0.33402  0.20714  1.0000
  H   H9        1.0  0.17172  0.45182  0.29816  1.0000
  H   H10       1.0  0.11630  0.30885  0.30679  1.0000
  C   C9        1.0  0.37370  0.18107  0.33897  1.0000
  H   H11       1.0  0.20364  0.38236  0.36106  1.0000
  H   H12       1.0  0.43686  0.17903  0.30706  1.0000
  C   C10       1.0  0.08086  0.06689  0.18825  1.0000
  H   H13       1.0  0.12922  0.11157  0.25975  1.0000
  H   H14       1.0  0.27817  0.24261  0.21239  1.0000
  S   S8        1.0  0.29366  0.18139  0.38044  1.0000
  C   C11       1.0  0.13549  0.35102  0.40526  1.0000
  C   C12       1.0  0.38440  0.16506  0.39929  1.0000
  H   H15       1.0  0.12348  0.14063  0.21889  1.0000
  C   C13       1.0  0.10609  0.07652  0.33997  1.0000
  C   C14       1.0  0.11463  0.34570  0.20615  1.0000
  Fe  Fe5       1.0  0.54573  0.10097  0.38687  1.0000
  C   C15       1.0  0.35465  0.17620  0.37221  1.0000
  S   S9        1.0  0.51233  0.15417  0.35138  1.0000
  H   H16       1.0  0.07165  0.12237  0.24360  1.0000
  C   C16       1.0  0.45189  0.16311  0.35982  1.0000
  H   H17       1.0  0.19001  0.43479  0.18031  1.0000
  H   H18       1.0  0.17158  0.43230  0.37800  1.0000
  C   C17       1.0  0.56069  0.27962  0.37865  1.0000
  N   N2        1.0  0.15047  0.36907  0.18325  1.0000
  C   C18       1.0  0.27212  0.23323  0.18620  1.0000
  H   H19       1.0  0.54138  0.25359  0.36281  1.0000
  C   C19       1.0  0.25844  0.18673  0.17838  1.0000
  H   H20       1.0  0.10444  0.30999  0.19665  1.0000
  C   C20       1.0  0.10504  0.44401  0.32563  1.0000
  H   H21       1.0  0.13940  0.32878  0.38204  1.0000
  S   S10       1.0  0.11478  0.52971  0.39543  1.0000
  H   H22       1.0  0.13141  0.43999  0.19870  1.0000
  H   H23       1.0  0.18516  0.30278  0.17174  1.0000
  C   C21       1.0  0.16282  0.41630  0.19686  1.0000
  H   H24       1.0  0.12824  0.34009  0.23241  1.0000
  C   C22       1.0  0.19316  0.33898  0.18148  1.0000
  H   H25       1.0  0.35048  0.07487  0.35038  1.0000
  H   H26       1.0  0.10193  0.48165  0.33086  1.0000
  H   H27       1.0  0.42275  0.06237  0.38368  1.0000
  H   H28       1.0  0.22249  0.31355  0.39870  1.0000
  C   C23       1.0  0.07371  0.36354  0.33005  1.0000
  H   H29       1.0  0.51780  0.21004  0.41583  1.0000
  H   H30       1.0  0.23146  0.42220  0.38992  1.0000
  H   H31       1.0  0.09393  0.09513  0.16989  1.0000
  N   N3        1.0  0.18064  0.37402  0.41374  1.0000
  C   C24       1.0  0.07038  0.41198  0.33803  1.0000
  H   H32       1.0  0.53591  0.30929  0.38452  1.0000
  H   H33       1.0  0.31528  0.07724  0.38901  1.0000
  H   H34       1.0  0.16079  0.38304  0.46681  1.0000
  C   C25       1.0  0.50753  0.52691  0.51705  1.0000
  C   C26       1.0  0.21607  0.33683  0.42119  1.0000
  Fe  Fe6       1.0  0.10074  0.53462  0.45185  1.0000
  S   S11       1.0  0.16074  0.51412  0.48543  1.0000
  C   C27       1.0  0.17326  0.40431  0.44399  1.0000
  H   H35       1.0  0.49362  0.49966  0.50077  1.0000
  C   C28       1.0  0.53740  0.23693  0.43059  1.0000
  C   C29       1.0  0.54554  0.51655  0.53817  1.0000
  H   H36       1.0  0.56019  0.48104  0.53865  1.0000
  H   H37       1.0  0.20435  0.31323  0.44304  1.0000
  H   H38       1.0  0.20627  0.42313  0.45091  1.0000
  H   H39       1.0  0.14633  0.43243  0.43916  1.0000
  H   H40       1.0  0.56518  0.22393  0.53139  1.0000
  S   S12       1.0  0.54313  0.10838  0.44372  1.0000
  H   H41       1.0  0.25647  0.53797  0.50063  1.0000
  H   H42       1.0  0.54687  0.55233  0.64475  1.0000
  H   H43       1.0  0.25057  0.35293  0.42776  1.0000
  H   H44       1.0  0.36977  0.16120  0.42506  1.0000
  H   H45       1.0  0.54907  0.21904  0.45459  1.0000
  H   H46       1.0  0.38762  0.06631  0.42258  1.0000
  H   H47       1.0  0.51197  0.26537  0.43796  1.0000
  H   H48       1.0  0.12198  0.32738  0.42653  1.0000
  C   C30       1.0  0.56389  0.55191  0.55890  1.0000
  H   H49       1.0  0.44703  0.27031  0.87626  1.0000
  C   C31       1.0  0.50013  0.51152  0.82745  1.0000
  H   H50       1.0  0.48518  0.37115  0.86434  1.0000
  H   H51       1.0  0.26700  0.49650  0.91468  1.0000
  C   C32       1.0  0.54712  0.49602  0.82643  1.0000
  C   C33       1.0  0.48895  0.35331  0.88985  1.0000
  S   S13       1.0  0.54067  0.16181  0.81338  1.0000
  C   C34       1.0  0.55960  0.31266  0.87082  1.0000
  H   H52       1.0  0.42970  0.19055  0.89614  1.0000
  H   H53       1.0  0.18961  0.45915  0.90358  1.0000
  H   H54       1.0  0.47350  0.49059  0.84133  1.0000
  H   H55       1.0  0.47992  0.29065  0.83887  1.0000
  N   N4        1.0  0.51206  0.30625  0.88671  1.0000
  H   H56       1.0  0.48812  0.12762  0.90739  1.0000
  H   H57       1.0  0.49938  0.23905  0.86248  1.0000
  C   C35       1.0  0.48336  0.27521  0.86512  1.0000
  H   H58       1.0  0.45302  0.34979  0.90195  1.0000
  H   H59       1.0  0.54922  0.26314  0.80054  1.0000
  H   H60       1.0  0.53662  0.49720  0.69614  1.0000
  H   H61       1.0  0.53129  0.24722  0.91958  1.0000
  C   C36       1.0  0.55940  0.52219  0.71020  1.0000
  H   H62       1.0  0.55776  0.33004  0.84501  1.0000
  C   C37       1.0  0.48742  0.55369  0.80987  1.0000
  H   H63       1.0  0.50992  0.37792  0.90564  1.0000
  H   H64       1.0  0.53571  0.54839  0.72304  1.0000
  S   S14       1.0  0.56379  0.44306  0.84749  1.0000
  H   H65       1.0  0.16195  0.51574  0.91106  1.0000
  Fe  Fe7       1.0  0.24557  0.17419  0.00859  1.0000
  S   S15       1.0  0.19829  0.23075  0.02985  1.0000
  C   C38       1.0  0.16587  0.10086  0.96856  1.0000
  Fe  Fe8       1.0  0.31354  0.24564  0.97517  1.0000
  S   S16       1.0  0.27249  0.30903  0.99352  1.0000
  C   C39       1.0  0.47217  0.14629  0.92859  1.0000
  Fe  Fe9       1.0  0.26563  0.26730  0.04299  1.0000
  S   S17       1.0  0.27301  0.30089  0.09413  1.0000
  Fe  Fe10      1.0  0.20909  0.26689  0.97870  1.0000
  C   C40       1.0  0.06933  0.20042  0.96149  1.0000
  S   S18       1.0  0.31253  0.20738  0.02613  1.0000
  S   S19       1.0  0.25047  0.20683  0.95584  1.0000
  C   C41       1.0  0.09247  0.42423  0.01527  1.0000
  C   C42       1.0  0.48347  0.13394  0.96222  1.0000
  S   S20       1.0  0.14849  0.30096  0.95188  1.0000
  C   C43       1.0  0.24968  0.51767  0.93527  1.0000
  C   C44       1.0  0.25702  0.20938  0.11816  1.0000
  C   C45       1.0  0.12633  0.34786  0.97643  1.0000
  H   H66       1.0  0.19318  0.42696  0.97847  1.0000
  C   C46       1.0  0.26995  0.25613  0.12609  1.0000
  C   C47       1.0  0.14139  0.35368  0.00991  1.0000
  C   C48       1.0  0.12415  0.39160  0.02940  1.0000
  H   H67       1.0  0.15789  0.39256  0.13061  1.0000
  C   C49       1.0  0.35206  0.08088  0.97994  1.0000
  S   S21       1.0  0.22739  0.09781  0.02124  1.0000
  H   H68       1.0  0.16677  0.32941  0.02074  1.0000
  C   C50       1.0  0.12291  0.09079  0.95330  1.0000
  C   C51       1.0  0.27876  0.26762  0.16001  1.0000
  C   C52       1.0  0.13151  0.37521  0.14852  1.0000
  C   C53       1.0  0.09361  0.37968  0.96260  1.0000
  C   C54       1.0  0.35813  0.08420  0.04138  1.0000
  H   H69       1.0  0.37629  0.11188  0.97598  1.0000
  H   H70       1.0  0.09926  0.39786  0.14873  1.0000
  H   H71       1.0  0.29031  0.30326  0.16608  1.0000
  H   H72       1.0  0.13630  0.39636  0.05515  1.0000
  C   C55       1.0  0.22362  0.44667  0.96649  1.0000
  H   H73       1.0  0.14213  0.46362  0.93458  1.0000
  S   S22       1.0  0.52200  0.08629  0.97013  1.0000
  H   H74       1.0  0.24123  0.13859  0.13811  1.0000
  H   H75       1.0  0.12216  0.34020  0.13741  1.0000
  H   H76       1.0  0.27650  0.52529  0.95476  1.0000
  H   H77       1.0  0.23941  0.55259  0.92361  1.0000
  S   S23       1.0  0.37794  0.25255  0.94066  1.0000
  H   H78       1.0  0.38149  0.11623  0.03878  1.0000
  H   H79       1.0  0.22074  0.35510  0.16397  1.0000
  H   H80       1.0  0.31547  0.09528  0.98128  1.0000
  C   C56       1.0  0.25165  0.17457  0.14428  1.0000
  H   H81       1.0  0.19199  0.12248  0.95487  1.0000
  H   H82       1.0  0.15426  0.50427  0.98929  1.0000
  H   H83       1.0  0.25059  0.20007  0.09200  1.0000
  H   H84       1.0  0.24017  0.42265  0.94725  1.0000
  H   H85       1.0  0.09639  0.25507  0.01312  1.0000
  N   N5        1.0  0.20830  0.49224  0.95067  1.0000
  H   H86       1.0  0.08160  0.37500  0.93680  1.0000
  C   C57       1.0  0.18575  0.52229  0.97714  1.0000
  H   H87       1.0  0.10836  0.19944  0.96435  1.0000
  H   H88       1.0  0.53908  0.30535  0.93769  1.0000
  C   C58       1.0  0.41794  0.20665  0.94936  1.0000
  H   H89       1.0  0.32131  0.09740  0.04464  1.0000
  H   H90       1.0  0.47198  0.14993  0.01553  1.0000
  H   H91       1.0  0.09704  0.16522  0.02116  1.0000
  C   C59       1.0  0.42985  0.19512  0.98305  1.0000
  H   H92       1.0  0.21042  0.53049  0.99793  1.0000
  C   C60       1.0  0.46264  0.15873  0.98948  1.0000
  H   H93       1.0  0.41436  0.21472  0.00409  1.0000
  H   H94       1.0  0.11591  0.10510  0.92802  1.0000
  C   C61       1.0  0.17503  0.08263  0.00125  1.0000
  S   S24       1.0  0.07440  0.47330  0.03925  1.0000
  H   H95       1.0  0.24954  0.45257  0.98692  1.0000
  H   H96       1.0  0.48107  0.28056  0.93435  1.0000
  C   C62       1.0  0.07693  0.41815  0.98195  1.0000
  S   S25       1.0  0.06730  0.54639  0.95126  1.0000
  C   C63       1.0  0.17406  0.48225  0.92378  1.0000
  H   H97       1.0  0.43801  0.06541  0.00814  1.0000
  H   H98       1.0  0.36718  0.06489  0.06546  1.0000
  H   H99       1.0  0.35523  0.05868  0.95669  1.0000
  C   C64       1.0  0.08844  0.06371  0.97113  1.0000
  Fe  Fe11      1.0  0.56162  0.07034  0.92131  1.0000
  C   C65       1.0  0.43928  0.18232  0.92219  1.0000
  C   C66       1.0  0.51619  0.28388  0.92107  1.0000
  S   S26       1.0  0.52604  0.02359  0.38764  1.0000
  H   H100      1.0  0.40243  0.00478  0.33978  1.0000
  S   S27       1.0  0.10608  0.66363  0.36374  1.0000
  H   H101      1.0  0.45337  0.86510  0.40204  1.0000
  H   H102      1.0  0.08190  0.03236  0.17455  1.0000
  H   H103      1.0  0.11028  0.02629  0.26747  1.0000
  C   C67       1.0  0.15888  0.05319  0.20981  1.0000
  C   C68       1.0  0.38138  0.98449  0.35971  1.0000
  H   H104      1.0  0.24699  0.73734  0.38753  1.0000
  C   C69       1.0  0.40087  0.04140  0.40268  1.0000
  H   H105      1.0  0.12976  0.00770  0.35839  1.0000
  H   H106      1.0  0.40519  0.95726  0.37119  1.0000
  H   H107      1.0  0.35293  0.96505  0.34658  1.0000
  H   H108      1.0  0.30426  0.96948  0.40044  1.0000
  N   N6        1.0  0.36177  0.01664  0.38604  1.0000
  C   C70       1.0  0.33438  0.98836  0.41202  1.0000
  H   H109      1.0  0.18936  0.71358  0.38013  1.0000
  H   H110      1.0  0.09111  0.76028  0.34146  1.0000
  H   H111      1.0  0.19528  0.77215  0.39733  1.0000
  C   C71       1.0  0.21010  0.73538  0.39800  1.0000
  C   C72       1.0  0.10157  0.02716  0.34630  1.0000
  H   H112      1.0  0.09105  0.99191  0.23196  1.0000
  C   C73       1.0  0.09011  0.02802  0.24337  1.0000
  H   H113      1.0  0.16159  0.01739  0.19806  1.0000
  Fe  Fe12      1.0  0.07670  0.59950  0.39210  1.0000
  H   H114      1.0  0.42469  0.01571  0.41552  1.0000
  H   H115      1.0  0.30087  0.03525  0.35671  1.0000
  H   H116      1.0  0.18192  0.05338  0.23250  1.0000
  C   C74       1.0  0.33073  0.05241  0.36981  1.0000
  H   H117      1.0  0.20590  0.64215  0.41564  1.0000
  Fe  Fe13      1.0  0.38255  0.75541  0.47900  1.0000
  H   H118      1.0  0.38200  0.81534  0.60128  1.0000
  Fe  Fe14      1.0  0.32448  0.70431  0.53397  1.0000
  S   S28       1.0  0.24991  0.69513  0.55349  1.0000
  H   H119      1.0  0.29188  0.60908  0.52698  1.0000
  H   H120      1.0  0.24613  0.63471  0.62232  1.0000
  C   C75       1.0  0.15890  0.71340  0.44617  1.0000
  C   C76       1.0  0.38923  0.88247  0.47546  1.0000
  C   C77       1.0  0.22507  0.64394  0.53595  1.0000
  C   C78       1.0  0.25403  0.60692  0.52434  1.0000
  N   N7        1.0  0.29510  0.67029  0.65459  1.0000
  S   S29       1.0  0.34447  0.68513  0.48013  1.0000
  H   H121      1.0  0.48702  0.87507  0.56675  1.0000
  C   C79       1.0  0.17611  0.64066  0.53266  1.0000
  C   C80       1.0  0.15619  0.60097  0.51692  1.0000
  C   C81       1.0  0.18511  0.56388  0.50533  1.0000
  H   H122      1.0  0.15361  0.66910  0.54184  1.0000
  S   S30       1.0  0.35734  0.77722  0.53117  1.0000
  C   C82       1.0  0.40485  0.86072  0.44533  1.0000
  C   C83       1.0  0.48732  0.57243  0.51712  1.0000
  C   C84       1.0  0.45427  0.76019  0.65779  1.0000
  H   H123      1.0  0.33428  0.82621  0.65459  1.0000
  H   H124      1.0  0.11836  0.59856  0.51447  1.0000
  S   S31       1.0  0.38692  0.66914  0.55752  1.0000
  H   H125      1.0  0.28896  0.74632  0.65998  1.0000
  H   H126      1.0  0.53755  0.81636  0.49001  1.0000
  C   C85       1.0  0.23397  0.56663  0.50947  1.0000
  H   H127      1.0  0.36093  0.86647  0.49084  1.0000
  C   C86       1.0  0.28407  0.63377  0.62910  1.0000
  S   S32       1.0  0.47069  0.76832  0.58873  1.0000
  H   H128      1.0  0.39742  0.94217  0.50886  1.0000
  H   H129      1.0  0.48304  0.92040  0.53382  1.0000
  C   C87       1.0  0.39459  0.80142  0.62538  1.0000
  H   H130      1.0  0.15635  0.69788  0.47259  1.0000
  N   N8        1.0  0.20830  0.71455  0.43307  1.0000
  C   C88       1.0  0.22701  0.66531  0.43246  1.0000
  H   H131      1.0  0.26433  0.66467  0.42288  1.0000
  H   H132      1.0  0.30454  0.72744  0.61739  1.0000
  H   H133      1.0  0.24527  0.71997  0.63353  1.0000
  H   H134      1.0  0.55699  0.62455  0.57565  1.0000
  H   H135      1.0  0.48876  0.85691  0.49007  1.0000
  H   H136      1.0  0.29208  0.59710  0.63870  1.0000
  C   C89       1.0  0.50823  0.89927  0.54931  1.0000
  C   C90       1.0  0.36773  0.80771  0.65554  1.0000
  H   H137      1.0  0.23772  0.72856  0.48211  1.0000
  C   C91       1.0  0.40977  0.92540  0.48556  1.0000
  H   H138      1.0  0.27432  0.74704  0.44593  1.0000
  H   H139      1.0  0.14333  0.74982  0.44674  1.0000
  C   C92       1.0  0.44667  0.94618  0.46595  1.0000
  S   S33       1.0  0.45085  0.72471  0.49673  1.0000
  H   H140      1.0  0.13630  0.69125  0.42978  1.0000
  C   C93       1.0  0.51406  0.83804  0.50679  1.0000
  C   C94       1.0  0.43789  0.77772  0.62651  1.0000
  S   S34       1.0  0.44202  0.58613  0.48903  1.0000
  N   N9        1.0  0.54115  0.87197  0.52722  1.0000
  Fe  Fe15      1.0  0.52969  0.02928  0.44462  1.0000
  S   S35       1.0  0.47351  0.99843  0.48025  1.0000
  Fe  Fe16      1.0  0.41031  0.65631  0.50327  1.0000
  C   C95       1.0  0.54298  0.59708  0.55959  1.0000
  Fe  Fe17      1.0  0.42233  0.74025  0.54927  1.0000
  H   H141      1.0  0.22598  0.64842  0.45849  1.0000
  C   C96       1.0  0.44086  0.88216  0.42518  1.0000
  C   C97       1.0  0.50466  0.60733  0.53874  1.0000
  C   C98       1.0  0.34601  0.66874  0.66190  1.0000
  H   H142      1.0  0.48921  0.64256  0.53894  1.0000
  H   H143      1.0  0.22307  0.78102  0.45751  1.0000
  H   H144      1.0  0.30480  0.63983  0.60481  1.0000
  H   H145      1.0  0.48765  0.74158  0.65864  1.0000
  C   C99       1.0  0.23710  0.74406  0.45565  1.0000
  H   H146      1.0  0.49306  0.81299  0.52358  1.0000
  C   C100      1.0  0.28297  0.71813  0.64083  1.0000
  H   H147      1.0  0.54376  0.92521  0.48685  1.0000
  H   H148      1.0  0.36812  0.67829  0.63877  1.0000
  H   H149      1.0  0.52738  0.92495  0.56538  1.0000
  H   H150      1.0  0.31976  0.01152  0.43257  1.0000
  H   H151      1.0  0.35678  0.96082  0.42454  1.0000
  S   S36       1.0  0.38116  0.80569  0.43371  1.0000
  C   C101      1.0  0.46228  0.92447  0.43577  1.0000
  S   S37       1.0  0.06866  0.60739  0.44879  1.0000
  H   H152      1.0  0.55527  0.81991  0.56676  1.0000
  H   H153      1.0  0.49145  0.93955  0.42088  1.0000
  S   S38       1.0  0.34645  0.79160  0.72321  1.0000
  H   H154      1.0  0.43809  0.84096  0.74505  1.0000
  S   S39       1.0  0.27912  0.60895  0.82288  1.0000
  S   S40       1.0  0.33156  0.73932  0.81583  1.0000
  H   H155      1.0  0.29552  0.67330  0.87815  1.0000
  C   C102      1.0  0.42658  0.76497  0.68778  1.0000
  S   S41       1.0  0.52539  0.04629  0.87410  1.0000
  S   S42       1.0  0.37168  0.66194  0.75923  1.0000
  Fe  Fe18      1.0  0.36949  0.74132  0.76487  1.0000
  H   H156      1.0  0.18657  0.57815  0.84616  1.0000
  C   C103      1.0  0.24435  0.62430  0.85883  1.0000
  C   C104      1.0  0.19980  0.60315  0.86443  1.0000
  C   C105      1.0  0.17204  0.61485  0.89339  1.0000
  C   C106      1.0  0.47429  0.86632  0.89031  1.0000
  H   H157      1.0  0.48576  0.69918  0.88785  1.0000
  C   C107      1.0  0.26114  0.65700  0.88225  1.0000
  C   C108      1.0  0.23370  0.66818  0.91136  1.0000
  Fe  Fe19      1.0  0.33951  0.65983  0.81243  1.0000
  C   C109      1.0  0.38862  0.86685  0.80123  1.0000
  H   H158      1.0  0.40980  0.84734  0.82050  1.0000
  H   H159      1.0  0.47782  0.85002  0.77956  1.0000
  C   C110      1.0  0.44238  0.93402  0.79955  1.0000
  H   H160      1.0  0.46486  0.91680  0.81917  1.0000
  H   H161      1.0  0.41639  0.95686  0.81338  1.0000
  H   H162      1.0  0.55766  0.59263  0.86496  1.0000
  H   H163      1.0  0.36150  0.88775  0.81551  1.0000
  Fe  Fe20      1.0  0.40406  0.73760  0.83766  1.0000
  C   C111      1.0  0.18928  0.64700  0.91705  1.0000
  Fe  Fe21      1.0  0.44028  0.66636  0.78618  1.0000
  S   S43       1.0  0.44120  0.74626  0.78679  1.0000
  S   S44       1.0  0.50764  0.63209  0.76827  1.0000
  H   H164      1.0  0.41057  0.94588  0.73563  1.0000
  C   C112      1.0  0.45475  0.86866  0.76097  1.0000
  C   C113      1.0  0.38910  0.92204  0.75307  1.0000
  C   C114      1.0  0.38321  0.78861  0.68661  1.0000
  H   H165      1.0  0.27483  0.68784  0.70630  1.0000
  C   C115      1.0  0.50526  0.81152  0.84828  1.0000
  H   H166      1.0  0.46578  0.95794  0.78352  1.0000
  H   H167      1.0  0.43859  0.74971  0.71159  1.0000
  H   H168      1.0  0.36970  0.83961  0.78631  1.0000
  H   H169      1.0  0.52070  0.68526  0.83057  1.0000
  H   H170      1.0  0.37096  0.89554  0.73690  1.0000
  H   H171      1.0  0.50353  0.77792  0.83542  1.0000
  C   C116      1.0  0.47087  0.82311  0.87296  1.0000
  C   C117      1.0  0.51148  0.89837  0.88236  1.0000
  H   H172      1.0  0.53126  0.60365  0.90626  1.0000
  C   C118      1.0  0.52212  0.69861  0.89804  1.0000
  C   C119      1.0  0.54556  0.88678  0.85736  1.0000
  C   C120      1.0  0.52191  0.58043  0.79169  1.0000
  N   N10       1.0  0.41872  0.89793  0.77872  1.0000
  H   H173      1.0  0.47804  0.89096  0.74371  1.0000
  H   H174      1.0  0.13735  0.59915  0.89734  1.0000
  S   S45       1.0  0.42286  0.78445  0.88156  1.0000
  H   H175      1.0  0.54516  0.60202  0.67338  1.0000
  S   S46       1.0  0.40881  0.65756  0.83918  1.0000
  H   H176      1.0  0.36126  0.94420  0.76554  1.0000
  N   N11       1.0  0.55353  0.66692  0.87798  1.0000
  H   H177      1.0  0.27595  0.62504  0.69796  1.0000
  H   H178      1.0  0.49887  0.61583  0.86820  1.0000
  H   H179      1.0  0.10401  0.79022  0.91813  1.0000
  C   C121      1.0  0.54258  0.84315  0.84059  1.0000
  H   H180      1.0  0.53517  0.73620  0.89734  1.0000
  C   C122      1.0  0.53450  0.61765  0.87946  1.0000
  H   H181      1.0  0.51379  0.93196  0.89551  1.0000
  C   C123      1.0  0.55627  0.68413  0.84199  1.0000
  C   C124      1.0  0.26740  0.66067  0.68659  1.0000
  H   H182      1.0  0.44783  0.87534  0.90956  1.0000
  H   H183      1.0  0.22879  0.66144  0.68204  1.0000
  H   H184      1.0  0.35491  0.69436  0.68217  1.0000
  H   H185      1.0  0.35688  0.63265  0.67107  1.0000
  H   H186      1.0  0.45092  0.56492  0.80989  1.0000
  S   S47       1.0  0.07769  0.60579  0.02210  1.0000
  C   C125      1.0  0.41224  0.03546  0.00870  1.0000
  S   S48       1.0  0.15693  0.66054  0.95446  1.0000
  H   H187      1.0  0.33717  0.99097  0.03897  1.0000
  H   H188      1.0  0.13874  0.76177  0.95044  1.0000
  N   N12       1.0  0.36321  0.05317  0.01129  1.0000
  H   H189      1.0  0.10113  0.86424  0.95275  1.0000
  H   H190      1.0  0.24711  0.69311  0.92961  1.0000
  C   C126      1.0  0.09786  0.04469  0.00362  1.0000
  H   H191      1.0  0.07978  0.86131  0.99638  1.0000
  H   H192      1.0  0.41869  0.01487  0.98494  1.0000
  H   H193      1.0  0.14842  0.03966  0.04387  1.0000
  Fe  Fe22      1.0  0.08964  0.61986  0.96619  1.0000
  H   H194      1.0  0.33396  0.98770  0.99310  1.0000
  C   C127      1.0  0.09910  0.84098  0.97618  1.0000
  C   C128      1.0  0.33050  0.01208  0.01518  1.0000
  H   H195      1.0  0.42103  0.01209  0.03097  1.0000
  H   H196      1.0  0.29309  0.02402  0.01668  1.0000
  H   H197      1.0  0.13574  0.83514  0.98494  1.0000
  N   N13       1.0  0.07528  0.79514  0.96951  1.0000
  C   C129      1.0  0.10195  0.76940  0.94264  1.0000
  H   H198      1.0  0.07122  0.02407  0.01767  1.0000
  C   C130      1.0  0.14145  0.05368  0.01851  1.0000
  C   C131      1.0  0.07306  0.76566  0.00135  1.0000
  H   H199      1.0  0.10894  0.75638  0.01027  1.0000
  H   H200      1.0  0.08520  0.73435  0.93728  1.0000
  H   H201      1.0  0.51910  0.68685  0.92537  1.0000
  H   H202      1.0  0.17378  0.55703  0.96611  1.0000
  C   C132      1.0  0.74434  0.06856  0.31322  1.0000
  H   H203      1.0  0.99973  0.09735  0.30431  1.0000
  H   H204      1.0  0.75016  0.10135  0.32825  1.0000
  H   H205      1.0  0.59034  0.29443  0.36247  1.0000
  H   H206      1.0  0.04313  0.07466  0.19460  1.0000
  H   H207      1.0  0.74033  0.07958  0.28592  1.0000
  C   C133      1.0  0.02816  0.07785  0.31608  1.0000
  S   S49       1.0  0.62341  0.08688  0.38351  1.0000
  Fe  Fe23      1.0  0.04241  0.49735  0.39432  1.0000
  S   S50       1.0  0.02523  0.43068  0.36616  1.0000
  H   H208      1.0  0.82692  0.06661  0.27695  1.0000
  H   H209      1.0  0.04669  0.33872  0.33930  1.0000
  H   H210      1.0  0.59314  0.19063  0.38506  1.0000
  H   H211      1.0  0.64227  0.23098  0.38662  1.0000
  H   H212      1.0  0.84301  0.47016  0.41830  1.0000
  H   H213      1.0  0.83654  0.08948  0.31902  1.0000
  H   H214      1.0  0.63359  0.30806  0.41615  1.0000
  N   N14       1.0  0.57794  0.25657  0.41028  1.0000
  C   C134      1.0  0.61059  0.21745  0.40118  1.0000
  Fe  Fe24      1.0  0.66106  0.37514  0.54411  1.0000
  S   S51       1.0  0.64434  0.44142  0.51375  1.0000
  S   S52       1.0  0.61236  0.31168  0.54474  1.0000
  Fe  Fe25      1.0  0.65718  0.47978  0.56244  1.0000
  Fe  Fe26      1.0  0.72251  0.44788  0.50519  1.0000
  S   S53       1.0  0.66716  0.41328  0.59375  1.0000
  H   H215      1.0  0.70272  0.28573  0.51352  1.0000
  H   H216      1.0  0.72800  0.21321  0.48272  1.0000
  H   H217      1.0  0.72395  0.32625  0.61678  1.0000
  H   H218      1.0  0.60212  0.48576  0.65435  1.0000
  H   H219      1.0  0.59439  0.52353  0.42227  1.0000
  H   H220      1.0  0.57926  0.32157  0.43886  1.0000
  C   C135      1.0  0.75933  0.48303  0.64924  1.0000
  C   C136      1.0  0.63219  0.25986  0.52437  1.0000
  C   C137      1.0  0.60070  0.22172  0.52070  1.0000
  C   C138      1.0  0.61486  0.18082  0.50300  1.0000
  C   C139      1.0  0.66067  0.17780  0.48911  1.0000
  C   C140      1.0  0.69247  0.21552  0.49337  1.0000
  C   C141      1.0  0.67818  0.25662  0.51081  1.0000
  H   H221      1.0  0.90474  0.38683  0.55917  1.0000
  H   H222      1.0  0.85833  0.45751  0.50943  1.0000
  H   H223      1.0  0.76739  0.25705  0.66834  1.0000
  H   H224      1.0  0.92675  0.40362  0.51705  1.0000
  S   S54       1.0  0.73431  0.49154  0.55154  1.0000
  S   S55       1.0  0.67830  0.12828  0.46511  1.0000
  C   C142      1.0  0.84305  0.49877  0.43658  1.0000
  H   H225      1.0  0.96376  0.40997  0.55340  1.0000
  H   H226      1.0  0.97643  0.49551  0.53773  1.0000
  H   H227      1.0  0.83645  0.43953  0.55124  1.0000
  S   S56       1.0  0.61493  0.54137  0.58218  1.0000
  H   H228      1.0  0.74941  0.49576  0.62422  1.0000
  S   S57       1.0  0.79777  0.40563  0.61712  1.0000
  C   C143      1.0  0.78505  0.44070  0.65282  1.0000
  H   H229      1.0  0.68793  0.53929  0.48596  1.0000
  H   H230      1.0  0.93903  0.48953  0.50167  1.0000
  Fe  Fe27      1.0  0.61954  0.08809  0.44084  1.0000
  Fe  Fe28      1.0  0.74327  0.42092  0.57820  1.0000
  C   C144      1.0  0.80273  0.50721  0.45704  1.0000
  C   C145      1.0  0.93910  0.49688  0.52959  1.0000
  H   H231      1.0  0.64983  0.52758  0.65148  1.0000
  H   H232      1.0  0.64147  0.49445  0.44447  1.0000
  C   C146      1.0  0.90949  0.47427  0.58610  1.0000
  N   N15       1.0  0.90892  0.46255  0.54937  1.0000
  S   S58       1.0  0.73856  0.37752  0.53090  1.0000
  H   H233      1.0  0.94591  0.47313  0.59607  1.0000
  H   H234      1.0  0.59053  0.15138  0.50057  1.0000
  C   C147      1.0  0.86005  0.46546  0.53720  1.0000
  H   H235      1.0  0.84506  0.50172  0.54095  1.0000
  C   C148      1.0  0.60302  0.29206  0.43073  1.0000
  H   H236      1.0  0.62319  0.19822  0.42436  1.0000
  S   S59       1.0  0.75268  0.47056  0.45371  1.0000
  C   C149      1.0  0.62373  0.51041  0.66963  1.0000
  S   S60       1.0  0.03131  0.49605  0.45145  1.0000
  C   C150      1.0  0.92689  0.41356  0.54454  1.0000
  H   H237      1.0  0.92662  0.53427  0.53280  1.0000
  H   H238      1.0  0.88758  0.44865  0.60187  1.0000
  H   H239      1.0  0.66426  0.30449  0.62096  1.0000
  H   H240      1.0  0.71254  0.26323  0.61920  1.0000
  H   H241      1.0  0.89512  0.51063  0.59075  1.0000
  C   C151      1.0  0.70107  0.29832  0.62940  1.0000
  H   H242      1.0  0.58806  0.51065  0.46728  1.0000
  C   C152      1.0  0.61369  0.52244  0.44672  1.0000
  H   H243      1.0  0.91544  0.51882  0.42510  1.0000
  C   C153      1.0  0.80298  0.54435  0.48050  1.0000
  C   C154      1.0  0.88406  0.52629  0.44042  1.0000
  H   H244      1.0  0.77189  0.55175  0.49598  1.0000
  H   H245      1.0  0.70932  0.37606  0.66799  1.0000
  H   H246      1.0  0.61705  0.27532  0.45440  1.0000
  H   H247      1.0  0.63485  0.55575  0.50849  1.0000
  N   N16       1.0  0.70426  0.29948  0.66711  1.0000
  H   H248      1.0  0.77734  0.32042  0.66512  1.0000
  S   S61       1.0  0.60003  0.13163  0.89565  1.0000
  S   S62       1.0  0.66114  0.41891  0.77912  1.0000
  Fe  Fe29      1.0  0.64031  0.43102  0.83391  1.0000
  S   S63       1.0  0.68068  0.36828  0.85377  1.0000
  H   H249      1.0  0.80393  0.18491  0.87173  1.0000
  Fe  Fe30      1.0  0.65758  0.07901  0.88599  1.0000
  H   H250      1.0  0.64384  0.48867  0.68844  1.0000
  C   C155      1.0  0.66751  0.25529  0.78402  1.0000
  C   C156      1.0  0.67217  0.20568  0.78555  1.0000
  C   C157      1.0  0.63294  0.17696  0.79398  1.0000
  H   H251      1.0  0.79476  0.30187  0.91605  1.0000
  C   C158      1.0  0.75385  0.29227  0.67682  1.0000
  C   C159      1.0  0.62323  0.27621  0.78945  1.0000
  H   H252      1.0  0.63691  0.13872  0.79548  1.0000
  H   H253      1.0  0.61944  0.31462  0.78783  1.0000
  H   H254      1.0  0.79353  0.43752  0.73934  1.0000
  C   C160      1.0  0.58128  0.52311  0.80834  1.0000
  H   H255      1.0  0.79267  0.25173  0.82867  1.0000
  H   H256      1.0  0.82266  0.29240  0.85617  1.0000
  S   S64       1.0  0.78576  0.41306  0.90459  1.0000
  H   H257      1.0  0.70631  0.18938  0.78106  1.0000
  H   H258      1.0  0.61749  0.51153  0.80719  1.0000
  S   S65       1.0  0.71741  0.29072  0.77543  1.0000
  C   C161      1.0  0.90390  0.52519  0.90456  1.0000
  C   C162      1.0  0.87352  0.52257  0.87689  1.0000
  H   H259      1.0  0.72517  0.20339  0.85151  1.0000
  H   H260      1.0  0.76461  0.30566  0.84202  1.0000
  S   S66       1.0  0.69758  0.48455  0.84322  1.0000
  H   H261      1.0  0.83502  0.22648  0.89778  1.0000
  H   H262      1.0  0.81392  0.48687  0.85544  1.0000
  H   H263      1.0  0.75765  0.29367  0.70512  1.0000
  Fe  Fe31      1.0  0.70752  0.36162  0.79976  1.0000
  C   C163      1.0  0.78784  0.27613  0.85067  1.0000
  C   C164      1.0  0.58869  0.19761  0.79987  1.0000
  S   S67       1.0  0.73526  0.52143  0.74714  1.0000
  C   C165      1.0  0.79822  0.42491  0.68532  1.0000
  Fe  Fe32      1.0  0.72174  0.46754  0.78955  1.0000
  H   H264      1.0  0.57792  0.27777  0.86782  1.0000
  N   N17       1.0  0.76728  0.25075  0.88107  1.0000
  C   C166      1.0  0.58357  0.24720  0.79665  1.0000
  C   C167      1.0  0.74653  0.50932  0.67821  1.0000
  H   H265      1.0  0.70472  0.21012  0.89478  1.0000
  Fe  Fe33      1.0  0.74037  0.42051  0.85847  1.0000
  C   C168      1.0  0.72122  0.22971  0.87244  1.0000
  C   C169      1.0  0.78368  0.45016  0.71434  1.0000
  S   S68       1.0  0.77039  0.40864  0.80580  1.0000
  C   C170      1.0  0.76074  0.28475  0.90931  1.0000
  S   S69       1.0  0.73393  0.10053  0.88739  1.0000
  C   C171      1.0  0.75737  0.49210  0.71089  1.0000
  C   C172      1.0  0.68782  0.34629  0.67956  1.0000
  N   N18       1.0  0.59408  0.54652  0.68690  1.0000
  H   H266      1.0  0.69609  0.25751  0.86360  1.0000
  C   C173      1.0  0.83716  0.48839  0.87690  1.0000
  H   H267      1.0  0.57721  0.50125  0.73066  1.0000
  H   H268      1.0  0.87810  0.54718  0.85536  1.0000
  H   H269      1.0  0.81863  0.39257  0.68827  1.0000
  C   C174      1.0  0.83110  0.45635  0.90456  1.0000
  H   H270      1.0  0.69060  0.34849  0.70792  1.0000
  H   H271      1.0  0.73656  0.31431  0.90225  1.0000
  H   H272      1.0  0.67598  0.26105  0.71118  1.0000
  C   C175      1.0  0.79949  0.21226  0.89192  1.0000
  H   H273      1.0  0.58207  0.33606  0.88643  1.0000
  H   H274      1.0  0.82910  0.10051  0.90955  1.0000
  C   C176      1.0  0.67442  0.26109  0.68275  1.0000
  H   H275      1.0  0.78543  0.19333  0.91534  1.0000
  H   H276      1.0  0.72729  0.54237  0.67541  1.0000
  Fe  Fe34      1.0  0.56879  0.10414  0.84790  1.0000
  H   H277      1.0  0.63675  0.26542  0.67595  1.0000
  H   H278      1.0  0.65038  0.35284  0.67307  1.0000
  H   H279      1.0  0.68603  0.22519  0.67421  1.0000
  H   H280      1.0  0.72383  0.07923  0.01211  1.0000
  H   H281      1.0  0.04839  0.28307  0.99176  1.0000
  S   S70       1.0  0.81986  0.06771  0.03272  1.0000
  N   N19       1.0  0.04449  0.20634  0.99487  1.0000
  Fe  Fe35      1.0  0.04901  0.53504  0.00713  1.0000
  C   C177      1.0  0.82539  0.08973  0.96426  1.0000
  H   H282      1.0  0.03956  0.25888  0.03437  1.0000
  C   C178      1.0  0.74678  0.08440  0.98977  1.0000
  C   C179      1.0  0.05767  0.25283  0.00926  1.0000
  C   C180      1.0  0.79584  0.08279  0.99312  1.0000
  H   H283      1.0  0.85696  0.43410  0.95374  1.0000
  H   H284      1.0  0.97302  0.20875  0.01465  1.0000
  H   H285      1.0  0.05177  0.44285  0.97119  1.0000
  H   H286      1.0  0.98158  0.23373  0.97215  1.0000
  H   H287      1.0  0.92120  0.49489  0.95371  1.0000
  C   C181      1.0  0.99296  0.20472  0.98996  1.0000
  H   H288      1.0  0.98205  0.16999  0.97896  1.0000
  C   C182      1.0  0.89785  0.49319  0.93231  1.0000
  C   C183      1.0  0.72733  0.09090  0.95734  1.0000
  H   H289      1.0  0.74575  0.26682  0.93283  1.0000
  H   H290      1.0  0.05855  0.16671  0.94915  1.0000
  H   H291      1.0  0.04208  0.17210  0.04469  1.0000
  H   H292      1.0  0.68940  0.09123  0.95475  1.0000
  H   H293      1.0  0.06188  0.23055  0.94343  1.0000
  H   H294      1.0  0.86325  0.09008  0.96689  1.0000
  C   C184      1.0  0.86153  0.45875  0.93226  1.0000
  C   C185      1.0  0.05799  0.16734  0.01867  1.0000
  C   C186      1.0  0.80604  0.09625  0.93191  1.0000
  H   H295      1.0  0.04571  0.13211  0.00961  1.0000
  C   C187      1.0  0.75706  0.09605  0.92838  1.0000
  S   S71       1.0  0.03218  0.05838  0.95411  1.0000
  S   S72       1.0  0.63655  0.95476  0.35572  1.0000
  Fe  Fe36      1.0  0.60386  0.00971  0.39006  1.0000
  C   C188      1.0  0.68915  0.92826  0.36917  1.0000
  H   H296      1.0  0.80139  0.96345  0.30082  1.0000
  H   H297      1.0  0.70076  0.89281  0.32126  1.0000
  C   C189      1.0  0.89196  0.98669  0.17343  1.0000
  C   C190      1.0  0.71487  0.90014  0.34612  1.0000
  H   H298      1.0  0.90952  0.77371  0.20360  1.0000
  C   C191      1.0  0.02399  0.02844  0.32189  1.0000
  H   H299      1.0  0.85846  0.03174  0.30744  1.0000
  C   C192      1.0  0.75144  0.91852  0.41028  1.0000
  C   C193      1.0  0.98879  0.97049  0.17909  1.0000
  Fe  Fe37      1.0  0.90489  0.92982  0.28213  1.0000
  S   S73       1.0  0.91643  0.95295  0.33584  1.0000
  S   S74       1.0  0.87450  0.97909  0.24249  1.0000
  Fe  Fe38      1.0  0.93879  0.82941  0.29588  1.0000
  S   S75       1.0  0.95489  0.84392  0.35055  1.0000
  S   S76       1.0  0.94883  0.75704  0.27368  1.0000
  Fe  Fe39      1.0  0.88535  0.88180  0.35116  1.0000
  C   C194      1.0  0.02985  0.75889  0.30996  1.0000
  Fe  Fe40      1.0  0.98474  0.91320  0.32996  1.0000
  C   C195      1.0  0.03109  0.65983  0.32078  1.0000
  S   S77       1.0  0.86699  0.86219  0.29781  1.0000
  S   S78       1.0  0.97537  0.89473  0.27510  1.0000
  S   S79       1.0  0.00507  0.56698  0.38583  1.0000
  H   H300      1.0  0.88141  0.77684  0.37650  1.0000
  H   H301      1.0  0.90379  0.73971  0.34271  1.0000
  C   C196      1.0  0.88468  0.73918  0.36801  1.0000
  C   C197      1.0  0.77814  0.89248  0.38646  1.0000
  N   N20       1.0  0.90943  0.70929  0.39343  1.0000
  H   H302      1.0  0.97806  0.72695  0.37208  1.0000
  H   H303      1.0  0.02950  0.79724  0.30594  1.0000
  H   H304      1.0  0.87754  0.82642  0.19167  1.0000
  H   H305      1.0  0.84831  0.72584  0.36389  1.0000
  C   C198      1.0  0.77396  0.99133  0.29699  1.0000
  C   C199      1.0  0.99544  0.73032  0.29538  1.0000
  C   C200      1.0  0.99658  0.68070  0.30021  1.0000
  C   C201      1.0  0.75956  0.88294  0.35451  1.0000
  H   H306      1.0  0.77365  0.99983  0.26904  1.0000
  H   H307      1.0  0.71006  0.05252  0.32237  1.0000
  H   H308      1.0  0.02609  0.96355  0.18140  1.0000
  H   H309      1.0  0.97022  0.65849  0.28872  1.0000
  S   S80       1.0  0.05507  0.94140  0.34546  1.0000
  H   H310      1.0  0.99270  0.01005  0.31412  1.0000
  N   N21       1.0  0.78355  0.03432  0.31713  1.0000
  C   C202      1.0  0.96020  0.97549  0.20857  1.0000
  C   C203      1.0  0.91147  0.98155  0.20581  1.0000
  C   C204      1.0  0.78747  0.02063  0.35367  1.0000
  H   H311      1.0  0.97582  0.97452  0.23344  1.0000
  C   C205      1.0  0.06040  0.00309  0.33740  1.0000
  S   S81       1.0  0.83520  0.87327  0.39634  1.0000
  H   H312      1.0  0.75357  0.00591  0.36420  1.0000
  C   C206      1.0  0.70714  0.93686  0.40152  1.0000
  H   H313      1.0  0.65113  0.58591  0.40130  1.0000
  H   H314      1.0  0.93084  0.65634  0.35706  1.0000
  H   H315      1.0  0.77933  0.86182  0.33636  1.0000
  C   C207      1.0  0.90037  0.79736  0.18146  1.0000
  H   H316      1.0  0.03187  0.62150  0.32451  1.0000
  H   H317      1.0  0.94888  0.87461  0.19905  1.0000
  H   H318      1.0  0.73911  0.97528  0.30430  1.0000
  H   H319      1.0  0.79674  0.05176  0.36950  1.0000
  H   H320      1.0  0.87492  0.64461  0.37844  1.0000
  H   H321      1.0  0.95848  0.76459  0.40621  1.0000
  C   C208      1.0  0.91096  0.65932  0.38189  1.0000
  C   C209      1.0  0.95816  0.72720  0.39699  1.0000
  H   H322      1.0  0.92858  0.63573  0.40088  1.0000
  H   H323      1.0  0.81491  0.99273  0.35753  1.0000
  H   H324      1.0  0.05269  0.03560  0.25069  1.0000
  C   C210      1.0  0.97041  0.84487  0.18844  1.0000
  H   H325      1.0  0.98168  0.82220  0.21052  1.0000
  C   C211      1.0  0.06486  0.73797  0.32994  1.0000
  H   H326      1.0  0.97819  0.70470  0.41539  1.0000
  H   H327      1.0  0.85439  0.99226  0.17114  1.0000
  H   H328      1.0  0.00261  0.86107  0.17602  1.0000
  H   H329      1.0  0.98357  0.75293  0.17233  1.0000
  C   C212      1.0  0.06493  0.68854  0.33594  1.0000
  C   C213      1.0  0.82824  0.05669  0.30466  1.0000
  H   H330      1.0  0.68758  0.95850  0.41948  1.0000
  H   H331      1.0  0.76570  0.92590  0.43507  1.0000
  H   H332      1.0  0.59543  0.86971  0.56465  1.0000
  H   H333      1.0  0.67548  0.60113  0.49362  1.0000
  H   H334      1.0  0.84376  0.60082  0.50229  1.0000
  H   H335      1.0  0.90226  0.68980  0.44681  1.0000
  S   S82       1.0  0.60615  0.00922  0.44741  1.0000
  C   C214      1.0  0.56778  0.90518  0.50398  1.0000
  H   H336      1.0  0.88169  0.74881  0.43606  1.0000
  S   S83       1.0  0.93568  0.59630  0.47090  1.0000
  C   C215      1.0  0.88435  0.56299  0.46421  1.0000
  C   C216      1.0  0.59652  0.60548  0.45682  1.0000
  Fe  Fe41      1.0  0.00007  0.56873  0.44303  1.0000
  H   H337      1.0  0.59341  0.88588  0.48723  1.0000
  C   C217      1.0  0.84362  0.57237  0.48391  1.0000
  H   H338      1.0  0.68504  0.61867  0.43135  1.0000
  H   H339      1.0  0.59948  0.82383  0.53310  1.0000
  N   N22       1.0  0.63448  0.56947  0.45424  1.0000
  H   H340      1.0  0.57051  0.59593  0.47771  1.0000
  H   H341      1.0  0.69761  0.55677  0.42411  1.0000
  C   C218      1.0  0.88405  0.71140  0.42690  1.0000
  C   C219      1.0  0.57438  0.84521  0.54887  1.0000
  H   H342      1.0  0.58773  0.93215  0.51845  1.0000
  H   H343      1.0  0.59397  0.59514  0.64365  1.0000
  C   C220      1.0  0.65931  0.56635  0.48699  1.0000
  H   H344      1.0  0.84745  0.69728  0.42534  1.0000
  C   C221      1.0  0.56883  0.57527  0.66109  1.0000
  C   C222      1.0  0.66851  0.58340  0.42649  1.0000
  H   H345      1.0  0.61079  0.64147  0.46246  1.0000
  H   H346      1.0  0.57652  0.60846  0.43272  1.0000
  Fe  Fe42      1.0  0.58964  0.00044  0.86680  1.0000
  H   H347      1.0  0.64313  0.55802  0.72710  1.0000
  C   C223      1.0  0.60128  0.66727  0.89235  1.0000
  H   H348      1.0  0.62587  0.64384  0.87762  1.0000
  H   H349      1.0  0.72642  0.95198  0.90278  1.0000
  H   H350      1.0  0.57857  0.66035  0.82580  1.0000
  H   H351      1.0  0.65193  0.59606  0.69013  1.0000
  S   S84       1.0  0.62975  0.05607  0.83585  1.0000
  H   H352      1.0  0.59586  0.58666  0.77838  1.0000
  S   S85       1.0  0.62258  0.01943  0.91647  1.0000
  S   S86       1.0  0.59167  0.92615  0.84568  1.0000
  H   H353      1.0  0.81289  0.94733  0.89261  1.0000
  H   H354      1.0  0.56908  0.83404  0.82138  1.0000
  C   C224      1.0  0.62437  0.57829  0.70675  1.0000
  H   H355      1.0  0.76730  0.87441  0.91052  1.0000
  H   H356      1.0  0.60327  0.60684  0.71933  1.0000
  H   H357      1.0  0.61670  0.70394  0.89175  1.0000
  H   H358      1.0  0.57151  0.72078  0.83976  1.0000
  C   C225      1.0  0.56885  0.56547  0.79150  1.0000
  S   S87       1.0  0.94909  0.56866  0.90329  1.0000
  H   H359      1.0  0.60064  0.65418  0.91945  1.0000
  H   H360      1.0  0.05416  0.73135  0.99761  1.0000
  C   C226      1.0  0.73354  0.95955  0.93006  1.0000
  H   H361      1.0  0.80549  0.86519  0.94596  1.0000
  C   C227      1.0  0.02695  0.80462  0.95788  1.0000
  Fe  Fe43      1.0  0.88685  0.02612  0.02573  1.0000
  S   S88       1.0  0.89269  0.95389  0.05109  1.0000
  H   H362      1.0  0.89604  0.76504  0.95984  1.0000
  H   H363      1.0  0.73586  0.99900  0.93220  1.0000
  S   S89       1.0  0.99736  0.94651  0.01235  1.0000
  H   H364      1.0  0.75496  0.93475  0.99455  1.0000
  Fe  Fe44      1.0  0.92202  0.93112  0.00037  1.0000
  S   S90       1.0  0.89726  0.86498  0.97501  1.0000
  Fe  Fe45      1.0  0.96710  0.97639  0.06114  1.0000
  S   S91       1.0  0.00447  0.96237  0.11038  1.0000
  S   S92       1.0  0.91011  0.00118  0.97395  1.0000
  H   H365      1.0  0.05383  0.78425  0.02239  1.0000
  Fe  Fe46      1.0  0.00480  0.63314  0.01457  1.0000
  S   S93       1.0  0.98082  0.68749  0.05298  1.0000
  H   H366      1.0  0.96127  0.86409  0.12137  1.0000
  N   N23       1.0  0.77731  0.93620  0.94143  1.0000
  C   C228      1.0  0.92969  0.84828  0.13494  1.0000
  C   C229      1.0  0.92079  0.98298  0.14387  1.0000
  H   H367      1.0  0.90541  0.98649  0.11899  1.0000
  H   H368      1.0  0.97191  0.78533  0.07164  1.0000
  H   H369      1.0  0.92957  0.69487  0.99024  1.0000
  S   S94       1.0  0.95875  0.05107  0.04031  1.0000
  C   C230      1.0  0.91502  0.81485  0.99863  1.0000
  C   C231      1.0  0.93594  0.82049  0.03037  1.0000
  C   C232      1.0  0.95461  0.78079  0.04759  1.0000
  C   C233      1.0  0.95298  0.73563  0.03288  1.0000
  C   C234      1.0  0.93136  0.72987  0.00147  1.0000
  C   C235      1.0  0.91201  0.76945  0.98445  1.0000
  H   H370      1.0  0.93871  0.85556  0.04127  1.0000
  C   C236      1.0  0.78500  0.94714  0.97775  1.0000
  H   H371      1.0  0.85130  0.93671  0.92784  1.0000
  C   C237      1.0  0.97258  0.77715  0.15103  1.0000
  H   H372      1.0  0.90750  0.87865  0.14379  1.0000
  H   H373      1.0  0.70227  0.94743  0.94574  1.0000
  H   H374      1.0  0.78909  0.98621  0.98149  1.0000
  H   H375      1.0  0.00521  0.79061  0.13756  1.0000
  H   H376      1.0  0.02712  0.82546  0.93334  1.0000
  S   S95       1.0  0.01858  0.65257  0.95935  1.0000
  H   H377      1.0  0.81756  0.92974  0.98724  1.0000
  Fe  Fe47      1.0  0.98277  0.01944  0.99059  1.0000
  C   C238      1.0  0.96896  0.97341  0.14671  1.0000
  H   H378      1.0  0.00723  0.77076  0.95384  1.0000
  H   H379      1.0  0.90935  0.82839  0.11576  1.0000
  H   H380      1.0  0.00650  0.82562  0.97697  1.0000
  H   H381      1.0  0.95311  0.75501  0.13258  1.0000
  S   S96       1.0  0.97409  0.56081  0.00439  1.0000
  C   C239      1.0  0.77298  0.88393  0.93764  1.0000
  H   H382      1.0  0.74292  0.86917  0.95341  1.0000
  H   H383      1.0  0.82248  0.99346  0.92300  1.0000
  N   N24       1.0  0.94326  0.81691  0.16392  1.0000
  Fe  Fe48      1.0  0.99424  0.57766  0.94934  1.0000
  H   H384      1.0  0.87897  0.77589  0.16382  1.0000
  C   C240      1.0  0.81777  0.95420  0.92025  1.0000
