data_image0
_chemical_formula_structural       HCH2SH3CSH2SHC2H4FeHFeCH2NFeHC2SCHSHCH2C2H2CHCS2H3C2SCFeH2SCNCSCSHCH3C2H2NHSHCH3C2FeCHSCHCH2Fe2H2CHSHNH3CH3SH5CSHC3HNH5SH2FeSCH3CFeC4HCFeHCHSH3SFeSC2H2C2HC2HSH4CHCHCH2C2SCH2SCHCHSHC2NCHCNFeCFe2HCHCS2H2SH5C2SH3FeCSHNHCH4CSCHC2H2FeHCHSH3FeHSCHFeSH2C2HC2SCNC2HCSHCHC2HC2HSFeCFeHC2HSHFeS2H2C2Fe2H2SHCH2SH4C2H2SFeHSH2CH2C2SHNCH3CSH2CH2SH2CHFe2SHCHCHNHCHCH3FeCH2C4HNHCHSHSCSCFeCSH3CHSHC2H3FeH2CSCHFeHSCHCHSH2C2H3NCHC2H9CH2SC3H2SFe3S4CFeHFeSH2FeHSHC2HFeC2HSHC2H2C2H3CHC3NHSCHC3H6CHC3HNCHCHCHCHSH2NH5CH2SH2C2H2CH2CHCHC2HC2H2SHCFeHC2HSHCNCHC2H6C2H2CS5CH3C2H2SHFeCH3SC3HFeCSFeHSFeNSH2CH2C6HSH2C3SHFeHCH4C2H6SFeS2HC2H3CHNFeH2CSCH4C2H2SFeSFeS2FeS2FeSFeS3HCH3C6H4C2HC5H3CHCH2CHCHCSH7NCH2CH4SC4H5NH2NCH5SHSHCH2CHCH2NH2C4HC2H2CH2NC2H3CHCHNCHSH3C2SHCH5CH2SHCH2CH2C2HCHC2FeSNHFeS2FeS2FeCFeS3HCHCH4C6H5CH2CH3CH2NH2CH2CNH2C3H9CH2SC2H7C2HCFeHC2H2C2SNH3CH6C3HC2H3C2HFeH2NSH2CH3SHCH2C2H4SH2CHCHCH3CSHSCFeSHFeSCFeSFeS3H2CH2CH2C2HC3H4C4HC2NC2HFeCHS2H2SHFeHNCH8C2HCH2C2HCH2CH2CHC3HC2H2NH6SFeHFeH3SCSCHC2HC3SH3SHCHC2HNCHCSH6SH4FeHCH2N2HFeS2FeS2FeHFeCS2FeHC2HCH3CH3SHC3HC5HCHSH2SHFeH3CSH2CH6C
_chemical_formula_sum              "H576 C360 S144 Fe72 N36"
_cell_length_a       32.9056
_cell_length_b       32.7579
_cell_length_c       65.9266
_cell_angle_alpha    90.5806
_cell_angle_beta     89.3615
_cell_angle_gamma    119.449

_space_group_name_H-M_alt    "P 1"
_space_group_IT_number       1

loop_
  _space_group_symop_operation_xyz
  'x, y, z'

loop_
  _atom_site_type_symbol
  _atom_site_label
  _atom_site_symmetry_multiplicity
  _atom_site_fract_x
  _atom_site_fract_y
  _atom_site_fract_z
  _atom_site_occupancy
  H   H1        1.0  0.32578  0.07085  0.19995  1.0000
  C   C1        1.0  0.21207  0.52010  0.12159  1.0000
  H   H2        1.0  0.15077  0.51240  0.07886  1.0000
  H   H3        1.0  0.09059  0.47976  0.07162  1.0000
  S   S1        1.0  0.06470  0.18922  0.14783  1.0000
  H   H4        1.0  0.10908  0.46789  0.09530  1.0000
  H   H5        1.0  0.36703  0.10082  0.26205  1.0000
  H   H6        1.0  0.51407  0.07665  0.22035  1.0000
  C   C2        1.0  0.24976  0.51240  0.12486  1.0000
  S   S2        1.0  0.45837  0.47606  0.07704  1.0000
  H   H7        1.0  0.16818  0.36186  0.16700  1.0000
  H   H8        1.0  0.18114  0.31537  0.10547  1.0000
  S   S3        1.0  0.35871  0.50892  0.09204  1.0000
  H   H9        1.0  0.41945  0.11456  0.22212  1.0000
  C   C3        1.0  0.24078  0.44873  0.03028  1.0000
  C   C4        1.0  0.22753  0.49648  0.16022  1.0000
  H   H10       1.0  0.28244  0.08871  0.23786  1.0000
  H   H11       1.0  0.23617  0.38718  0.04404  1.0000
  H   H12       1.0  0.17475  0.41346  0.07209  1.0000
  H   H13       1.0  0.10575  0.27344  0.12422  1.0000
  Fe  Fe1       1.0  0.38601  0.45855  0.08773  1.0000
  H   H14       1.0  0.23347  0.48732  0.17519  1.0000
  Fe  Fe2       1.0  0.29087  0.37276  0.09600  1.0000
  C   C5        1.0  0.11620  0.21621  0.13318  1.0000
  H   H15       1.0  0.18734  0.27896  0.15930  1.0000
  H   H16       1.0  0.27133  0.37153  0.19390  1.0000
  N   N1        1.0  0.22804  0.35167  0.16742  1.0000
  Fe  Fe3       1.0  0.29762  0.45683  0.07383  1.0000
  H   H17       1.0  0.13650  0.16435  0.13943  1.0000
  C   C6        1.0  0.24739  0.38071  0.18585  1.0000
  C   C7        1.0  0.25761  0.50063  0.14418  1.0000
  S   S4        1.0  0.30336  0.48857  0.14800  1.0000
  C   C8        1.0  0.14592  0.19710  0.13197  1.0000
  H   H18       1.0  0.35053  0.03984  0.21256  1.0000
  S   S5        1.0  0.25525  0.41541  0.10056  1.0000
  H   H19       1.0  0.26784  0.41871  0.18199  1.0000
  C   C9        1.0  0.20085  0.30165  0.17301  1.0000
  H   H20       1.0  0.28891  0.39623  0.14982  1.0000
  H   H21       1.0  0.21711  0.40315  0.15223  1.0000
  C   C10       1.0  0.12887  0.25878  0.12348  1.0000
  C   C11       1.0  0.32869  0.05691  0.21485  1.0000
  H   H22       1.0  0.17027  0.29453  0.18275  1.0000
  H   H23       1.0  0.18210  0.34481  0.14312  1.0000
  C   C12       1.0  0.17159  0.28267  0.11296  1.0000
  H   H24       1.0  0.17616  0.48942  0.04674  1.0000
  C   C13       1.0  0.19742  0.36592  0.15704  1.0000
  S   S6        1.0  0.32754  0.40963  0.06732  1.0000
  S   S7        1.0  0.26924  0.48608  0.05073  1.0000
  H   H25       1.0  0.25364  0.33900  0.13921  1.0000
  H   H26       1.0  0.28973  0.34673  0.16066  1.0000
  H   H27       1.0  0.22261  0.28999  0.18129  1.0000
  C   C14       1.0  0.18892  0.50283  0.15678  1.0000
  C   C15       1.0  0.20176  0.26402  0.11210  1.0000
  S   S8        1.0  0.25687  0.29442  0.10024  1.0000
  C   C16       1.0  0.26673  0.35864  0.15371  1.0000
  Fe  Fe4       1.0  0.31867  0.46373  0.11841  1.0000
  H   H28       1.0  0.21164  0.20621  0.12065  1.0000
  H   H29       1.0  0.21926  0.37624  0.19663  1.0000
  S   S9        1.0  0.35172  0.41795  0.11597  1.0000
  C   C17       1.0  0.18851  0.22090  0.12138  1.0000
  N   N2        1.0  0.12838  0.44177  0.06894  1.0000
  C   C18       1.0  0.39609  0.13010  0.22406  1.0000
  S   S10       1.0  0.06965  0.10864  0.19023  1.0000
  C   C19       1.0  0.31842  0.11543  0.23302  1.0000
  S   S11       1.0  0.08182  0.48656  0.18874  1.0000
  H   H30       1.0  0.07358  0.38414  0.08523  1.0000
  C   C20       1.0  0.22855  0.40142  0.03080  1.0000
  H   H31       1.0  0.31509  0.13084  0.21859  1.0000
  H   H32       1.0  0.33225  0.14359  0.24476  1.0000
  H   H33       1.0  0.09144  0.36806  0.06201  1.0000
  C   C21       1.0  0.14263  0.45569  0.04765  1.0000
  C   C22       1.0  0.18110  0.51457  0.13741  1.0000
  H   H34       1.0  0.41242  0.15879  0.23550  1.0000
  H   H35       1.0  0.05649  0.39629  0.06122  1.0000
  N   N3        1.0  0.34872  0.09414  0.23046  1.0000
  H   H36       1.0  0.16535  0.49859  0.16911  1.0000
  S   S12       1.0  0.13409  0.52416  0.13240  1.0000
  H   H37       1.0  0.15657  0.42803  0.09572  1.0000
  C   C23       1.0  0.08554  0.39549  0.06938  1.0000
  H   H38       1.0  0.37343  0.05651  0.24846  1.0000
  H   H39       1.0  0.39542  0.14605  0.20933  1.0000
  H   H40       1.0  0.19884  0.47334  0.07979  1.0000
  C   C24       1.0  0.50680  0.51121  0.09241  1.0000
  C   C25       1.0  0.11927  0.47695  0.07910  1.0000
  Fe  Fe5       1.0  0.07237  0.04708  0.17607  1.0000
  C   C26       1.0  0.16612  0.43886  0.07964  1.0000
  H   H41       1.0  0.11588  0.46006  0.03924  1.0000
  S   S13       1.0  0.05441  0.06035  0.14482  1.0000
  C   C27       1.0  0.51191  0.05837  0.23425  1.0000
  H   H42       1.0  0.14797  0.42890  0.03933  1.0000
  C   C28       1.0  0.35155  0.07372  0.24993  1.0000
  H   H43       1.0  0.12508  0.04567  0.21796  1.0000
  H   H44       1.0  0.31632  0.04678  0.25531  1.0000
  Fe  Fe6       1.0  0.08254  0.51318  0.15757  1.0000
  Fe  Fe7       1.0  0.04595  0.11762  0.15964  1.0000
  H   H45       1.0  0.27317  0.51622  0.11245  1.0000
  H   H46       1.0  0.16053  0.02952  0.24781  1.0000
  C   C29       1.0  0.14429  0.02695  0.21600  1.0000
  H   H47       1.0  0.29301  0.02923  0.21929  1.0000
  S   S14       1.0  0.12826  0.02590  0.17479  1.0000
  H   H48       1.0  0.08609  0.41108  0.43367  1.0000
  N   N4        1.0  0.08827  0.37247  0.45953  1.0000
  H   H49       1.0  0.36860  0.08569  0.50324  1.0000
  H   H50       1.0  0.07945  0.32004  0.48133  1.0000
  H   H51       1.0  0.08089  0.35465  0.42771  1.0000
  C   C30       1.0  0.13968  0.39437  0.45915  1.0000
  H   H52       1.0  0.15347  0.39360  0.47440  1.0000
  H   H53       1.0  0.08838  0.43544  0.46932  1.0000
  H   H54       1.0  0.33630  0.04226  0.48446  1.0000
  S   S15       1.0  0.06270  0.07395  0.49355  1.0000
  H   H55       1.0  0.32879  0.09292  0.48722  1.0000
  H   H56       1.0  0.24304  0.04004  0.49135  1.0000
  H   H57       1.0  0.08626  0.39789  0.48959  1.0000
  H   H58       1.0  0.15622  0.43169  0.45433  1.0000
  H   H59       1.0  0.07679  0.30232  0.45521  1.0000
  C   C31       1.0  0.07166  0.37433  0.43900  1.0000
  S   S16       1.0  0.50991  0.08127  0.49643  1.0000
  H   H60       1.0  0.15137  0.37579  0.44836  1.0000
  C   C32       1.0  0.07417  0.39821  0.47394  1.0000
  C   C33       1.0  0.06762  0.32304  0.46596  1.0000
  C   C34       1.0  0.33399  0.06668  0.49571  1.0000
  H   H61       1.0  0.04317  0.19623  0.44005  1.0000
  N   N5        1.0  0.29599  0.04110  0.51059  1.0000
  H   H62       1.0  0.28705  0.10075  0.51733  1.0000
  H   H63       1.0  0.13314  0.15549  0.54770  1.0000
  H   H64       1.0  0.50647  0.15414  0.60940  1.0000
  H   H65       1.0  0.45338  0.11466  0.59670  1.0000
  H   H66       1.0  0.37712  0.09279  0.61275  1.0000
  S   S17       1.0  0.14987  0.07796  0.53686  1.0000
  H   H67       1.0  0.50295  0.18637  0.64365  1.0000
  H   H68       1.0  0.47090  0.09560  0.61875  1.0000
  Fe  Fe8       1.0  0.07847  0.05667  0.52435  1.0000
  S   S18       1.0  0.34705  0.12329  0.76307  1.0000
  C   C35       1.0  0.40188  0.18362  0.69677  1.0000
  H   H69       1.0  0.37480  0.11562  0.63734  1.0000
  H   H70       1.0  0.45772  0.25303  0.68993  1.0000
  H   H71       1.0  0.22950  0.05514  0.71687  1.0000
  C   C36       1.0  0.22705  0.03773  0.73161  1.0000
  Fe  Fe9       1.0  0.45086  0.34752  0.58345  1.0000
  C   C37       1.0  0.46654  0.15682  0.64501  1.0000
  C   C38       1.0  0.09929  0.07385  0.58724  1.0000
  C   C39       1.0  0.42541  0.22369  0.68465  1.0000
  C   C40       1.0  0.48779  0.18907  0.56525  1.0000
  H   H72       1.0  0.29342  0.19647  0.56839  1.0000
  C   C41       1.0  0.25842  0.18762  0.56416  1.0000
  Fe  Fe10      1.0  0.36523  0.09695  0.73471  1.0000
  H   H73       1.0  0.38416  0.43043  0.58828  1.0000
  C   C42       1.0  0.16796  0.16428  0.55232  1.0000
  H   H74       1.0  0.42489  0.19651  0.62484  1.0000
  S   S19       1.0  0.33162  0.09391  0.70456  1.0000
  H   H75       1.0  0.34547  0.37016  0.58170  1.0000
  H   H76       1.0  0.39398  0.07314  0.63493  1.0000
  H   H77       1.0  0.49600  0.22107  0.57334  1.0000
  S   S20       1.0  0.44048  0.27533  0.65042  1.0000
  Fe  Fe11      1.0  0.41082  0.24151  0.57606  1.0000
  S   S21       1.0  0.39539  0.29507  0.56283  1.0000
  C   C43       1.0  0.51170  0.47293  0.58030  1.0000
  C   C44       1.0  0.41416  0.46070  0.55052  1.0000
  H   H78       1.0  0.46767  0.12734  0.65273  1.0000
  H   H79       1.0  0.47982  0.21251  0.61303  1.0000
  C   C45       1.0  0.48520  0.47505  0.59659  1.0000
  C   C46       1.0  0.24154  0.21839  0.56867  1.0000
  H   H80       1.0  0.41075  0.47349  0.53542  1.0000
  C   C47       1.0  0.33104  0.42556  0.55659  1.0000
  C   C48       1.0  0.18475  0.13316  0.54826  1.0000
  H   H81       1.0  0.35137  0.18961  0.64463  1.0000
  S   S22       1.0  0.35883  0.22204  0.60150  1.0000
  H   H82       1.0  0.45880  0.07510  0.53547  1.0000
  H   H83       1.0  0.40173  0.10305  0.53728  1.0000
  H   H84       1.0  0.40689  0.39580  0.57685  1.0000
  H   H85       1.0  0.41594  0.18248  0.71135  1.0000
  C   C49       1.0  0.29393  0.07478  0.52513  1.0000
  H   H86       1.0  0.10429  0.09914  0.59964  1.0000
  C   C50       1.0  0.46722  0.10700  0.54371  1.0000
  H   H87       1.0  0.24325  0.12125  0.55107  1.0000
  C   C51       1.0  0.40763  0.22589  0.66573  1.0000
  H   H88       1.0  0.33641  0.45370  0.56764  1.0000
  H   H89       1.0  0.46099  0.44332  0.60440  1.0000
  C   C52       1.0  0.23001  0.14505  0.55418  1.0000
  C   C53       1.0  0.37713  0.40280  0.57671  1.0000
  S   S23       1.0  0.50299  0.41865  0.57046  1.0000
  C   C54       1.0  0.44476  0.16365  0.55552  1.0000
  H   H90       1.0  0.26281  0.05530  0.73809  1.0000
  H   H91       1.0  0.29833  0.39326  0.56106  1.0000
  S   S24       1.0  0.27670  0.27102  0.58200  1.0000
  C   C55       1.0  0.34219  0.14769  0.67118  1.0000
  H   H92       1.0  0.44744  0.16892  0.65528  1.0000
  C   C56       1.0  0.19628  0.20675  0.56264  1.0000
  H   H93       1.0  0.26566  0.05669  0.53660  1.0000
  S   S25       1.0  0.40182  0.18066  0.55659  1.0000
  H   H94       1.0  0.39325  0.37339  0.54073  1.0000
  C   C57       1.0  0.46979  0.12597  0.61192  1.0000
  C   C58       1.0  0.36566  0.18796  0.65907  1.0000
  N   N6        1.0  0.44387  0.14246  0.62497  1.0000
  C   C59       1.0  0.51007  0.13202  0.55344  1.0000
  H   H95       1.0  0.30986  0.11835  0.66597  1.0000
  C   C60       1.0  0.43474  0.12275  0.54479  1.0000
  N   N7        1.0  0.37127  0.41722  0.55632  1.0000
  Fe  Fe12      1.0  0.41802  0.27950  0.61869  1.0000
  C   C61       1.0  0.36282  0.37952  0.54161  1.0000
  Fe  Fe13      1.0  0.34718  0.27916  0.58933  1.0000
  Fe  Fe14      1.0  0.42780  0.06737  0.75716  1.0000
  H   H96       1.0  0.08923  0.08586  0.57341  1.0000
  C   C62       1.0  0.36046  0.14534  0.69000  1.0000
  H   H97       1.0  0.32539  0.43641  0.54142  1.0000
  C   C63       1.0  0.44375  0.18291  0.61532  1.0000
  S   S26       1.0  0.47147  0.29507  0.59404  1.0000
  S   S27       1.0  0.40133  0.33544  0.60930  1.0000
  H   H98       1.0  0.18311  0.23053  0.56600  1.0000
  H   H99       1.0  0.33180  0.34563  0.54607  1.0000
  S   S28       1.0  0.44161  0.13346  0.74130  1.0000
  H   H100      1.0  0.20439  0.04506  0.74190  1.0000
  H   H101      1.0  0.13381  0.07660  0.58388  1.0000
  H   H102      1.0  0.44488  0.45501  0.54970  1.0000
  H   H103      1.0  0.42283  0.48939  0.56178  1.0000
  H   H104      1.0  0.42636  0.17336  0.60028  1.0000
  C   C64       1.0  0.52040  0.17303  0.56431  1.0000
  C   C65       1.0  0.39528  0.10423  0.62760  1.0000
  S   S29       1.0  0.48390  0.04818  0.75000  1.0000
  H   H105      1.0  0.46782  0.51935  0.61486  1.0000
  H   H106      1.0  0.35684  0.38837  0.52610  1.0000
  H   H107      1.0  0.32729  0.09505  0.53350  1.0000
  Fe  Fe15      1.0  0.53298  0.06262  0.52499  1.0000
  C   C66       1.0  0.48952  0.51832  0.60264  1.0000
  S   S30       1.0  0.35230  0.02877  0.74814  1.0000
  H   H108      1.0  0.08333  0.03412  0.62399  1.0000
  N   N8        1.0  0.24611  0.35123  0.86631  1.0000
  H   H109      1.0  0.24149  0.39431  0.84300  1.0000
  C   C67       1.0  0.25538  0.39725  0.85856  1.0000
  H   H110      1.0  0.23890  0.41297  0.86844  1.0000
  H   H111      1.0  0.40113  0.42963  0.99920  1.0000
  H   H112      1.0  0.23894  0.09390  0.82440  1.0000
  H   H113      1.0  0.30426  0.38172  0.96178  1.0000
  C   C68       1.0  0.26613  0.35737  0.88681  1.0000
  S   S31       1.0  0.50017  0.52123  0.86663  1.0000
  C   C69       1.0  0.19515  0.31910  0.86732  1.0000
  H   H114      1.0  0.25398  0.07141  0.77502  1.0000
  C   C70       1.0  0.24858  0.19628  0.84191  1.0000
  C   C71       1.0  0.05583  0.24139  0.88858  1.0000
  H   H115      1.0  0.22645  0.20646  0.85118  1.0000
  H   H116      1.0  0.28955  0.14457  0.83404  1.0000
  Fe  Fe16      1.0  0.45856  0.49625  0.83802  1.0000
  H   H117      1.0  0.38326  0.45103  0.95617  1.0000
  C   C72       1.0  0.25532  0.13254  0.82653  1.0000
  H   H118      1.0  0.28239  0.20909  0.84994  1.0000
  S   S32       1.0  0.47096  0.22332  0.78524  1.0000
  H   H119      1.0  0.38828  0.51102  0.87892  1.0000
  H   H120      1.0  0.16205  0.09154  0.82484  1.0000
  H   H121      1.0  0.19707  0.08225  0.85650  1.0000
  Fe  Fe17      1.0  0.42619  0.39276  0.84684  1.0000
  H   H122      1.0  0.41012  0.49352  0.97603  1.0000
  S   S33       1.0  0.39513  0.43904  0.85322  1.0000
  C   C73       1.0  0.36715  0.40631  0.99175  1.0000
  H   H123      1.0  0.24688  0.13203  0.86731  1.0000
  Fe  Fe18      1.0  0.52385  0.46926  0.85875  1.0000
  S   S34       1.0  0.03861  0.28410  0.89270  1.0000
  H   H124      1.0  0.25973  0.32342  0.89323  1.0000
  H   H125      1.0  0.29349  0.42271  0.85800  1.0000
  C   C74       1.0  0.45093  0.31494  0.81993  1.0000
  C   C75       1.0  0.18069  0.12996  0.82767  1.0000
  H   H126      1.0  0.33756  0.22998  0.81604  1.0000
  C   C76       1.0  0.39564  0.22605  0.80269  1.0000
  C   C77       1.0  0.32078  0.50405  0.88546  1.0000
  S   S35       1.0  0.37571  0.31854  0.83681  1.0000
  C   C78       1.0  0.04455  0.17025  0.87135  1.0000
  N   N9        1.0  0.22482  0.14499  0.83863  1.0000
  C   C79       1.0  0.18336  0.05077  0.78377  1.0000
  C   C80       1.0  0.47162  0.29351  0.80846  1.0000
  H   H127      1.0  0.15639  0.13805  0.83650  1.0000
  C   C81       1.0  0.32100  0.45555  0.92003  1.0000
  S   S36       1.0  0.41318  0.08947  0.78741  1.0000
  H   H128      1.0  0.47252  0.34913  0.82663  1.0000
  C   C82       1.0  0.37494  0.24758  0.81408  1.0000
  H   H129      1.0  0.25384  0.44896  0.92672  1.0000
  C   C83       1.0  0.40250  0.29212  0.82268  1.0000
  C   C84       1.0  0.22518  0.04926  0.78476  1.0000
  H   H130      1.0  0.19064  0.12874  0.86782  1.0000
  C   C85       1.0  0.21451  0.12103  0.85844  1.0000
  C   C86       1.0  0.44405  0.24913  0.79972  1.0000
  H   H131      1.0  0.32056  0.52246  0.87196  1.0000
  S   S37       1.0  0.07053  0.35153  0.94523  1.0000
  Fe  Fe19      1.0  0.08638  0.34556  0.91252  1.0000
  C   C87       1.0  0.08421  0.17426  0.88082  1.0000
  Fe  Fe20      1.0  0.08806  0.42521  0.93759  1.0000
  H   H132      1.0  0.50907  0.31152  0.80628  1.0000
  C   C88       1.0  0.09485  0.24466  0.89833  1.0000
  C   C89       1.0  0.10918  0.21145  0.89434  1.0000
  H   H133      1.0  0.11375  0.27241  0.90914  1.0000
  S   S38       1.0  0.09811  0.41702  0.90439  1.0000
  H   H134      1.0  0.13944  0.21429  0.90195  1.0000
  Fe  Fe21      1.0  0.14735  0.38185  0.95017  1.0000
  S   S39       1.0  0.16179  0.36957  0.91798  1.0000
  S   S40       1.0  0.10493  0.13485  0.87552  1.0000
  H   H135      1.0  0.17762  0.33299  0.87759  1.0000
  H   H136      1.0  0.30462  0.38148  0.88659  1.0000
  C   C90       1.0  0.28301  0.46245  0.91624  1.0000
  C   C91       1.0  0.28249  0.48602  0.89877  1.0000
  Fe  Fe22      1.0  0.05602  0.06501  0.86095  1.0000
  Fe  Fe23      1.0  0.43888  0.45973  0.88120  1.0000
  H   H137      1.0  0.37415  0.19175  0.79614  1.0000
  H   H138      1.0  0.26183  0.29675  0.85809  1.0000
  S   S41       1.0  0.48597  0.44809  0.82898  1.0000
  H   H139      1.0  0.50727  0.15222  0.77144  1.0000
  C   C92       1.0  0.26780  0.33125  0.85260  1.0000
  H   H140      1.0  0.25381  0.32635  0.83694  1.0000
  H   H141      1.0  0.35989  0.48848  0.96327  1.0000
  S   S42       1.0  0.23263  0.48963  0.89270  1.0000
  H   H142      1.0  0.32016  0.43547  0.93301  1.0000
  H   H143      1.0  0.19818  0.33605  0.01421  1.0000
  H   H144      1.0  0.17874  0.31379  0.85215  1.0000
  H   H145      1.0  0.28169  0.41959  0.96939  1.0000
  C   C93       1.0  0.23029  0.46677  0.01320  1.0000
  C   C94       1.0  0.29979  0.40071  0.97495  1.0000
  H   H146      1.0  0.26251  0.14855  0.81117  1.0000
  H   H147      1.0  0.27558  0.37379  0.98587  1.0000
  S   S43       1.0  0.16413  0.45626  0.94525  1.0000
  Fe  Fe24      1.0  0.17261  0.44158  0.91263  1.0000
  H   H148      1.0  0.30627  0.35443  0.85150  1.0000
  S   S44       1.0  0.17390  0.35484  0.97521  1.0000
  H   H149      1.0  0.23960  0.50338  0.01280  1.0000
  H   H150      1.0  0.18680  0.14722  0.81264  1.0000
  C   C95       1.0  0.35881  0.47256  0.90652  1.0000
  H   H151      1.0  0.31530  0.43233  0.01373  1.0000
  H   H152      1.0  0.25658  0.21547  0.82726  1.0000
  C   C96       1.0  0.35888  0.49720  0.88929  1.0000
  C   C97       1.0  0.19719  0.39075  0.99668  1.0000
  S   S45       1.0  0.40435  0.46045  0.91079  1.0000
  H   H153      1.0  0.18024  0.07428  0.77329  1.0000
  N   N10       1.0  0.34500  0.43318  0.98444  1.0000
  C   C98       1.0  0.20853  0.43782  0.99643  1.0000
  H   H154      1.0  0.50544  0.09257  0.79445  1.0000
  H   H155      1.0  0.20139  0.45222  0.98318  1.0000
  H   H156      1.0  0.37045  0.48331  0.00901  1.0000
  C   C99       1.0  0.33710  0.45753  0.00176  1.0000
  S   S46       1.0  0.46620  0.40959  0.87600  1.0000
  H   H157      1.0  0.18680  0.28402  0.87312  1.0000
  H   H158      1.0  0.25064  0.37256  0.89750  1.0000
  C   C100      1.0  0.37590  0.46808  0.96935  1.0000
  H   H159      1.0  0.05080  0.47858  0.90908  1.0000
  H   H160      1.0  0.37386  0.38769  0.97904  1.0000
  S   S47       1.0  0.04157  0.45108  0.95161  1.0000
  H   H161      1.0  0.34454  0.37946  0.00308  1.0000
  H   H162      1.0  0.31878  0.47674  0.99697  1.0000
  C   C101      1.0  0.20699  0.37253  0.01395  1.0000
  H   H163      1.0  0.50112  0.16149  0.80813  1.0000
  Fe  Fe25      1.0  0.33886  0.05748  0.77701  1.0000
  Fe  Fe26      1.0  0.42247  0.15326  0.77115  1.0000
  S   S48       1.0  0.07963  0.57592  0.16898  1.0000
  H   H164      1.0  0.11917  0.98869  0.10875  1.0000
  C   C102      1.0  0.12140  0.72930  0.26395  1.0000
  H   H165      1.0  0.04209  0.86203  0.11968  1.0000
  C   C103      1.0  0.07379  0.89725  0.11848  1.0000
  H   H166      1.0  0.08392  0.90334  0.10216  1.0000
  N   N11       1.0  0.06505  0.93430  0.12684  1.0000
  H   H167      1.0  0.22180  0.60216  0.18692  1.0000
  C   C104      1.0  0.19049  0.74929  0.21068  1.0000
  H   H168      1.0  0.47370  0.54382  0.10912  1.0000
  C   C105      1.0  0.20642  0.73317  0.22666  1.0000
  H   H169      1.0  0.17615  0.61670  0.18966  1.0000
  H   H170      1.0  0.10240  0.00912  0.13095  1.0000
  H   H171      1.0  0.11929  0.69924  0.25506  1.0000
  Fe  Fe27      1.0  0.25289  0.94181  0.24842  1.0000
  C   C106      1.0  0.05192  0.92482  0.14849  1.0000
  H   H172      1.0  0.13728  0.98166  0.13357  1.0000
  H   H173      1.0  0.13806  0.73007  0.18770  1.0000
  C   C107      1.0  0.19826  0.61107  0.17838  1.0000
  C   C108      1.0  0.15007  0.01275  0.19662  1.0000
  C   C109      1.0  0.25402  0.64377  0.15095  1.0000
  C   C110      1.0  0.46567  0.99987  0.25928  1.0000
  H   H174      1.0  0.27524  0.67477  0.14121  1.0000
  N   N12       1.0  0.22468  0.65273  0.16546  1.0000
  H   H175      1.0  0.16854  0.63200  0.14427  1.0000
  C   C111      1.0  0.19176  0.66231  0.15414  1.0000
  H   H176      1.0  0.14384  0.76167  0.25512  1.0000
  S   S49       1.0  0.21663  0.98505  0.25178  1.0000
  H   H177      1.0  0.27830  0.63487  0.15891  1.0000
  S   S50       1.0  0.11683  0.59308  0.22568  1.0000
  C   C112      1.0  0.12694  0.67005  0.20508  1.0000
  S   S51       1.0  0.41767  0.00890  0.22720  1.0000
  C   C113      1.0  0.14375  0.65342  0.22046  1.0000
  Fe  Fe28      1.0  0.07274  0.54650  0.19998  1.0000
  C   C114      1.0  0.19441  0.97862  0.21115  1.0000
  S   S52       1.0  0.21931  0.86458  0.25446  1.0000
  H   H178      1.0  0.21314  0.95951  0.20913  1.0000
  H   H179      1.0  0.17462  0.57985  0.16918  1.0000
  H   H180      1.0  0.23220  0.61377  0.14070  1.0000
  C   C115      1.0  0.17519  0.98862  0.19427  1.0000
  H   H181      1.0  0.17976  0.97749  0.17932  1.0000
  S   S53       1.0  0.22141  0.80781  0.20270  1.0000
  H   H182      1.0  0.16898  0.66917  0.16462  1.0000
  C   C116      1.0  0.15070  0.71766  0.19997  1.0000
  C   C117      1.0  0.18338  0.68510  0.23136  1.0000
  H   H183      1.0  0.19679  0.67227  0.24312  1.0000
  H   H184      1.0  0.09543  0.64632  0.19714  1.0000
  H   H185      1.0  0.23751  0.75743  0.23482  1.0000
  Fe  Fe29      1.0  0.34795  0.95150  0.23886  1.0000
  H   H186      1.0  0.23312  0.70101  0.18950  1.0000
  H   H187      1.0  0.21044  0.69355  0.14424  1.0000
  C   C118      1.0  0.25447  0.69363  0.17838  1.0000
  S   S54       1.0  0.32299  0.87476  0.24343  1.0000
  C   C119      1.0  0.18966  0.99373  0.23050  1.0000
  H   H188      1.0  0.27461  0.72595  0.16922  1.0000
  Fe  Fe30      1.0  0.25856  0.86206  0.22694  1.0000
  H   H189      1.0  0.27971  0.68766  0.18719  1.0000
  S   S55       1.0  0.28679  0.93783  0.21949  1.0000
  C   C120      1.0  0.10784  0.98036  0.12485  1.0000
  H   H190      1.0  0.10243  0.89587  0.12674  1.0000
  C   C121      1.0  0.46826  0.02317  0.24127  1.0000
  H   H191      1.0  0.08082  0.92615  0.15765  1.0000
  S   S56       1.0  0.31573  0.95994  0.26765  1.0000
  H   H192      1.0  0.20706  0.53052  0.10674  1.0000
  H   H193      1.0  0.43220  0.97276  0.26484  1.0000
  C   C122      1.0  0.16446  0.01783  0.23287  1.0000
  C   C123      1.0  0.50567  0.54265  0.10661  1.0000
  H   H194      1.0  0.08569  0.72493  0.26464  1.0000
  H   H195      1.0  0.04384  0.95143  0.15512  1.0000
  H   H196      1.0  0.53423  0.95318  0.22225  1.0000
  N   N13       1.0  0.14025  0.73172  0.28446  1.0000
  C   C124      1.0  0.27227  0.85773  0.39963  1.0000
  H   H197      1.0  0.24178  0.91977  0.40037  1.0000
  C   C125      1.0  0.25097  0.01560  0.49986  1.0000
  C   C126      1.0  0.18831  0.73933  0.28272  1.0000
  H   H198      1.0  0.15322  0.77266  0.31179  1.0000
  H   H199      1.0  0.26719  0.92056  0.42444  1.0000
  H   H200      1.0  0.10921  0.65684  0.28686  1.0000
  H   H201      1.0  0.33448  0.96260  0.37607  1.0000
  H   H202      1.0  0.26401  0.84546  0.41552  1.0000
  H   H203      1.0  0.12422  0.68780  0.31069  1.0000
  H   H204      1.0  0.16446  0.80530  0.28885  1.0000
  H   H205      1.0  0.08985  0.61196  0.43829  1.0000
  H   H206      1.0  0.18991  0.90031  0.33506  1.0000
  C   C127      1.0  0.20335  0.87606  0.33516  1.0000
  H   H207      1.0  0.23880  0.89929  0.30630  1.0000
  H   H208      1.0  0.25290  0.79053  0.33573  1.0000
  S   S57       1.0  0.28380  0.84338  0.29905  1.0000
  C   C128      1.0  0.23112  0.87564  0.31892  1.0000
  C   C129      1.0  0.23909  0.81445  0.33554  1.0000
  C   C130      1.0  0.24935  0.84509  0.31919  1.0000
  H   H209      1.0  0.07418  0.68057  0.29699  1.0000
  H   H210      1.0  0.30644  0.98118  0.51101  1.0000
  S   S58       1.0  0.25221  0.78741  0.44732  1.0000
  Fe  Fe31      1.0  0.09170  0.70094  0.41568  1.0000
  Fe  Fe32      1.0  0.09578  0.78140  0.44055  1.0000
  Fe  Fe33      1.0  0.14325  0.80061  0.39894  1.0000
  S   S59       1.0  0.16071  0.84924  0.37221  1.0000
  S   S60       1.0  0.11384  0.72523  0.44758  1.0000
  S   S61       1.0  0.16373  0.74513  0.40256  1.0000
  S   S62       1.0  0.16763  0.83313  0.42972  1.0000
  C   C131      1.0  0.11062  0.68724  0.29522  1.0000
  Fe  Fe34      1.0  0.18386  0.77488  0.43416  1.0000
  H   H211      1.0  0.18915  0.70961  0.27483  1.0000
  Fe  Fe35      1.0  0.53124  0.97736  0.50568  1.0000
  S   S63       1.0  0.05302  0.79191  0.46487  1.0000
  H   H212      1.0  0.28999  0.83972  0.39245  1.0000
  H   H213      1.0  0.34759  0.83117  0.46040  1.0000
  Fe  Fe36      1.0  0.45854  0.00449  0.49403  1.0000
  H   H214      1.0  0.20247  0.79013  0.36398  1.0000
  S   S64       1.0  0.06947  0.75446  0.40937  1.0000
  H   H215      1.0  0.36526  0.90776  0.40329  1.0000
  C   C132      1.0  0.30230  0.91850  0.47084  1.0000
  C   C133      1.0  0.31189  0.92396  0.37735  1.0000
  H   H216      1.0  0.29611  0.96983  0.40771  1.0000
  Fe  Fe37      1.0  0.28546  0.88222  0.27078  1.0000
  C   C134      1.0  0.19317  0.84554  0.35158  1.0000
  C   C135      1.0  0.14075  0.77092  0.29600  1.0000
  H   H217      1.0  0.36807  0.96264  0.40973  1.0000
  S   S65       1.0  0.38494  0.98725  0.48608  1.0000
  H   H218      1.0  0.33003  0.90706  0.36954  1.0000
  C   C136      1.0  0.05373  0.86689  0.44559  1.0000
  C   C137      1.0  0.34518  0.92391  0.40991  1.0000
  H   H219      1.0  0.23848  0.84557  0.39184  1.0000
  H   H220      1.0  0.10541  0.76740  0.29705  1.0000
  C   C138      1.0  0.21061  0.81428  0.35159  1.0000
  C   C139      1.0  0.27234  0.87413  0.46253  1.0000
  H   H221      1.0  0.27936  0.91402  0.36873  1.0000
  H   H222      1.0  0.33816  0.91302  0.42612  1.0000
  H   H223      1.0  0.40035  0.90934  0.47546  1.0000
  C   C140      1.0  0.27554  0.93091  0.40824  1.0000
  H   H224      1.0  0.23647  0.86408  0.45959  1.0000
  C   C141      1.0  0.33485  0.85551  0.46328  1.0000
  C   C142      1.0  0.28855  0.84255  0.45860  1.0000
  C   C143      1.0  0.34854  0.93140  0.47555  1.0000
  N   N14       1.0  0.30133  0.90922  0.39877  1.0000
  H   H225      1.0  0.20452  0.74351  0.29789  1.0000
  S   S66       1.0  0.50728  0.98935  0.47549  1.0000
  C   C144      1.0  0.06152  0.57836  0.43350  1.0000
  H   H226      1.0  0.28942  0.94262  0.47384  1.0000
  C   C145      1.0  0.36480  0.89981  0.47176  1.0000
  C   C146      1.0  0.05444  0.53691  0.44287  1.0000
  C   C147      1.0  0.04443  0.90446  0.44474  1.0000
  H   H227      1.0  0.21129  0.77169  0.27399  1.0000
  H   H228      1.0  0.07744  0.53886  0.45489  1.0000
  H   H229      1.0  0.50423  0.99311  0.28400  1.0000
  H   H230      1.0  0.06795  0.85803  0.43247  1.0000
  H   H231      1.0  0.05172  0.92455  0.43094  1.0000
  H   H232      1.0  0.22147  0.99596  0.51064  1.0000
  C   C148      1.0  0.04384  0.84046  0.46333  1.0000
  H   H233      1.0  0.25112  0.98976  0.48879  1.0000
  C   C149      1.0  0.50651  0.01155  0.27013  1.0000
  C   C150      1.0  0.52865  0.99777  0.75618  1.0000
  C   C151      1.0  0.23883  0.97907  0.71435  1.0000
  H   H234      1.0  0.15918  0.97984  0.70653  1.0000
  N   N15       1.0  0.06381  0.02541  0.59260  1.0000
  C   C152      1.0  0.30495  0.00721  0.52159  1.0000
  H   H235      1.0  0.51408  0.64852  0.66809  1.0000
  C   C153      1.0  0.16067  0.96469  0.72136  1.0000
  H   H236      1.0  0.50585  0.56912  0.67057  1.0000
  C   C154      1.0  0.07884  0.01070  0.61085  1.0000
  H   H237      1.0  0.05273  0.97427  0.61527  1.0000
  C   C155      1.0  0.49563  0.00932  0.76392  1.0000
  H   H238      1.0  0.18568  0.96948  0.75998  1.0000
  S   S67       1.0  0.47795  0.98655  0.52398  1.0000
  H   H239      1.0  0.09215  0.99493  0.57156  1.0000
  H   H240      1.0  0.11277  0.01167  0.60815  1.0000
  N   N16       1.0  0.20896  0.98683  0.72902  1.0000
  H   H241      1.0  0.24021  0.99528  0.69940  1.0000
  H   H242      1.0  0.24486  0.98317  0.75548  1.0000
  H   H243      1.0  0.19772  0.92790  0.74727  1.0000
  H   H244      1.0  0.51941  0.57073  0.64401  1.0000
  H   H245      1.0  0.52694  0.64911  0.64153  1.0000
  C   C156      1.0  0.52155  0.56015  0.59299  1.0000
  H   H246      1.0  0.13732  0.97003  0.73215  1.0000
  H   H247      1.0  0.27548  0.99538  0.71973  1.0000
  S   S68       1.0  0.52361  0.61311  0.60060  1.0000
  H   H248      1.0  0.27726  0.98739  0.53306  1.0000
  H   H249      1.0  0.22632  0.94111  0.71186  1.0000
  C   C157      1.0  0.05853  0.99356  0.57556  1.0000
  C   C158      1.0  0.20929  0.96591  0.74875  1.0000
  H   H250      1.0  0.14586  0.92623  0.71924  1.0000
  H   H251      1.0  0.33905  0.02502  0.52956  1.0000
  C   C159      1.0  0.53503  0.58037  0.65944  1.0000
  H   H252      1.0  0.04651  0.00336  0.56176  1.0000
  H   H253      1.0  0.12108  0.97061  0.82011  1.0000
  C   C160      1.0  0.48840  0.60387  0.81727  1.0000
  H   H254      1.0  0.48654  0.74726  0.81371  1.0000
  C   C161      1.0  0.19163  0.99049  0.81095  1.0000
  H   H255      1.0  0.19450  0.96668  0.82135  1.0000
  C   C162      1.0  0.22908  0.01833  0.79801  1.0000
  C   C163      1.0  0.49935  0.63345  0.80044  1.0000
  H   H256      1.0  0.46335  0.77048  0.86656  1.0000
  C   C164      1.0  0.52212  0.82410  0.83734  1.0000
  C   C165      1.0  0.45104  0.80525  0.81971  1.0000
  H   H257      1.0  0.41029  0.75617  0.85351  1.0000
  H   H258      1.0  0.45050  0.81612  0.86009  1.0000
  S   S69       1.0  0.45450  0.54281  0.81397  1.0000
  H   H259      1.0  0.45433  0.83970  0.82407  1.0000
  C   C166      1.0  0.52879  0.68209  0.80254  1.0000
  Fe  Fe38      1.0  0.05243  0.00951  0.82352  1.0000
  H   H260      1.0  0.41340  0.77976  0.81755  1.0000
  C   C167      1.0  0.48714  0.96278  0.79380  1.0000
  C   C168      1.0  0.47466  0.99153  0.78275  1.0000
  H   H261      1.0  0.47110  0.94941  0.80842  1.0000
  S   S70       1.0  0.27938  0.01237  0.79813  1.0000
  H   H262      1.0  0.06639  0.68398  0.88720  1.0000
  C   C169      1.0  0.44798  0.78264  0.85468  1.0000
  N   N17       1.0  0.47228  0.78891  0.83502  1.0000
  C   C170      1.0  0.46808  0.74373  0.82839  1.0000
  H   H263      1.0  0.49660  0.60087  0.84944  1.0000
  C   C171      1.0  0.15009  0.99271  0.81028  1.0000
  C   C172      1.0  0.53531  0.67179  0.83843  1.0000
  H   H264      1.0  0.48387  0.73048  0.83960  1.0000
  H   H265      1.0  0.44913  0.00013  0.78886  1.0000
  H   H266      1.0  0.46862  0.81046  0.80468  1.0000
  H   H267      1.0  0.48564  0.61858  0.78568  1.0000
  H   H268      1.0  0.52686  0.85889  0.84209  1.0000
  H   H269      1.0  0.05053  0.75002  0.88204  1.0000
  C   C173      1.0  0.52009  0.95111  0.78598  1.0000
  C   C174      1.0  0.50587  0.62326  0.83632  1.0000
  H   H270      1.0  0.43102  0.71626  0.82633  1.0000
  H   H271      1.0  0.06977  0.71467  0.85247  1.0000
  C   C175      1.0  0.14559  0.02215  0.79637  1.0000
  S   S71       1.0  0.53555  0.91565  0.80042  1.0000
  S   S72       1.0  0.09321  0.02367  0.79429  1.0000
  S   S73       1.0  0.09141  0.02365  0.85259  1.0000
  S   S74       1.0  0.96990  0.07034  0.16581  1.0000
  S   S75       1.0  0.00511  0.47120  0.15310  1.0000
  C   C176      1.0  0.98112  0.24774  0.18166  1.0000
  H   H272      1.0  0.81412  0.46788  0.13490  1.0000
  H   H273      1.0  0.90492  0.08290  0.25315  1.0000
  H   H274      1.0  0.78327  0.49908  0.02350  1.0000
  C   C177      1.0  0.55283  0.07007  0.24512  1.0000
  C   C178      1.0  0.93885  0.16778  0.16960  1.0000
  H   H275      1.0  0.89196  0.19415  0.19493  1.0000
  H   H276      1.0  0.00670  0.20942  0.21151  1.0000
  S   S76       1.0  0.99439  0.50596  0.19955  1.0000
  H   H277      1.0  0.97536  0.15019  0.20234  1.0000
  Fe  Fe39      1.0  0.00377  0.44803  0.18535  1.0000
  C   C179      1.0  0.90350  0.06196  0.22195  1.0000
  H   H278      1.0  0.89189  0.04163  0.19054  1.0000
  H   H279      1.0  0.96722  0.17335  0.15865  1.0000
  H   H280      1.0  0.90963  0.27574  0.20393  1.0000
  S   S77       1.0  0.76703  0.06642  0.21776  1.0000
  C   C180      1.0  0.54843  0.51000  0.08925  1.0000
  C   C181      1.0  0.88693  0.51302  0.14205  1.0000
  C   C182      1.0  0.84447  0.07651  0.23778  1.0000
  H   H281      1.0  0.99592  0.27168  0.19496  1.0000
  Fe  Fe40      1.0  0.99342  0.05765  0.19551  1.0000
  C   C183      1.0  0.87885  0.05115  0.20373  1.0000
  S   S78       1.0  0.96952  0.37065  0.19275  1.0000
  Fe  Fe41      1.0  0.75869  0.19853  0.25360  1.0000
  H   H282      1.0  0.65901  0.04091  0.21603  1.0000
  S   S79       1.0  0.78343  0.27359  0.24500  1.0000
  Fe  Fe42      1.0  0.75546  0.10734  0.24270  1.0000
  N   N18       1.0  0.95776  0.19792  0.18777  1.0000
  S   S80       1.0  0.70640  0.13497  0.23645  1.0000
  H   H283      1.0  0.93202  0.21148  0.21575  1.0000
  H   H284      1.0  0.90184  0.15160  0.20751  1.0000
  C   C184      1.0  0.88610  0.07455  0.23897  1.0000
  H   H285      1.0  0.91328  0.40774  0.21128  1.0000
  H   H286      1.0  0.58627  0.09734  0.23964  1.0000
  C   C185      1.0  0.83312  0.29991  0.22917  1.0000
  C   C186      1.0  0.85275  0.27375  0.22121  1.0000
  C   C187      1.0  0.89446  0.29599  0.20997  1.0000
  C   C188      1.0  0.91656  0.34434  0.20642  1.0000
  C   C189      1.0  0.89658  0.37047  0.21406  1.0000
  C   C190      1.0  0.85489  0.34824  0.22542  1.0000
  H   H287      1.0  0.83574  0.23640  0.22363  1.0000
  S   S81       1.0  0.95577  0.05972  0.22396  1.0000
  H   H288      1.0  0.83135  0.08631  0.25101  1.0000
  H   H289      1.0  0.83972  0.36861  0.23147  1.0000
  C   C191      1.0  0.83673  0.05209  0.20263  1.0000
  C   C192      1.0  0.99181  0.18760  0.19766  1.0000
  C   C193      1.0  0.81953  0.06494  0.21963  1.0000
  S   S82       1.0  0.81027  0.17327  0.25750  1.0000
  H   H290      1.0  0.01020  0.25597  0.17073  1.0000
  Fe  Fe43      1.0  0.67551  0.10556  0.26701  1.0000
  H   H291      1.0  0.89907  0.34151  0.26138  1.0000
  C   C194      1.0  0.91924  0.18843  0.20210  1.0000
  H   H292      1.0  0.95636  0.25685  0.17425  1.0000
  H   H293      1.0  0.91366  0.17511  0.16149  1.0000
  H   H294      1.0  0.92030  0.12999  0.17371  1.0000
  H   H295      1.0  0.88914  0.48765  0.15169  1.0000
  C   C195      1.0  0.84443  0.50203  0.13268  1.0000
  C   C196      1.0  0.55022  0.04645  0.26307  1.0000
  H   H296      1.0  0.81769  0.04349  0.18852  1.0000
  H   H297      1.0  0.02131  0.19426  0.18724  1.0000
  H   H298      1.0  0.88347  0.28102  0.26309  1.0000
  H   H299      1.0  0.54930  0.48533  0.07846  1.0000
  H   H300      1.0  0.62028  0.04383  0.23460  1.0000
  H   H301      1.0  0.94162  0.32599  0.26934  1.0000
  S   S83       1.0  0.78540  0.52512  0.11291  1.0000
  Fe  Fe44      1.0  0.77124  0.14247  0.28650  1.0000
  S   S84       1.0  0.81070  0.14542  0.31476  1.0000
  S   S85       1.0  0.72300  0.17203  0.28374  1.0000
  H   H302      1.0  0.81734  0.26456  0.28612  1.0000
  C   C197      1.0  0.81792  0.18734  0.33329  1.0000
  C   C198      1.0  0.79557  0.21400  0.33160  1.0000
  H   H303      1.0  0.77219  0.20791  0.31922  1.0000
  H   H304      1.0  0.86529  0.17480  0.35103  1.0000
  H   H305      1.0  0.00922  0.03840  0.43443  1.0000
  C   C199      1.0  0.01237  0.16308  0.46865  1.0000
  H   H306      1.0  0.91068  0.38848  0.29250  1.0000
  N   N19       1.0  0.88916  0.31501  0.29179  1.0000
  Fe  Fe45      1.0  0.56066  0.06479  0.48056  1.0000
  H   H307      1.0  0.67812  0.11696  0.36913  1.0000
  H   H308      1.0  0.70691  0.23052  0.49389  1.0000
  C   C200      1.0  0.91623  0.36227  0.30087  1.0000
  S   S86       1.0  0.60055  0.05668  0.27648  1.0000
  C   C201      1.0  0.83896  0.30057  0.29238  1.0000
  H   H309      1.0  0.88807  0.28109  0.31970  1.0000
  H   H310      1.0  0.92727  0.04778  0.47034  1.0000
  H   H311      1.0  0.03553  0.38258  0.47459  1.0000
  H   H312      1.0  0.90575  0.36269  0.31698  1.0000
  C   C202      1.0  0.84777  0.19526  0.34968  1.0000
  C   C203      1.0  0.80378  0.24911  0.34591  1.0000
  H   H313      1.0  0.78648  0.26977  0.34449  1.0000
  H   H314      1.0  0.72425  0.08405  0.38465  1.0000
  S   S87       1.0  0.97101  0.12199  0.50520  1.0000
  Fe  Fe46      1.0  0.00118  0.07390  0.50871  1.0000
  S   S88       1.0  0.60539  0.11337  0.45547  1.0000
  Fe  Fe47      1.0  0.88288  0.30413  0.40779  1.0000
  S   S89       1.0  0.87562  0.34180  0.43518  1.0000
  S   S90       1.0  0.84326  0.30147  0.37974  1.0000
  Fe  Fe48      1.0  0.94688  0.27636  0.42904  1.0000
  S   S91       1.0  0.94384  0.31097  0.45793  1.0000
  S   S92       1.0  0.99313  0.24338  0.42747  1.0000
  Fe  Fe49      1.0  0.86749  0.27888  0.45192  1.0000
  S   S93       1.0  0.81781  0.24075  0.47751  1.0000
  Fe  Fe50      1.0  0.95300  0.37057  0.43831  1.0000
  S   S94       1.0  0.00984  0.44180  0.44894  1.0000
  S   S95       1.0  0.86940  0.23909  0.42440  1.0000
  S   S96       1.0  0.96091  0.33788  0.40951  1.0000
  H   H315      1.0  0.69381  0.27527  0.50167  1.0000
  C   C204      1.0  0.98834  0.49085  0.42118  1.0000
  H   H316      1.0  0.73051  0.17229  0.36637  1.0000
  H   H317      1.0  0.96006  0.45725  0.41635  1.0000
  H   H318      1.0  0.68117  0.16936  0.37956  1.0000
  C   C205      1.0  0.66512  0.14726  0.46082  1.0000
  C   C206      1.0  0.69200  0.18988  0.45074  1.0000
  C   C207      1.0  0.73957  0.21805  0.45521  1.0000
  C   C208      1.0  0.76013  0.20381  0.46996  1.0000
  C   C209      1.0  0.73335  0.16105  0.47990  1.0000
  C   C210      1.0  0.68607  0.13254  0.47514  1.0000
  H   H319      1.0  0.67578  0.20157  0.43975  1.0000
  H   H320      1.0  0.76001  0.25146  0.44775  1.0000
  H   H321      1.0  0.74926  0.14994  0.49129  1.0000
  H   H322      1.0  0.66595  0.09914  0.48254  1.0000
  C   C211      1.0  0.97825  0.15518  0.48332  1.0000
  C   C212      1.0  0.70047  0.24724  0.50735  1.0000
  H   H323      1.0  0.87932  0.23660  0.37658  1.0000
  C   C213      1.0  0.98660  0.20841  0.44868  1.0000
  C   C214      1.0  0.95250  0.20022  0.46334  1.0000
  C   C215      1.0  0.94851  0.17391  0.48062  1.0000
  C   C216      1.0  0.85579  0.23023  0.36411  1.0000
  C   C217      1.0  0.74612  0.11870  0.39206  1.0000
  H   H324      1.0  0.92900  0.21409  0.46141  1.0000
  H   H325      1.0  0.92207  0.16791  0.49193  1.0000
  H   H326      1.0  0.82661  0.30077  0.30813  1.0000
  C   C218      1.0  0.89726  0.28131  0.30339  1.0000
  H   H327      1.0  0.93203  0.08727  0.45069  1.0000
  C   C219      1.0  0.70135  0.15067  0.37699  1.0000
  H   H328      1.0  0.03586  0.14928  0.47082  1.0000
  H   H329      1.0  0.73096  0.20862  0.40903  1.0000
  C   C220      1.0  0.99177  0.05368  0.44395  1.0000
  H   H330      1.0  0.99971  0.05031  0.45998  1.0000
  C   C221      1.0  0.83405  0.25744  0.36211  1.0000
  H   H331      1.0  0.65564  0.07902  0.40315  1.0000
  C   C222      1.0  0.01649  0.18967  0.45130  1.0000
  S   S97       1.0  0.58816  0.05212  0.50938  1.0000
  H   H332      1.0  0.61000  0.21526  0.50017  1.0000
  H   H333      1.0  0.62320  0.16954  0.49400  1.0000
  H   H334      1.0  0.76037  0.11274  0.40628  1.0000
  H   H335      1.0  0.93447  0.29007  0.30266  1.0000
  H   H336      1.0  0.78042  0.21093  0.39642  1.0000
  H   H337      1.0  0.83128  0.32424  0.28314  1.0000
  H   H338      1.0  0.69145  0.10803  0.42475  1.0000
  N   N20       1.0  0.71905  0.14293  0.39626  1.0000
  C   C223      1.0  0.67935  0.11398  0.40991  1.0000
  H   H339      1.0  0.00830  0.09172  0.44048  1.0000
  H   H340      1.0  0.95431  0.37440  0.30062  1.0000
  C   C224      1.0  0.93180  0.03558  0.41919  1.0000
  H   H341      1.0  0.87582  0.24484  0.29749  1.0000
  H   H342      1.0  0.65799  0.13113  0.41331  1.0000
  H   H343      1.0  0.76304  0.18402  0.42081  1.0000
  H   H344      1.0  0.77627  0.13973  0.38175  1.0000
  S   S98       1.0  0.72151  0.07381  0.27206  1.0000
  C   C225      1.0  0.01786  0.49304  0.43674  1.0000
  C   C226      1.0  0.74961  0.18857  0.40607  1.0000
  C   C227      1.0  0.91917  0.04965  0.45412  1.0000
  C   C228      1.0  0.61868  0.18941  0.50679  1.0000
  H   H345      1.0  0.67821  0.15785  0.51462  1.0000
  H   H346      1.0  0.73338  0.26422  0.51623  1.0000
  H   H347      1.0  0.02883  0.30549  0.46646  1.0000
  H   H348      1.0  0.94655  0.07338  0.41544  1.0000
  H   H349      1.0  0.03317  0.35840  0.43881  1.0000
  N   N21       1.0  0.94088  0.02944  0.44053  1.0000
  H   H350      1.0  0.58778  0.16410  0.51571  1.0000
  H   H351      1.0  0.88055  0.03096  0.45263  1.0000
  N   N22       1.0  0.66081  0.21242  0.51957  1.0000
  C   C229      1.0  0.90410  0.31593  0.27049  1.0000
  H   H352      1.0  0.68324  0.25424  0.54677  1.0000
  H   H353      1.0  0.55947  0.15831  0.76015  1.0000
  H   H354      1.0  0.55366  0.19257  0.57183  1.0000
  H   H355      1.0  0.00628  0.03439  0.58322  1.0000
  H   H356      1.0  0.64265  0.26261  0.53168  1.0000
  S   S99       1.0  0.55069  0.11214  0.55170  1.0000
  H   H357      1.0  0.62260  0.21051  0.54650  1.0000
  S   S100      1.0  0.02159  0.06414  0.53988  1.0000
  H   H358      1.0  0.70376  0.19293  0.53682  1.0000
  C   C230      1.0  0.65205  0.23612  0.53689  1.0000
  H   H359      1.0  0.64283  0.14998  0.53657  1.0000
  H   H360      1.0  0.56477  0.51355  0.55816  1.0000
  C   C231      1.0  0.67195  0.17682  0.52725  1.0000
  H   H361      1.0  0.02089  0.04663  0.60956  1.0000
  C   C232      1.0  0.54401  0.51480  0.57075  1.0000
  H   H362      1.0  0.89132  0.27064  0.90556  1.0000
  H   H363      1.0  0.00549  0.35067  0.88139  1.0000
  N   N23       1.0  0.94773  0.34050  0.90038  1.0000
  H   H364      1.0  0.62523  0.22918  0.79190  1.0000
  H   H365      1.0  0.55078  0.21865  0.80671  1.0000
  C   C233      1.0  0.69122  0.49884  0.90980  1.0000
  C   C234      1.0  0.54411  0.11380  0.79559  1.0000
  C   C235      1.0  0.91763  0.29146  0.89372  1.0000
  C   C236      1.0  0.97185  0.34094  0.91920  1.0000
  H   H366      1.0  0.68536  0.47248  0.98829  1.0000
  C   C237      1.0  0.01660  0.47811  0.93715  1.0000
  C   C238      1.0  0.03054  0.20391  0.87517  1.0000
  H   H367      1.0  0.99244  0.32260  0.91702  1.0000
  H   H368      1.0  0.89866  0.28958  0.87957  1.0000
  C   C239      1.0  0.91910  0.36322  0.90428  1.0000
  H   H369      1.0  0.76007  0.44581  0.99272  1.0000
  H   H370      1.0  0.96575  0.36614  0.86984  1.0000
  N   N24       1.0  0.56047  0.16427  0.79276  1.0000
  C   C240      1.0  0.64237  0.47231  0.91132  1.0000
  C   C241      1.0  0.61406  0.47171  0.89532  1.0000
  H   H371      1.0  0.00567  0.40368  0.88882  1.0000
  H   H372      1.0  0.62641  0.45196  0.92482  1.0000
  H   H373      1.0  0.94691  0.32339  0.93192  1.0000
  C   C242      1.0  0.76875  0.47766  0.98373  1.0000
  H   H374      1.0  0.00016  0.20097  0.86763  1.0000
  C   C243      1.0  0.98558  0.49024  0.94664  1.0000
  H   H375      1.0  0.62422  0.18624  0.80899  1.0000
  N   N25       1.0  0.75843  0.51055  0.99519  1.0000
  C   C244      1.0  0.98265  0.36639  0.88438  1.0000
  H   H376      1.0  0.01261  0.51456  0.88934  1.0000
  S   S101      1.0  0.60136  0.49531  0.85657  1.0000
  H   H377      1.0  0.93870  0.27377  0.89060  1.0000
  H   H378      1.0  0.57647  0.45087  0.89647  1.0000
  H   H379      1.0  0.74870  0.46617  0.96929  1.0000
  C   C245      1.0  0.70895  0.48617  0.00165  1.0000
  C   C246      1.0  0.00486  0.50763  0.90533  1.0000
  S   S102      1.0  0.72648  0.49840  0.92967  1.0000
  H   H380      1.0  0.97804  0.48362  0.96267  1.0000
  C   C247      1.0  0.63467  0.49703  0.87762  1.0000
  H   H381      1.0  0.62829  0.17933  0.78208  1.0000
  H   H382      1.0  0.55419  0.10668  0.81064  1.0000
  H   H383      1.0  0.90098  0.36440  0.89033  1.0000
  H   H384      1.0  0.89214  0.34439  0.91617  1.0000
  H   H385      1.0  0.99640  0.37734  0.92420  1.0000
  C   C248      1.0  0.61190  0.19097  0.79400  1.0000
  H   H386      1.0  0.94097  0.40003  0.90972  1.0000
  H   H387      1.0  0.80643  0.49427  0.97966  1.0000
  S   S103      1.0  0.02020  0.05460  0.83107  1.0000
  H   H388      1.0  0.55037  0.17639  0.82413  1.0000
  C   C249      1.0  0.02634  0.48703  0.91645  1.0000
  H   H389      1.0  0.70099  0.45594  0.01166  1.0000
  H   H390      1.0  0.70001  0.51020  0.01020  1.0000
  C   C250      1.0  0.96444  0.51122  0.93558  1.0000
  H   H391      1.0  0.55869  0.10005  0.78371  1.0000
  H   H392      1.0  0.02505  0.14162  0.86090  1.0000
  C   C251      1.0  0.54579  0.17145  0.77263  1.0000
  C   C252      1.0  0.97396  0.51993  0.91488  1.0000
  H   H393      1.0  0.94085  0.52068  0.94311  1.0000
  C   C253      1.0  0.68341  0.52372  0.87621  1.0000
  H   H394      1.0  0.55722  0.20908  0.76986  1.0000
  C   C254      1.0  0.53996  0.18089  0.80869  1.0000
  C   C255      1.0  0.71155  0.52503  0.89230  1.0000
  Fe  Fe51      1.0  0.98061  0.01177  0.15429  1.0000
  S   S104      1.0  0.92794  0.95785  0.13302  1.0000
  N   N26       1.0  0.60647  0.97424  0.22754  1.0000
  H   H395      1.0  0.54356  0.91425  0.23823  1.0000
  Fe  Fe52      1.0  0.77661  0.65825  0.07806  1.0000
  S   S105      1.0  0.72140  0.58717  0.08839  1.0000
  S   S106      1.0  0.77505  0.67564  0.04507  1.0000
  Fe  Fe53      1.0  0.81391  0.69053  0.12078  1.0000
  S   S107      1.0  0.76122  0.62188  0.13435  1.0000
  S   S108      1.0  0.86646  0.74297  0.14282  1.0000
  Fe  Fe54      1.0  0.77822  0.58939  0.10784  1.0000
  C   C256      1.0  0.84377  0.65791  0.18204  1.0000
  Fe  Fe55      1.0  0.70943  0.62593  0.11387  1.0000
  S   S109      1.0  0.64000  0.61563  0.12544  1.0000
  S   S110      1.0  0.83471  0.65777  0.09551  1.0000
  S   S111      1.0  0.76084  0.69745  0.10230  1.0000
  H   H396      1.0  0.62546  0.93788  0.24920  1.0000
  C   C257      1.0  0.58353  0.61466  0.05505  1.0000
  H   H397      1.0  0.64559  0.69270  0.03518  1.0000
  C   C258      1.0  0.92209  0.59068  0.12759  1.0000
  H   H398      1.0  0.65078  0.63677  0.08316  1.0000
  H   H399      1.0  0.56178  0.59204  0.04238  1.0000
  H   H400      1.0  0.95206  0.62518  0.12561  1.0000
  H   H401      1.0  0.87729  0.60603  0.10956  1.0000
  C   C259      1.0  0.91171  0.89836  0.13575  1.0000
  C   C260      1.0  0.87999  0.86537  0.12205  1.0000
  C   C261      1.0  0.86593  0.81756  0.12402  1.0000
  C   C262      1.0  0.88343  0.80253  0.13976  1.0000
  C   C263      1.0  0.91513  0.83554  0.15348  1.0000
  C   C264      1.0  0.92930  0.88333  0.15146  1.0000
  H   H402      1.0  0.86635  0.87678  0.10981  1.0000
  H   H403      1.0  0.84171  0.79240  0.11330  1.0000
  H   H404      1.0  0.92877  0.82405  0.16569  1.0000
  H   H405      1.0  0.95378  0.90836  0.16208  1.0000
  H   H406      1.0  0.93061  0.65324  0.15576  1.0000
  C   C265      1.0  0.84330  0.65271  0.03598  1.0000
  H   H407      1.0  0.84516  0.64808  0.05206  1.0000
  H   H408      1.0  0.89914  0.93560  0.17561  1.0000
  C   C266      1.0  0.90485  0.66497  0.15931  1.0000
  H   H409      1.0  0.88269  0.91208  0.20070  1.0000
  H   H410      1.0  0.62940  0.56730  0.06190  1.0000
  H   H411      1.0  0.99388  0.90037  0.11658  1.0000
  C   C267      1.0  0.82224  0.93827  0.16656  1.0000
  H   H412      1.0  0.92260  0.62061  0.18902  1.0000
  H   H413      1.0  0.77362  0.84482  0.17161  1.0000
  N   N27       1.0  0.87285  0.63696  0.17586  1.0000
  H   H414      1.0  0.57644  0.64439  0.05682  1.0000
  H   H415      1.0  0.86313  0.57092  0.16486  1.0000
  C   C268      1.0  0.66055  0.65874  0.06931  1.0000
  H   H416      1.0  0.89616  0.63428  0.02839  1.0000
  H   H417      1.0  0.64832  0.96490  0.20473  1.0000
  C   C269      1.0  0.90050  0.63657  0.19331  1.0000
  N   N28       1.0  0.63372  0.63130  0.05153  1.0000
  H   H418      1.0  0.83132  0.86154  0.16267  1.0000
  H   H419      1.0  0.02070  0.88971  0.15066  1.0000
  C   C270      1.0  0.64993  0.66126  0.03331  1.0000
  C   C271      1.0  0.64115  0.59066  0.04847  1.0000
  C   C272      1.0  0.61130  0.94843  0.21002  1.0000
  H   H420      1.0  0.62154  0.56918  0.03515  1.0000
  H   H421      1.0  0.59987  0.91136  0.21397  1.0000
  H   H422      1.0  0.80300  0.89103  0.21376  1.0000
  H   H423      1.0  0.89030  0.96881  0.19515  1.0000
  H   H424      1.0  0.88550  0.66219  0.14513  1.0000
  H   H425      1.0  0.65450  0.68869  0.07263  1.0000
  H   H426      1.0  0.63197  0.99270  0.25800  1.0000
  H   H427      1.0  0.78227  0.55339  0.02213  1.0000
  H   H428      1.0  0.67334  0.99218  0.24013  1.0000
  C   C273      1.0  0.63562  0.97413  0.24442  1.0000
  H   H429      1.0  0.86557  0.69478  0.18730  1.0000
  H   H430      1.0  0.81116  0.94724  0.20653  1.0000
  S   S112      1.0  0.97436  0.57841  0.15581  1.0000
  C   C274      1.0  0.87967  0.58000  0.11856  1.0000
  C   C275      1.0  0.84036  0.53615  0.12152  1.0000
  H   H431      1.0  0.81651  0.56657  0.18055  1.0000
  H   H432      1.0  0.82265  0.58712  0.15495  1.0000
  H   H433      1.0  0.92428  0.67272  0.19892  1.0000
  H   H434      1.0  0.92496  0.70283  0.16336  1.0000
  H   H435      1.0  0.81898  0.63765  0.19443  1.0000
  H   H436      1.0  0.81470  0.84087  0.18812  1.0000
  H   H437      1.0  0.58990  0.94817  0.19701  1.0000
  C   C276      1.0  0.87699  0.93280  0.18892  1.0000
  C   C277      1.0  0.54647  0.57375  0.11710  1.0000
  H   H438      1.0  0.69866  0.67326  0.06687  1.0000
  C   C278      1.0  0.81230  0.66651  0.02856  1.0000
  Fe  Fe56      1.0  0.00187  0.53212  0.16746  1.0000
  H   H439      1.0  0.84257  0.93877  0.15284  1.0000
  C   C279      1.0  0.81096  0.86245  0.17612  1.0000
  C   C280      1.0  0.92536  0.55806  0.14005  1.0000
  H   H440      1.0  0.82289  0.65887  0.16909  1.0000
  H   H441      1.0  0.87756  0.61575  0.20611  1.0000
  C   C281      1.0  0.58840  0.57331  0.11356  1.0000
  C   C282      1.0  0.79952  0.91092  0.20093  1.0000
  S   S113      1.0  0.99853  0.99504  0.18461  1.0000
  N   N29       1.0  0.82738  0.91110  0.18314  1.0000
  H   H442      1.0  0.83501  0.97535  0.17112  1.0000
  H   H443      1.0  0.78518  0.92309  0.16190  1.0000
  H   H444      1.0  0.76182  0.89467  0.19719  1.0000
  C   C283      1.0  0.84241  0.58834  0.16877  1.0000
  H   H445      1.0  0.01870  0.96191  0.12164  1.0000
  H   H446      1.0  0.62072  0.53907  0.09759  1.0000
  H   H447      1.0  0.57085  0.59358  0.06917  1.0000
  H   H448      1.0  0.67876  0.60205  0.04600  1.0000
  H   H449      1.0  0.68772  0.67402  0.03026  1.0000
  H   H450      1.0  0.55284  0.96935  0.24790  1.0000
  C   C284      1.0  0.02666  0.93473  0.11556  1.0000
  C   C285      1.0  0.55710  0.95164  0.23420  1.0000
  C   C286      1.0  0.58899  0.54065  0.09994  1.0000
  H   H451      1.0  0.54572  0.59874  0.12774  1.0000
  C   C287      1.0  0.87223  0.64496  0.02254  1.0000
  C   C288      1.0  0.62214  0.02310  0.22155  1.0000
  H   H452      1.0  0.03548  0.94235  0.09919  1.0000
  H   H453      1.0  0.60010  0.02500  0.20932  1.0000
  H   H454      1.0  0.98651  0.65286  0.49394  1.0000
  C   C289      1.0  0.02510  0.85201  0.48020  1.0000
  C   C290      1.0  0.98658  0.61106  0.45847  1.0000
  H   H455      1.0  0.01545  0.69444  0.44104  1.0000
  Fe  Fe57      1.0  0.01453  0.99621  0.49067  1.0000
  H   H456      1.0  0.02474  0.63027  0.45517  1.0000
  H   H457      1.0  0.89371  0.01775  0.41605  1.0000
  N   N30       1.0  0.96859  0.64387  0.46227  1.0000
  S   S114      1.0  0.01433  0.96326  0.46041  1.0000
  H   H458      1.0  0.98054  0.69983  0.48300  1.0000
  H   H459      1.0  0.89888  0.59429  0.45312  1.0000
  C   C291      1.0  0.91785  0.61709  0.46628  1.0000
  H   H460      1.0  0.94786  0.02078  0.40857  1.0000
  H   H461      1.0  0.96473  0.69913  0.44646  1.0000
  H   H462      1.0  0.88263  0.95922  0.44238  1.0000
  S   S115      1.0  0.54766  0.91797  0.50687  1.0000
  H   H463      1.0  0.96948  0.58807  0.44510  1.0000
  C   C292      1.0  0.99255  0.67389  0.47998  1.0000
  H   H464      1.0  0.90983  0.59413  0.47977  1.0000
  H   H465      1.0  0.03098  0.69460  0.47740  1.0000
  C   C293      1.0  0.02612  0.91628  0.46172  1.0000
  C   C294      1.0  0.97752  0.67359  0.44423  1.0000
  H   H466      1.0  0.92738  0.97308  0.46082  1.0000
  H   H467      1.0  0.96103  0.65230  0.43038  1.0000
  H   H468      1.0  0.68587  0.93938  0.51881  1.0000
  H   H469      1.0  0.98083  0.58803  0.47172  1.0000
  S   S116      1.0  0.95159  0.99731  0.50372  1.0000
  H   H470      1.0  0.00157  0.89809  0.49247  1.0000
  H   H471      1.0  0.93721  0.96277  0.43511  1.0000
  C   C295      1.0  0.92096  0.97893  0.44485  1.0000
  H   H472      1.0  0.01711  0.83152  0.49391  1.0000
  C   C296      1.0  0.03180  0.57614  0.41800  1.0000
  H   H473      1.0  0.90330  0.64098  0.46919  1.0000
  C   C297      1.0  0.01657  0.88996  0.47945  1.0000
  H   H474      1.0  0.55797  0.83868  0.51653  1.0000
  H   H475      1.0  0.73779  0.93487  0.51522  1.0000
  H   H476      1.0  0.97209  0.53032  0.39993  1.0000
  C   C298      1.0  0.99527  0.53228  0.41189  1.0000
  S   S117      1.0  0.03740  0.62721  0.40656  1.0000
  H   H477      1.0  0.56601  0.95983  0.76091  1.0000
  S   S118      1.0  0.93426  0.94640  0.56113  1.0000
  C   C299      1.0  0.58810  0.64322  0.68150  1.0000
  Fe  Fe58      1.0  0.58225  0.68769  0.59453  1.0000
  S   S119      1.0  0.65849  0.71397  0.60025  1.0000
  H   H478      1.0  0.54138  0.94435  0.54861  1.0000
  Fe  Fe59      1.0  0.59743  0.78850  0.59171  1.0000
  S   S120      1.0  0.67415  0.82154  0.59772  1.0000
  C   C300      1.0  0.73764  0.97306  0.72359  1.0000
  Fe  Fe60      1.0  0.67140  0.76720  0.57600  1.0000
  S   S121      1.0  0.72252  0.78914  0.54968  1.0000
  Fe  Fe61      1.0  0.65422  0.76614  0.62141  1.0000
  S   S122      1.0  0.68533  0.77914  0.65289  1.0000
  S   S123      1.0  0.59505  0.73691  0.56845  1.0000
  S   S124      1.0  0.57775  0.73726  0.61710  1.0000
  H   H479      1.0  0.56659  0.69577  0.65779  1.0000
  H   H480      1.0  0.57398  0.59026  0.56957  1.0000
  C   C301      1.0  0.67581  0.86215  0.53724  1.0000
  H   H481      1.0  0.77250  0.98854  0.73093  1.0000
  H   H482      1.0  0.76868  0.95324  0.56011  1.0000
  C   C302      1.0  0.81057  0.85112  0.53617  1.0000
  H   H483      1.0  0.60580  0.79456  0.65222  1.0000
  H   H484      1.0  0.69786  0.95865  0.56518  1.0000
  C   C303      1.0  0.87533  0.90303  0.55773  1.0000
  C   C304      1.0  0.85728  0.88661  0.53839  1.0000
  H   H485      1.0  0.76430  0.91050  0.73193  1.0000
  C   C305      1.0  0.78140  0.83231  0.55321  1.0000
  C   C306      1.0  0.79923  0.84920  0.57254  1.0000
  C   C307      1.0  0.84615  0.88420  0.57478  1.0000
  H   H486      1.0  0.66376  0.89776  0.57173  1.0000
  H   H487      1.0  0.55679  0.79945  0.67976  1.0000
  H   H488      1.0  0.77705  0.83487  0.58577  1.0000
  H   H489      1.0  0.85989  0.89663  0.58978  1.0000
  C   C308      1.0  0.74677  0.91702  0.55417  1.0000
  C   C309      1.0  0.65167  0.78530  0.67235  1.0000
  C   C310      1.0  0.61378  0.79161  0.66780  1.0000
  C   C311      1.0  0.76351  0.94539  0.69481  1.0000
  H   H490      1.0  0.60716  0.62408  0.68515  1.0000
  C   C312      1.0  0.54931  0.55833  0.57718  1.0000
  C   C313      1.0  0.59719  0.79310  0.70377  1.0000
  N   N31       1.0  0.56790  0.63126  0.66094  1.0000
  C   C314      1.0  0.58623  0.79477  0.68344  1.0000
  C   C315      1.0  0.66260  0.78337  0.69271  1.0000
  H   H491      1.0  0.61334  0.68147  0.68287  1.0000
  Fe  Fe62      1.0  0.59236  0.82800  0.75352  1.0000
  C   C316      1.0  0.63549  0.78744  0.70843  1.0000
  H   H492      1.0  0.56060  0.63448  0.69330  1.0000
  S   S125      1.0  0.56721  0.83720  0.59085  1.0000
  S   S126      1.0  0.56252  0.79882  0.72279  1.0000
  H   H493      1.0  0.62588  0.62581  0.64852  1.0000
  H   H494      1.0  0.76874  0.90963  0.54344  1.0000
  S   S127      1.0  0.62504  0.90569  0.75848  1.0000
  H   H495      1.0  0.73795  0.89242  0.56710  1.0000
  Fe  Fe63      1.0  0.97638  0.98719  0.53381  1.0000
  H   H496      1.0  0.99069  0.98703  0.60029  1.0000
  N   N32       1.0  0.70421  0.91121  0.54421  1.0000
  C   C317      1.0  0.67685  0.92276  0.55878  1.0000
  H   H497      1.0  0.54505  0.01145  0.74163  1.0000
  H   H498      1.0  0.64383  0.78569  0.72411  1.0000
  H   H499      1.0  0.69190  0.77844  0.69632  1.0000
  H   H500      1.0  0.63086  0.68260  0.64626  1.0000
  H   H501      1.0  0.75719  0.91471  0.68514  1.0000
  H   H502      1.0  0.87954  0.90058  0.52517  1.0000
  H   H503      1.0  0.66346  0.83733  0.55022  1.0000
  H   H504      1.0  0.70270  0.88346  0.73611  1.0000
  C   C318      1.0  0.60580  0.64435  0.64584  1.0000
  C   C319      1.0  0.54274  0.65726  0.65692  1.0000
  H   H505      1.0  0.69615  0.85142  0.52703  1.0000
  C   C320      1.0  0.01857  0.02338  0.59669  1.0000
  H   H506      1.0  0.72508  0.86501  0.71509  1.0000
  H   H507      1.0  0.03202  0.95657  0.57896  1.0000
  C   C321      1.0  0.68120  0.91164  0.70206  1.0000
  C   C322      1.0  0.54061  0.96853  0.76707  1.0000
  H   H508      1.0  0.73900  0.98022  0.53128  1.0000
  C   C323      1.0  0.71738  0.94289  0.52659  1.0000
  H   H509      1.0  0.59192  0.63560  0.63016  1.0000
  H   H510      1.0  0.67753  0.93807  0.69299  1.0000
  C   C324      1.0  0.73013  0.89601  0.72407  1.0000
  H   H511      1.0  0.64589  0.92129  0.55142  1.0000
  H   H512      1.0  0.71165  0.96369  0.73611  1.0000
  C   C325      1.0  0.55796  0.85682  0.56749  1.0000
  H   H513      1.0  0.55281  0.55954  0.66223  1.0000
  C   C326      1.0  0.55057  0.89553  0.56721  1.0000
  C   C327      1.0  0.54961  0.89398  0.53039  1.0000
  C   C328      1.0  0.56019  0.83610  0.54918  1.0000
  H   H514      1.0  0.64447  0.85683  0.52883  1.0000
  C   C329      1.0  0.55609  0.85471  0.53068  1.0000
  C   C330      1.0  0.54652  0.91418  0.54871  1.0000
  H   H515      1.0  0.56522  0.80587  0.54929  1.0000
  H   H516      1.0  0.79928  0.96039  0.70115  1.0000
  N   N33       1.0  0.72809  0.93154  0.71113  1.0000
  H   H517      1.0  0.79699  0.83814  0.52119  1.0000
  H   H518      1.0  0.65319  0.89825  0.71389  1.0000
  H   H519      1.0  0.73654  0.00079  0.71442  1.0000
  H   H520      1.0  0.76292  0.97213  0.68472  1.0000
  H   H521      1.0  0.54866  0.91157  0.58136  1.0000
  H   H522      1.0  0.67392  0.88175  0.69175  1.0000
  S   S128      1.0  0.03477  0.97876  0.52027  1.0000
  Fe  Fe64      1.0  0.60041  0.80912  0.79792  1.0000
  H   H523      1.0  0.63855  0.64806  0.79679  1.0000
  Fe  Fe65      1.0  0.58044  0.88744  0.78659  1.0000
  H   H524      1.0  0.54136  0.82963  0.82280  1.0000
  H   H525      1.0  0.58383  0.61850  0.84820  1.0000
  H   H526      1.0  0.93872  0.63805  0.88288  1.0000
  S   S129      1.0  0.63509  0.88554  0.80608  1.0000
  C   C331      1.0  0.86838  0.97601  0.80681  1.0000
  S   S130      1.0  0.64616  0.81931  0.77069  1.0000
  C   C332      1.0  0.87746  0.86427  0.87052  1.0000
  H   H527      1.0  0.78510  0.91311  0.84205  1.0000
  C   C333      1.0  0.81036  0.67247  0.00761  1.0000
  C   C334      1.0  0.79020  0.94733  0.79307  1.0000
  H   H528      1.0  0.53769  0.70462  0.78943  1.0000
  C   C335      1.0  0.84902  0.95483  0.82542  1.0000
  C   C336      1.0  0.80031  0.92950  0.82770  1.0000
  C   C337      1.0  0.77101  0.92545  0.81156  1.0000
  S   S131      1.0  0.58582  0.76140  0.82469  1.0000
  H   H529      1.0  0.73358  0.90591  0.81355  1.0000
  H   H530      1.0  0.96903  0.85330  0.85569  1.0000
  H   H531      1.0  0.54910  0.68653  0.85319  1.0000
  S   S132      1.0  0.88392  0.95982  0.84647  1.0000
  H   H532      1.0  0.61074  0.58497  0.85543  1.0000
  C   C338      1.0  0.61580  0.61545  0.84624  1.0000
  H   H533      1.0  0.95211  0.61154  0.86203  1.0000
  C   C339      1.0  0.83897  0.97249  0.79071  1.0000
  C   C340      1.0  0.63103  0.65082  0.81308  1.0000
  H   H534      1.0  0.94072  0.65954  0.85797  1.0000
  N   N34       1.0  0.62452  0.60957  0.82464  1.0000
  C   C341      1.0  0.66694  0.60500  0.82287  1.0000
  H   H535      1.0  0.59906  0.65429  0.81372  1.0000
  C   C342      1.0  0.03184  0.68922  0.85100  1.0000
  S   S133      1.0  0.99112  0.94219  0.83441  1.0000
  H   H536      1.0  0.57910  0.53492  0.82428  1.0000
  H   H537      1.0  0.63031  0.64182  0.01959  1.0000
  H   H538      1.0  0.85837  0.91885  0.91066  1.0000
  H   H539      1.0  0.00998  0.83862  0.91559  1.0000
  H   H540      1.0  0.01106  0.65127  0.89982  1.0000
  H   H541      1.0  0.90589  0.99573  0.80495  1.0000
  S   S134      1.0  0.75388  0.94418  0.77287  1.0000
  H   H542      1.0  0.66020  0.68396  0.81922  1.0000
  H   H543      1.0  0.85009  0.86359  0.86051  1.0000
  H   H544      1.0  0.91146  0.89379  0.86529  1.0000
  H   H545      1.0  0.90230  0.87923  0.92088  1.0000
  Fe  Fe66      1.0  0.96210  0.98854  0.84470  1.0000
  H   H546      1.0  0.90956  0.76891  0.85544  1.0000
  C   C343      1.0  0.99326  0.85168  0.88567  1.0000
  H   H547      1.0  0.82645  0.54687  0.00874  1.0000
  H   H548      1.0  0.87844  0.83122  0.86789  1.0000
  N   N35       1.0  0.00790  0.67949  0.87090  1.0000
  N   N36       1.0  0.86846  0.87003  0.89208  1.0000
  H   H549      1.0  0.55126  0.56821  0.81819  1.0000
  Fe  Fe67      1.0  0.87559  0.64619  0.90942  1.0000
  S   S135      1.0  0.84650  0.57237  0.89792  1.0000
  S   S136      1.0  0.88300  0.69642  0.88455  1.0000
  Fe  Fe68      1.0  0.88323  0.61845  0.95241  1.0000
  S   S137      1.0  0.85623  0.54296  0.94384  1.0000
  S   S138      1.0  0.90380  0.63611  0.98519  1.0000
  Fe  Fe69      1.0  0.90261  0.57104  0.91647  1.0000
  H   H550      1.0  0.81619  0.83221  0.91479  1.0000
  Fe  Fe70      1.0  0.80295  0.55164  0.92623  1.0000
  C   C344      1.0  0.02862  0.65947  0.88469  1.0000
  S   S139      1.0  0.93439  0.64629  0.92640  1.0000
  S   S140      1.0  0.82717  0.62556  0.93640  1.0000
  Fe  Fe71      1.0  0.67634  0.89619  0.77746  1.0000
  H   H551      1.0  0.94136  0.90298  0.89961  1.0000
  C   C345      1.0  0.86967  0.64997  0.00158  1.0000
  C   C346      1.0  0.83893  0.66413  0.99413  1.0000
  H   H552      1.0  0.67429  0.59988  0.80682  1.0000
  C   C347      1.0  0.90703  0.87341  0.90458  1.0000
  H   H553      1.0  0.83727  0.66878  0.97801  1.0000
  H   H554      1.0  0.78672  0.68351  0.00179  1.0000
  H   H555      1.0  0.58873  0.56208  0.79996  1.0000
  C   C348      1.0  0.58423  0.56692  0.81638  1.0000
  H   H556      1.0  0.83695  0.91227  0.88512  1.0000
  H   H557      1.0  0.79436  0.82556  0.88936  1.0000
  H   H558      1.0  0.90953  0.84080  0.90347  1.0000
  S   S141      1.0  0.54352  0.81020  0.78009  1.0000
  H   H559      1.0  0.66302  0.57423  0.83157  1.0000
  C   C349      1.0  0.98813  0.82335  0.90242  1.0000
  C   C350      1.0  0.76727  0.55045  0.98211  1.0000
  C   C351      1.0  0.82410  0.82911  0.89857  1.0000
  H   H560      1.0  0.64540  0.64736  0.85295  1.0000
  C   C352      1.0  0.96494  0.83186  0.86873  1.0000
  C   C353      1.0  0.93130  0.78411  0.86863  1.0000
  C   C354      1.0  0.92556  0.75599  0.88550  1.0000
  C   C355      1.0  0.95407  0.77563  0.90242  1.0000
  C   C356      1.0  0.95777  0.64570  0.86821  1.0000
  H   H561      1.0  0.89815  0.94472  0.88977  1.0000
  C   C357      1.0  0.86523  0.91324  0.89461  1.0000
  H   H562      1.0  0.94979  0.75416  0.91551  1.0000
  S   S142      1.0  0.03379  0.91193  0.88669  1.0000
  H   H563      1.0  0.82552  0.79593  0.89683  1.0000
  H   H564      1.0  0.69809  0.63657  0.82892  1.0000
  S   S143      1.0  0.94772  0.54584  0.90050  1.0000
  H   H565      1.0  0.80411  0.56921  0.97669  1.0000
  Fe  Fe72      1.0  0.02763  0.96064  0.86443  1.0000
  H   H566      1.0  0.76040  0.57627  0.99032  1.0000
  H   H567      1.0  0.02488  0.62593  0.87862  1.0000
  H   H568      1.0  0.85408  0.98953  0.77646  1.0000
  C   C358      1.0  0.54723  0.70119  0.82152  1.0000
  S   S144      1.0  0.99547  0.00319  0.87552  1.0000
  H   H569      1.0  0.53964  0.81286  0.84858  1.0000
  H   H570      1.0  0.74903  0.54571  0.89099  1.0000
  C   C359      1.0  0.01323  0.72355  0.87969  1.0000
  H   H571      1.0  0.99523  0.71733  0.89466  1.0000
  H   H572      1.0  0.99778  0.73952  0.86971  1.0000
  H   H573      1.0  0.74468  0.53883  0.96846  1.0000
  H   H574      1.0  0.01694  0.70436  0.84027  1.0000
  H   H575      1.0  0.69958  0.54326  0.86255  1.0000
  H   H576      1.0  0.02834  0.65660  0.84397  1.0000
  C   C360      1.0  0.78881  0.52810  0.01320  1.0000
