data_image0
_chemical_formula_structural       HCH4SHCH2FeSC6H5CHSCFeHSH4FeHC2H3NH2C2NCH8SHCHFeS2FeCFeHS2CSH3C2H3CHCSH2SCFeH2SH3C2NHC3H2SHC2NFeH4SH2NHC2H9CH4CHNC2H3CH3CNHFeC3FeSH4NCH5CH3C2HCH2CHFeCHCH2SH4SHS2HC2HNH3FeS2C6H4CHSFeC2FeSHSHNH2CHC2FeH2CHCFeHCHCH5SCH2S2CHCHS2FeSFe2S2HC6H3SFeC5HCSH2S2H3FeSCH3C2H2SFeS2FeS2Fe2S4CHC6H4C2HCNH2SHC6H4CHNH4CH2SFeH3NH5C2H2CHCH2CH3C3H6CH5C2HC2HSH4CH2SH2SFeSCFeSFeS2H2SH2SC6H3SHCFeCH2S2HC6H3SCHCFeSNCH2NFeC2H3CH2NSCHSC3HSHC2H3C2H4FeCH2SH4C2SH2CFeH4SH2CHSH2FeCH2C3HC3SFeSCFeSFeHCHC8H4SH2CH2CH2C2H2NHCH4CH2CH2SHFeHFeH2CHC2HSH2CHCHC2H3SHNHC2H4CHSCHC2HCH3S2FeS2FeSFeSFeHS2CHC2HCSC2H3SC3NH4CH2NC2H5FeSHFeH2C2HCH4SNCSHCH3FeCH5NH5C3H3CH3CH3SH3CHC3H3C3H4C2H4CH2CHCS2FeSFeS2CHCNH2NHC5H3C2H2CHSH3CFeSC5HCHCHC2H3CHNCH2SH5CH3C2H2SHS2C2FeNCH3CHC4FeSH2CHCH4NCH2C3HCSCH3NCHCHSFeCH2NCH2CHCFeHSHSC5H4CHC3H4CHC2H5CHCSHCSHCHCH2CH7NH3Fe2SFeSHS2CH3CHC3H3FeHC2HSHC2H4SH2CHCNHCHSHCSCHC2H2FeHSCHCHC3SHFeSCH2CHC2H2NHSH10CH3CNSH5CHSH7SHSC2S2FeS2HFeC6H2NHCHS2HSCFeHSCHFeH2CSH3FeHSNSC2HFeS2HFeCHFeS2H3FeSHSC7H6CHCSH2FeHNHCHSHCH4CHCH2CH2CH2CNFeHCH3SHCHCFeHC2H2CH5C3FeH2FeH2SCSC2HCFe2H2FeS2C2H5FeSFeSH3C6H5SCHCHC2H2CHCHCH2CH3N2H4CH2CH4CSHS3HCHCHCH2SNH2C2H2SCFeCHC3SH4CH2CHSC2SCSCFeNSFeHFe2SH2S2FeHC6H2CH2C2SFeH3CH3NH4SHCHCHFeCH2SC5HSHSNH2C7H4CH5CH2NHCSH2C2H3C3HC2FeHC2H7SCH2SH3SHCH3C2HNC5H3CHNHSCFeSH3CH3SCH2FeHCH2FeHSHC2SH4SFeSCFeSFeSH3CH2NHC3H6C2HCHCH2C2HCSCH3CH3CSCHFeS2C5HCH2CH2C3H3CSHCFeH4CHNCH2SCHS
_chemical_formula_sum              "H768 C480 S192 Fe96 N48"
_cell_length_a       51.4144
_cell_length_b       40.6482
_cell_length_c       27.6263
_cell_angle_alpha    90.0406
_cell_angle_beta     90.0618
_cell_angle_gamma    90.0491

_space_group_name_H-M_alt    "P 1"
_space_group_IT_number       1

loop_
  _space_group_symop_operation_xyz
  'x, y, z'

loop_
  _atom_site_type_symbol
  _atom_site_label
  _atom_site_symmetry_multiplicity
  _atom_site_fract_x
  _atom_site_fract_y
  _atom_site_fract_z
  _atom_site_occupancy
  H   H1        1.0  0.24247  0.42671  0.22984  1.0000
  C   C1        1.0  0.30266  0.27805  0.22581  1.0000
  H   H2        1.0  0.36440  0.16618  0.31640  1.0000
  H   H3        1.0  0.16847  0.18644  0.14422  1.0000
  H   H4        1.0  0.29432  0.25487  0.24069  1.0000
  H   H5        1.0  0.31188  0.49807  0.23326  1.0000
  S   S1        1.0  0.27603  0.18852  0.23100  1.0000
  H   H6        1.0  0.35250  0.25843  0.21887  1.0000
  C   C2        1.0  0.12080  0.55662  0.32456  1.0000
  H   H7        1.0  0.12954  0.21148  0.47929  1.0000
  H   H8        1.0  0.12121  0.41004  0.22301  1.0000
  Fe  Fe1       1.0  0.14628  0.25558  0.27771  1.0000
  S   S2        1.0  0.17298  0.23557  0.33449  1.0000
  C   C3        1.0  0.20179  0.22284  0.30618  1.0000
  C   C4        1.0  0.21245  0.24128  0.26828  1.0000
  C   C5        1.0  0.23524  0.23060  0.24517  1.0000
  C   C6        1.0  0.24723  0.20128  0.25957  1.0000
  C   C7        1.0  0.23628  0.18263  0.29688  1.0000
  C   C8        1.0  0.21382  0.19362  0.32064  1.0000
  H   H9        1.0  0.20337  0.26408  0.25733  1.0000
  H   H10       1.0  0.24347  0.24505  0.21612  1.0000
  H   H11       1.0  0.24493  0.15962  0.30738  1.0000
  H   H12       1.0  0.20547  0.17909  0.34952  1.0000
  H   H13       1.0  0.29286  0.50519  0.12933  1.0000
  C   C9        1.0  0.32853  0.30313  0.16294  1.0000
  H   H14       1.0  0.29149  0.23392  0.15624  1.0000
  S   S3        1.0  0.15556  0.25504  0.19852  1.0000
  C   C10       1.0  0.33883  0.24843  0.19122  1.0000
  Fe  Fe2       1.0  0.29070  0.14028  0.25980  1.0000
  H   H15       1.0  0.31306  0.32141  0.15451  1.0000
  S   S4        1.0  0.12976  0.30655  0.27738  1.0000
  H   H16       1.0  0.19033  0.43289  0.20286  1.0000
  H   H17       1.0  0.15101  0.47421  0.14571  1.0000
  H   H18       1.0  0.13207  0.25564  0.47974  1.0000
  H   H19       1.0  0.12111  0.42868  0.16407  1.0000
  Fe  Fe3       1.0  0.13508  0.30361  0.19714  1.0000
  H   H20       1.0  0.33116  0.22451  0.20488  1.0000
  C   C11       1.0  0.27415  0.43267  0.17974  1.0000
  C   C12       1.0  0.28194  0.48816  0.15143  1.0000
  H   H21       1.0  0.27931  0.40686  0.18011  1.0000
  H   H22       1.0  0.15074  0.43092  0.28657  1.0000
  H   H23       1.0  0.32953  0.49145  0.28833  1.0000
  N   N1        1.0  0.31752  0.27182  0.18094  1.0000
  H   H24       1.0  0.28617  0.29523  0.21930  1.0000
  H   H25       1.0  0.31522  0.28898  0.25444  1.0000
  C   C13       1.0  0.25330  0.44388  0.20771  1.0000
  C   C14       1.0  0.15340  0.45374  0.26492  1.0000
  N   N2        1.0  0.15038  0.44721  0.21256  1.0000
  C   C15       1.0  0.28876  0.45484  0.15225  1.0000
  H   H26       1.0  0.33312  0.13056  0.47785  1.0000
  H   H27       1.0  0.28365  0.27452  0.13534  1.0000
  H   H28       1.0  0.29383  0.58475  0.26167  1.0000
  H   H29       1.0  0.21888  0.15509  0.10751  1.0000
  H   H30       1.0  0.16833  0.41742  0.15750  1.0000
  H   H31       1.0  0.16848  0.39957  0.21661  1.0000
  H   H32       1.0  0.31069  0.25264  0.10951  1.0000
  H   H33       1.0  0.34019  0.29932  0.12942  1.0000
  S   S5        1.0  0.31545  0.44020  0.11959  1.0000
  H   H34       1.0  0.27319  0.51505  0.27944  1.0000
  C   C16       1.0  0.17029  0.42329  0.19673  1.0000
  H   H35       1.0  0.12271  0.53588  0.39616  1.0000
  Fe  Fe4       1.0  0.21274  0.54458  0.24572  1.0000
  S   S6        1.0  0.23419  0.58490  0.20753  1.0000
  S   S7        1.0  0.22142  0.49055  0.24529  1.0000
  Fe  Fe5       1.0  0.17375  0.59143  0.29041  1.0000
  C   C17       1.0  0.27026  0.60203  0.38334  1.0000
  Fe  Fe6       1.0  0.19440  0.60420  0.19024  1.0000
  H   H36       1.0  0.32229  0.57292  0.22844  1.0000
  S   S8        1.0  0.17331  0.56145  0.22264  1.0000
  S   S9        1.0  0.21137  0.57060  0.31699  1.0000
  C   C18       1.0  0.13016  0.23372  0.45584  1.0000
  S   S10       1.0  0.32249  0.59409  0.49197  1.0000
  H   H37       1.0  0.31821  0.57539  0.33748  1.0000
  H   H38       1.0  0.14824  0.23219  0.43359  1.0000
  H   H39       1.0  0.13892  0.47205  0.27786  1.0000
  C   C19       1.0  0.28380  0.59090  0.42427  1.0000
  C   C20       1.0  0.30694  0.60629  0.43843  1.0000
  H   H40       1.0  0.25193  0.59092  0.37408  1.0000
  H   H41       1.0  0.27588  0.57111  0.44595  1.0000
  H   H42       1.0  0.29195  0.55266  0.21701  1.0000
  C   C21       1.0  0.26063  0.49925  0.17865  1.0000
  H   H43       1.0  0.25509  0.52476  0.17726  1.0000
  C   C22       1.0  0.30437  0.56330  0.24600  1.0000
  S   S11       1.0  0.13930  0.59123  0.33978  1.0000
  H   H44       1.0  0.29020  0.50867  0.33531  1.0000
  H   H45       1.0  0.17302  0.46374  0.27339  1.0000
  S   S12       1.0  0.14707  0.34589  0.15057  1.0000
  C   C23       1.0  0.32420  0.51037  0.26100  1.0000
  Fe  Fe7       1.0  0.22963  0.61270  0.27726  1.0000
  H   H46       1.0  0.34628  0.56221  0.30439  1.0000
  H   H47       1.0  0.33240  0.53599  0.34992  1.0000
  S   S13       1.0  0.18246  0.61964  0.11558  1.0000
  H   H48       1.0  0.12645  0.26557  0.37175  1.0000
  H   H49       1.0  0.34244  0.51830  0.24273  1.0000
  H   H50       1.0  0.27526  0.54766  0.32268  1.0000
  C   C24       1.0  0.12421  0.43361  0.20329  1.0000
  C   C25       1.0  0.30006  0.25764  0.14382  1.0000
  N   N3        1.0  0.31062  0.53856  0.28345  1.0000
  H   H51       1.0  0.13905  0.49699  0.19690  1.0000
  C   C26       1.0  0.32762  0.55366  0.32050  1.0000
  C   C27       1.0  0.28629  0.52698  0.30630  1.0000
  C   C28       1.0  0.24662  0.47719  0.20748  1.0000
  H   H52       1.0  0.15585  0.15055  0.17330  1.0000
  H   H53       1.0  0.29989  0.13925  0.49402  1.0000
  S   S14       1.0  0.33309  0.12835  0.25248  1.0000
  H   H54       1.0  0.34184  0.31447  0.19008  1.0000
  C   C29       1.0  0.15353  0.47822  0.18529  1.0000
  C   C30       1.0  0.17304  0.16043  0.15351  1.0000
  N   N4        1.0  0.17860  0.14082  0.10962  1.0000
  Fe  Fe8       1.0  0.34845  0.47581  0.11234  1.0000
  H   H55       1.0  0.35058  0.24334  0.15819  1.0000
  H   H56       1.0  0.17325  0.48890  0.19092  1.0000
  H   H57       1.0  0.18984  0.16068  0.17899  1.0000
  H   H58       1.0  0.12283  0.20444  0.36986  1.0000
  S   S15       1.0  0.34674  0.53050  0.10271  1.0000
  H   H59       1.0  0.29070  0.56822  0.97799  1.0000
  H   H60       1.0  0.32264  0.57100  0.95151  1.0000
  N   N5        1.0  0.31252  0.61129  0.99841  1.0000
  H   H61       1.0  0.27659  0.61027  0.03832  1.0000
  C   C31       1.0  0.36472  0.59156  0.74279  1.0000
  C   C32       1.0  0.14394  0.59533  0.98769  1.0000
  H   H62       1.0  0.13827  0.13023  0.09504  1.0000
  H   H63       1.0  0.30517  0.60186  0.07380  1.0000
  H   H64       1.0  0.13259  0.37100  0.05682  1.0000
  H   H65       1.0  0.15757  0.59321  0.01894  1.0000
  H   H66       1.0  0.15545  0.60318  0.95550  1.0000
  H   H67       1.0  0.31925  0.56010  0.01374  1.0000
  H   H68       1.0  0.34898  0.60533  0.03570  1.0000
  H   H69       1.0  0.20598  0.14071  0.05081  1.0000
  H   H70       1.0  0.15921  0.12696  0.04345  1.0000
  C   C33       1.0  0.31111  0.57614  0.98479  1.0000
  H   H71       1.0  0.19738  0.18087  0.07288  1.0000
  H   H72       1.0  0.29109  0.13286  0.06898  1.0000
  H   H73       1.0  0.35045  0.59843  0.77137  1.0000
  H   H74       1.0  0.36502  0.56426  0.74001  1.0000
  C   C34       1.0  0.29747  0.61683  0.04325  1.0000
  H   H75       1.0  0.35700  0.60138  0.70799  1.0000
  N   N6        1.0  0.12276  0.61886  0.99818  1.0000
  C   C35       1.0  0.15567  0.14123  0.07722  1.0000
  C   C36       1.0  0.33996  0.62062  0.00671  1.0000
  H   H76       1.0  0.35188  0.61696  0.97350  1.0000
  H   H77       1.0  0.15026  0.16675  0.06667  1.0000
  H   H78       1.0  0.13615  0.57029  0.98019  1.0000
  C   C37       1.0  0.20123  0.15503  0.08409  1.0000
  H   H79       1.0  0.28053  0.62641  0.95320  1.0000
  H   H80       1.0  0.12206  0.60803  0.07446  1.0000
  H   H81       1.0  0.27913  0.73137  0.43038  1.0000
  C   C38       1.0  0.36160  0.81558  0.53521  1.0000
  N   N7        1.0  0.20659  0.76689  0.11069  1.0000
  H   H82       1.0  0.33510  0.64361  0.42066  1.0000
  Fe  Fe9       1.0  0.32484  0.71075  0.55176  1.0000
  C   C39       1.0  0.32187  0.06504  0.11314  1.0000
  C   C40       1.0  0.26172  0.67820  0.47712  1.0000
  C   C41       1.0  0.23335  0.72540  0.47718  1.0000
  Fe  Fe10      1.0  0.33348  0.63810  0.53665  1.0000
  S   S16       1.0  0.30058  0.75328  0.52687  1.0000
  H   H83       1.0  0.30729  0.11783  0.43879  1.0000
  H   H84       1.0  0.23546  0.66234  0.39621  1.0000
  H   H85       1.0  0.28272  0.01980  0.23773  1.0000
  H   H86       1.0  0.31157  0.66261  0.34760  1.0000
  N   N8        1.0  0.24621  0.70052  0.44636  1.0000
  C   C42       1.0  0.19424  0.79887  0.12175  1.0000
  H   H87       1.0  0.22028  0.71370  0.50428  1.0000
  H   H88       1.0  0.26777  0.94329  0.16832  1.0000
  H   H89       1.0  0.27330  0.69914  0.38716  1.0000
  H   H90       1.0  0.31874  0.06977  0.57446  1.0000
  H   H91       1.0  0.27125  0.65871  0.45532  1.0000
  C   C43       1.0  0.23468  0.01218  0.20067  1.0000
  H   H92       1.0  0.30711  0.11144  0.57312  1.0000
  H   H93       1.0  0.25265  0.73464  0.38808  1.0000
  H   H94       1.0  0.21303  0.66821  0.44510  1.0000
  C   C44       1.0  0.31965  0.09334  0.55403  1.0000
  C   C45       1.0  0.31698  0.63205  0.41055  1.0000
  H   H95       1.0  0.22151  0.74279  0.45526  1.0000
  C   C46       1.0  0.26357  0.71717  0.41144  1.0000
  H   H96       1.0  0.27738  0.69183  0.49638  1.0000
  H   H97       1.0  0.22821  0.72914  0.14734  1.0000
  C   C47       1.0  0.22634  0.68130  0.41984  1.0000
  H   H98       1.0  0.24953  0.66579  0.50493  1.0000
  Fe  Fe11      1.0  0.34754  0.99846  0.58393  1.0000
  C   C48       1.0  0.31955  0.78906  0.52745  1.0000
  H   H99       1.0  0.27078  0.09345  0.52021  1.0000
  C   C49       1.0  0.30369  0.64269  0.36905  1.0000
  H   H100      1.0  0.32856  0.04062  0.49801  1.0000
  H   H101      1.0  0.28942  0.99362  0.13728  1.0000
  S   S17       1.0  0.27743  0.09281  0.22714  1.0000
  H   H102      1.0  0.28273  0.05196  0.52014  1.0000
  H   H103      1.0  0.29436  0.97952  0.22319  1.0000
  H   H104      1.0  0.27566  0.03312  0.15051  1.0000
  H   H105      1.0  0.26738  0.98472  0.26425  1.0000
  S   S18       1.0  0.24465  0.04135  0.32420  1.0000
  H   H106      1.0  0.22463  0.00242  0.23337  1.0000
  S   S19       1.0  0.33626  0.05034  0.16618  1.0000
  S   S20       1.0  0.31895  0.05636  0.30096  1.0000
  H   H107      1.0  0.22057  0.01202  0.17006  1.0000
  C   C50       1.0  0.32259  0.84863  0.52919  1.0000
  C   C51       1.0  0.27647  0.99412  0.23037  1.0000
  H   H108      1.0  0.31329  0.87243  0.52758  1.0000
  N   N9        1.0  0.31146  0.08875  0.50318  1.0000
  H   H109      1.0  0.24206  0.94664  0.21241  1.0000
  H   H110      1.0  0.34948  0.07351  0.47960  1.0000
  H   H111      1.0  0.25830  0.00428  0.11313  1.0000
  Fe  Fe12      1.0  0.29625  0.96678  0.56103  1.0000
  S   S21       1.0  0.25668  0.97270  0.52810  1.0000
  S   S22       1.0  0.33420  0.96794  0.52102  1.0000
  C   C52       1.0  0.25442  0.99059  0.47040  1.0000
  C   C53       1.0  0.27637  0.00247  0.44603  1.0000
  C   C54       1.0  0.27360  0.01824  0.40102  1.0000
  C   C55       1.0  0.24892  0.02152  0.38004  1.0000
  C   C56       1.0  0.22714  0.00887  0.40387  1.0000
  C   C57       1.0  0.22986  0.99372  0.44909  1.0000
  H   H112      1.0  0.29539  0.99981  0.46200  1.0000
  H   H113      1.0  0.29053  0.02763  0.38255  1.0000
  H   H114      1.0  0.20804  0.01129  0.38777  1.0000
  H   H115      1.0  0.21285  0.98450  0.46774  1.0000
  C   C58       1.0  0.28443  0.07632  0.50185  1.0000
  H   H116      1.0  0.17168  0.73846  0.12099  1.0000
  S   S23       1.0  0.35125  0.68259  0.50240  1.0000
  Fe  Fe13      1.0  0.31948  0.07902  0.22746  1.0000
  C   C59       1.0  0.31293  0.12057  0.47748  1.0000
  C   C60       1.0  0.30757  0.81992  0.52533  1.0000
  Fe  Fe14      1.0  0.32872  0.10708  0.32683  1.0000
  S   S24       1.0  0.30450  0.66621  0.58089  1.0000
  H   H117      1.0  0.23608  0.95658  0.15002  1.0000
  S   S25       1.0  0.26320  0.64309  0.30507  1.0000
  H   H118      1.0  0.35599  0.76314  0.53257  1.0000
  N   N10       1.0  0.25819  0.99279  0.18911  1.0000
  H   H119      1.0  0.22944  0.65008  0.15226  1.0000
  H   H120      1.0  0.17894  0.79632  0.14996  1.0000
  C   C61       1.0  0.25071  0.95826  0.17971  1.0000
  H   H121      1.0  0.31542  0.11387  0.14128  1.0000
  C   C62       1.0  0.32891  0.06483  0.47933  1.0000
  C   C63       1.0  0.31244  0.09730  0.11114  1.0000
  Fe  Fe15      1.0  0.27781  0.07395  0.30321  1.0000
  H   H122      1.0  0.32337  0.06077  0.44081  1.0000
  H   H123      1.0  0.23962  0.03827  0.20869  1.0000
  C   C64       1.0  0.27091  0.00659  0.14566  1.0000
  H   H124      1.0  0.24790  0.74027  0.49766  1.0000
  C   C65       1.0  0.34658  0.78690  0.53185  1.0000
  Fe  Fe16      1.0  0.34451  0.92500  0.56810  1.0000
  H   H125      1.0  0.27746  0.07318  0.46395  1.0000
  C   C66       1.0  0.34959  0.84644  0.53474  1.0000
  H   H126      1.0  0.28667  0.82167  0.52151  1.0000
  C   C67       1.0  0.21887  0.75337  0.15479  1.0000
  H   H127      1.0  0.23422  0.77013  0.16901  1.0000
  H   H128      1.0  0.20876  0.81720  0.13478  1.0000
  H   H129      1.0  0.21431  0.69731  0.39607  1.0000
  H   H130      1.0  0.34013  0.10222  0.55631  1.0000
  H   H131      1.0  0.20434  0.74945  0.18408  1.0000
  S   S26       1.0  0.36253  0.63465  0.59689  1.0000
  C   C68       1.0  0.22876  0.65317  0.11339  1.0000
  H   H132      1.0  0.26372  0.68260  0.11052  1.0000
  H   H133      1.0  0.20100  0.10535  0.14963  1.0000
  S   S27       1.0  0.35885  0.11283  0.38459  1.0000
  S   S28       1.0  0.19162  0.63610  0.25632  1.0000
  C   C69       1.0  0.18449  0.10654  0.12362  1.0000
  H   H134      1.0  0.16731  0.09448  0.14062  1.0000
  C   C70       1.0  0.28017  0.62789  0.35556  1.0000
  H   H135      1.0  0.36740  0.11152  0.16504  1.0000
  S   S29       1.0  0.28737  0.12278  0.33671  1.0000
  S   S30       1.0  0.32796  0.66135  0.71703  1.0000
  Fe  Fe17      1.0  0.19380  0.71576  0.89400  1.0000
  S   S31       1.0  0.19999  0.73079  0.97069  1.0000
  Fe  Fe18      1.0  0.23667  0.76018  0.85741  1.0000
  Fe  Fe19      1.0  0.24252  0.72668  0.95395  1.0000
  S   S32       1.0  0.26777  0.70356  0.01076  1.0000
  S   S33       1.0  0.23609  0.70698  0.87931  1.0000
  H   H136      1.0  0.35633  0.02261  0.67131  1.0000
  C   C71       1.0  0.30849  0.69396  0.73732  1.0000
  C   C72       1.0  0.30444  0.69848  0.78694  1.0000
  C   C73       1.0  0.28886  0.72450  0.80336  1.0000
  C   C74       1.0  0.27700  0.74573  0.77017  1.0000
  C   C75       1.0  0.28119  0.74131  0.72055  1.0000
  C   C76       1.0  0.29708  0.71561  0.70414  1.0000
  H   H137      1.0  0.31338  0.68195  0.81269  1.0000
  H   H138      1.0  0.28621  0.72829  0.84176  1.0000
  H   H139      1.0  0.27169  0.75725  0.69473  1.0000
  S   S34       1.0  0.24693  0.77923  0.93118  1.0000
  Fe  Fe20      1.0  0.20379  0.78183  0.94185  1.0000
  C   C77       1.0  0.20800  0.64004  0.08673  1.0000
  C   C78       1.0  0.32685  0.80481  0.72105  1.0000
  C   C79       1.0  0.24663  0.67646  0.03981  1.0000
  C   C80       1.0  0.22653  0.66213  0.01314  1.0000
  C   C81       1.0  0.13389  0.65201  0.00581  1.0000
  H   H140      1.0  0.22556  0.66544  0.97431  1.0000
  C   C82       1.0  0.13229  0.68901  0.87805  1.0000
  S   S35       1.0  0.16488  0.67659  0.87466  1.0000
  H   H141      1.0  0.18981  0.09148  0.09148  1.0000
  H   H142      1.0  0.32541  0.86983  0.74156  1.0000
  S   S36       1.0  0.36155  0.95568  0.62732  1.0000
  S   S37       1.0  0.25716  0.77797  0.79066  1.0000
  H   H143      1.0  0.35029  0.82128  0.63745  1.0000
  H   H144      1.0  0.30730  0.05135  0.91646  1.0000
  H   H145      1.0  0.30003  0.71220  0.66577  1.0000
  Fe  Fe21      1.0  0.33549  0.66761  0.63780  1.0000
  S   S38       1.0  0.19362  0.76743  0.86575  1.0000
  C   C83       1.0  0.29894  0.82074  0.65473  1.0000
  H   H146      1.0  0.33800  0.86247  0.63450  1.0000
  H   H147      1.0  0.21803  0.78174  0.03929  1.0000
  H   H148      1.0  0.28521  0.04193  0.78918  1.0000
  C   C84       1.0  0.20716  0.64415  0.03658  1.0000
  C   C85       1.0  0.29872  0.10808  0.07026  1.0000
  H   H149      1.0  0.31022  0.79778  0.74466  1.0000
  H   H150      1.0  0.28104  0.81368  0.67486  1.0000
  S   S39       1.0  0.18243  0.82200  0.98090  1.0000
  Fe  Fe22      1.0  0.23224  0.98764  0.00886  1.0000
  S   S40       1.0  0.19458  0.98617  0.96787  1.0000
  S   S41       1.0  0.24824  0.94436  0.04972  1.0000
  Fe  Fe23      1.0  0.24446  0.05734  0.97689  1.0000
  S   S42       1.0  0.20803  0.06216  0.93330  1.0000
  S   S43       1.0  0.27333  0.09802  0.98462  1.0000
  Fe  Fe24      1.0  0.18901  0.03738  0.99658  1.0000
  Fe  Fe25      1.0  0.21733  0.01074  0.90880  1.0000
  S   S44       1.0  0.21378  0.99564  0.83072  1.0000
  S   S45       1.0  0.22494  0.03679  0.04254  1.0000
  S   S46       1.0  0.25554  0.00821  0.94755  1.0000
  S   S47       1.0  0.31865  0.94554  0.73833  1.0000
  C   C86       1.0  0.21403  0.90074  0.80806  1.0000
  H   H151      1.0  0.23638  0.74815  0.06368  1.0000
  C   C87       1.0  0.24273  0.98106  0.80493  1.0000
  C   C88       1.0  0.24617  0.98252  0.75472  1.0000
  C   C89       1.0  0.26941  0.97139  0.73378  1.0000
  C   C90       1.0  0.28907  0.95840  0.76308  1.0000
  C   C91       1.0  0.28531  0.95599  0.81304  1.0000
  C   C92       1.0  0.26222  0.96741  0.83391  1.0000
  H   H152      1.0  0.23099  0.99266  0.73202  1.0000
  H   H153      1.0  0.27204  0.97283  0.69500  1.0000
  H   H154      1.0  0.30035  0.94549  0.83569  1.0000
  H   H155      1.0  0.25943  0.96507  0.87232  1.0000
  C   C93       1.0  0.13039  0.06199  0.94523  1.0000
  C   C94       1.0  0.30325  0.05404  0.03423  1.0000
  H   H156      1.0  0.17813  0.87600  0.90482  1.0000
  C   C95       1.0  0.18185  0.88618  0.86800  1.0000
  N   N11       1.0  0.31509  0.05562  0.84013  1.0000
  H   H157      1.0  0.21962  0.90024  0.93052  1.0000
  H   H158      1.0  0.29924  0.03701  0.00515  1.0000
  S   S48       1.0  0.30871  0.00112  0.62029  1.0000
  H   H159      1.0  0.29299  0.85327  0.73916  1.0000
  C   C96       1.0  0.20103  0.85475  0.00363  1.0000
  C   C97       1.0  0.22808  0.85246  0.00822  1.0000
  C   C98       1.0  0.24252  0.87965  0.02442  1.0000
  C   C99       1.0  0.22997  0.90934  0.03508  1.0000
  C   C100      1.0  0.20290  0.91133  0.03166  1.0000
  C   C101      1.0  0.18844  0.88399  0.01636  1.0000
  H   H160      1.0  0.23799  0.83000  0.99893  1.0000
  H   H161      1.0  0.26349  0.87807  0.02704  1.0000
  H   H162      1.0  0.19304  0.93398  0.04085  1.0000
  H   H163      1.0  0.16749  0.88585  0.01326  1.0000
  C   C102      1.0  0.31784  0.04367  0.07421  1.0000
  H   H164      1.0  0.32673  0.01274  0.79978  1.0000
  N   N12       1.0  0.21000  0.88736  0.85724  1.0000
  H   H165      1.0  0.24200  0.78924  0.08506  1.0000
  H   H166      1.0  0.21585  0.93457  0.89066  1.0000
  H   H167      1.0  0.34321  0.81191  0.74528  1.0000
  H   H168      1.0  0.24223  0.85368  0.85243  1.0000
  C   C103      1.0  0.28741  0.05209  0.82643  1.0000
  H   H169      1.0  0.33750  0.07134  0.90193  1.0000
  H   H170      1.0  0.34909  0.08186  0.81581  1.0000
  S   S49       1.0  0.15335  0.05596  0.03454  1.0000
  Fe  Fe26      1.0  0.32152  0.95536  0.65865  1.0000
  H   H171      1.0  0.21808  0.84301  0.89673  1.0000
  H   H172      1.0  0.14788  0.05112  0.93058  1.0000
  H   H173      1.0  0.23511  0.90303  0.79937  1.0000
  N   N13       1.0  0.31967  0.83193  0.68805  1.0000
  H   H174      1.0  0.32499  0.01866  0.07586  1.0000
  H   H175      1.0  0.27698  0.03512  0.85135  1.0000
  H   H176      1.0  0.30524  0.79897  0.63316  1.0000
  H   H177      1.0  0.24450  0.90926  0.88730  1.0000
  H   H178      1.0  0.18483  0.80959  0.08893  1.0000
  C   C104      1.0  0.12803  0.06699  0.99510  1.0000
  C   C105      1.0  0.22309  0.90880  0.89295  1.0000
  H   H179      1.0  0.14542  0.66011  0.97383  1.0000
  H   H180      1.0  0.30717  0.09258  0.89410  1.0000
  C   C106      1.0  0.24816  0.67145  0.08983  1.0000
  H   H181      1.0  0.29352  0.84040  0.62852  1.0000
  C   C107      1.0  0.29369  0.08624  0.03225  1.0000
  H   H182      1.0  0.14708  0.65248  0.03782  1.0000
  H   H183      1.0  0.30410  0.88092  0.69304  1.0000
  C   C108      1.0  0.12427  0.71315  0.91097  1.0000
  H   H184      1.0  0.13851  0.72585  0.93297  1.0000
  H   H185      1.0  0.17125  0.87033  0.84168  1.0000
  H   H186      1.0  0.17303  0.91121  0.86672  1.0000
  C   C109      1.0  0.22098  0.85380  0.86010  1.0000
  C   C110      1.0  0.32804  0.07891  0.80683  1.0000
  C   C111      1.0  0.31013  0.86017  0.71673  1.0000
  H   H187      1.0  0.21163  0.83694  0.83346  1.0000
  H   H188      1.0  0.30330  0.65835  0.96726  1.0000
  H   H189      1.0  0.20536  0.92574  0.80437  1.0000
  H   H190      1.0  0.31902  0.10376  0.80864  1.0000
  H   H191      1.0  0.20496  0.88478  0.77999  1.0000
  H   H192      1.0  0.11999  0.65442  0.82359  1.0000
  C   C112      1.0  0.31690  0.06824  0.89026  1.0000
  H   H193      1.0  0.27704  0.07611  0.82787  1.0000
  H   H194      1.0  0.32685  0.07031  0.76861  1.0000
  H   H195      1.0  0.33283  0.78240  0.70064  1.0000
  H   H196      1.0  0.34178  0.64689  0.01762  1.0000
  H   H197      1.0  0.31896  0.00513  0.86210  1.0000
  C   C113      1.0  0.34270  0.84200  0.65973  1.0000
  C   C114      1.0  0.22665  0.77171  0.07310  1.0000
  H   H198      1.0  0.34906  0.02504  0.84648  1.0000
  C   C115      1.0  0.32804  0.02322  0.83703  1.0000
  C   C116      1.0  0.18664  0.74360  0.09290  1.0000
  H   H199      1.0  0.17631  0.75362  0.06063  1.0000
  S   S50       1.0  0.35377  0.71448  0.61242  1.0000
  H   H200      1.0  0.19544  0.71957  0.08234  1.0000
  H   H201      1.0  0.29819  0.64316  0.05442  1.0000
  H   H202      1.0  0.35876  0.85073  0.68349  1.0000
  H   H203      1.0  0.19148  0.63370  0.01564  1.0000
  C   C117      1.0  0.30158  0.63162  0.95896  1.0000
  H   H204      1.0  0.11838  0.67065  0.01178  1.0000
  H   H205      1.0  0.31183  0.62719  0.92410  1.0000
  S   S51       1.0  0.30535  0.92094  0.60312  1.0000
  H   H206      1.0  0.55907  0.42672  0.42520  1.0000
  H   H207      1.0  0.42097  0.55590  0.43647  1.0000
  S   S52       1.0  0.57562  0.26269  0.49982  1.0000
  Fe  Fe27      1.0  0.59249  0.24734  0.36563  1.0000
  S   S53       1.0  0.55142  0.24480  0.39243  1.0000
  C   C118      1.0  0.47464  0.18017  0.47649  1.0000
  Fe  Fe28      1.0  0.56212  0.29008  0.43425  1.0000
  S   S54       1.0  0.53277  0.33062  0.44260  1.0000
  Fe  Fe29      1.0  0.56818  0.21747  0.45590  1.0000
  S   S55       1.0  0.55047  0.17186  0.48877  1.0000
  S   S56       1.0  0.60219  0.29478  0.40315  1.0000
  H   H208      1.0  0.38411  0.14197  0.20078  1.0000
  H   H209      1.0  0.44305  0.61036  0.44582  1.0000
  S   S57       1.0  0.46115  0.25706  0.21090  1.0000
  H   H210      1.0  0.37955  0.58872  0.50114  1.0000
  H   H211      1.0  0.58761  0.13476  0.54052  1.0000
  S   S58       1.0  0.51842  0.49839  0.38898  1.0000
  C   C119      1.0  0.58203  0.24813  0.24391  1.0000
  C   C120      1.0  0.55573  0.24193  0.25342  1.0000
  C   C121      1.0  0.53712  0.24525  0.21640  1.0000
  C   C122      1.0  0.54474  0.25535  0.17003  1.0000
  C   C123      1.0  0.57093  0.26212  0.16084  1.0000
  C   C124      1.0  0.58956  0.25816  0.19751  1.0000
  H   H212      1.0  0.54983  0.23346  0.28876  1.0000
  H   H213      1.0  0.51699  0.23950  0.22370  1.0000
  H   H214      1.0  0.50317  0.59895  0.29847  1.0000
  S   S59       1.0  0.52177  0.25976  0.12323  1.0000
  H   H215      1.0  0.49347  0.39522  0.17364  1.0000
  C   C125      1.0  0.43312  0.13648  0.35370  1.0000
  Fe  Fe30      1.0  0.48298  0.23965  0.14553  1.0000
  C   C126      1.0  0.53863  0.17528  0.54842  1.0000
  H   H216      1.0  0.57935  0.37807  0.46106  1.0000
  H   H217      1.0  0.53630  0.36577  0.17076  1.0000
  S   S60       1.0  0.41568  0.20414  0.17903  1.0000
  S   S61       1.0  0.60604  0.24275  0.28869  1.0000
  H   H218      1.0  0.53897  0.22820  0.54990  1.0000
  C   C127      1.0  0.53886  0.41055  0.32764  1.0000
  C   C128      1.0  0.51883  0.41148  0.36185  1.0000
  C   C129      1.0  0.51672  0.38646  0.39656  1.0000
  C   C130      1.0  0.53460  0.36050  0.39704  1.0000
  C   C131      1.0  0.55425  0.35928  0.36218  1.0000
  C   C132      1.0  0.55650  0.38437  0.32773  1.0000
  H   H219      1.0  0.50467  0.43112  0.36100  1.0000
  H   H220      1.0  0.50126  0.38728  0.42309  1.0000
  H   H221      1.0  0.56779  0.33910  0.36164  1.0000
  S   S62       1.0  0.39618  0.29569  0.16211  1.0000
  C   C133      1.0  0.49405  0.32935  0.18495  1.0000
  H   H222      1.0  0.46952  0.38327  0.21733  1.0000
  C   C134      1.0  0.40811  0.33428  0.14371  1.0000
  Fe  Fe31      1.0  0.37955  0.53147  0.15626  1.0000
  S   S63       1.0  0.57379  0.60261  0.26790  1.0000
  N   N14       1.0  0.57177  0.42325  0.49914  1.0000
  C   C135      1.0  0.56713  0.44239  0.45450  1.0000
  H   H223      1.0  0.55312  0.46277  0.46095  1.0000
  H   H224      1.0  0.45676  0.23483  0.38955  1.0000
  N   N15       1.0  0.47921  0.20546  0.43899  1.0000
  Fe  Fe32      1.0  0.45255  0.20365  0.22228  1.0000
  C   C136      1.0  0.43041  0.16119  0.31881  1.0000
  C   C137      1.0  0.49084  0.38581  0.21113  1.0000
  H   H225      1.0  0.39493  0.60587  0.44865  1.0000
  H   H226      1.0  0.44118  0.56855  0.56520  1.0000
  H   H227      1.0  0.58539  0.45364  0.44052  1.0000
  C   C138      1.0  0.50059  0.34277  0.26871  1.0000
  H   H228      1.0  0.50726  0.36137  0.29525  1.0000
  H   H229      1.0  0.49817  0.40512  0.23635  1.0000
  N   N16       1.0  0.50456  0.35423  0.21847  1.0000
  S   S64       1.0  0.60844  0.21523  0.42469  1.0000
  C   C139      1.0  0.49323  0.23368  0.46053  1.0000
  H   H230      1.0  0.50371  0.30522  0.19051  1.0000
  S   S65       1.0  0.47752  0.18612  0.16106  1.0000
  C   C140      1.0  0.53265  0.35855  0.20898  1.0000
  C   C141      1.0  0.39203  0.36190  0.14698  1.0000
  C   C142      1.0  0.60906  0.13164  0.54155  1.0000
  H   H231      1.0  0.47967  0.33796  0.27628  1.0000
  S   S66       1.0  0.57477  0.51667  0.33823  1.0000
  H   H232      1.0  0.57213  0.46611  0.54465  1.0000
  C   C143      1.0  0.54666  0.41141  0.51856  1.0000
  C   C144      1.0  0.39693  0.60260  0.48846  1.0000
  H   H233      1.0  0.37215  0.35934  0.15913  1.0000
  H   H234      1.0  0.49331  0.17051  0.49109  1.0000
  H   H235      1.0  0.57696  0.26986  0.12511  1.0000
  C   C145      1.0  0.45400  0.21677  0.41941  1.0000
  C   C146      1.0  0.53493  0.20607  0.56977  1.0000
  H   H236      1.0  0.54369  0.33543  0.21598  1.0000
  H   H237      1.0  0.47290  0.32572  0.19093  1.0000
  H   H238      1.0  0.57198  0.38351  0.30124  1.0000
  H   H239      1.0  0.51153  0.31964  0.27607  1.0000
  Fe  Fe33      1.0  0.42655  0.25617  0.16150  1.0000
  C   C147      1.0  0.38353  0.15732  0.32597  1.0000
  H   H240      1.0  0.40341  0.19164  0.27954  1.0000
  H   H241      1.0  0.50852  0.61419  0.23854  1.0000
  S   S67       1.0  0.45831  0.17928  0.29423  1.0000
  H   H242      1.0  0.54109  0.37817  0.23214  1.0000
  H   H243      1.0  0.48547  0.16907  0.38368  1.0000
  H   H244      1.0  0.51448  0.18330  0.41249  1.0000
  H   H245      1.0  0.44190  0.22858  0.44789  1.0000
  C   C148      1.0  0.40561  0.17177  0.30514  1.0000
  C   C149      1.0  0.49497  0.19116  0.39949  1.0000
  S   S68       1.0  0.37734  0.57014  0.21394  1.0000
  H   H246      1.0  0.44259  0.19594  0.40418  1.0000
  H   H247      1.0  0.49658  0.25354  0.43347  1.0000
  C   C150      1.0  0.52306  0.53684  0.50620  1.0000
  Fe  Fe34      1.0  0.44137  0.19095  0.11655  1.0000
  H   H248      1.0  0.49796  0.20901  0.36945  1.0000
  H   H249      1.0  0.49699  0.33642  0.14645  1.0000
  H   H250      1.0  0.46341  0.19022  0.50757  1.0000
  H   H251      1.0  0.60334  0.45446  0.52180  1.0000
  S   S69       1.0  0.37839  0.47742  0.17132  1.0000
  H   H252      1.0  0.58852  0.43097  0.56967  1.0000
  H   H253      1.0  0.53338  0.43225  0.52718  1.0000
  C   C151      1.0  0.40161  0.39314  0.13499  1.0000
  H   H254      1.0  0.60986  0.26282  0.18987  1.0000
  S   S70       1.0  0.54109  0.44088  0.28301  1.0000
  H   H255      1.0  0.48227  0.24458  0.49131  1.0000
  H   H256      1.0  0.58196  0.59789  0.59436  1.0000
  Fe  Fe35      1.0  0.53795  0.49057  0.31743  1.0000
  C   C152      1.0  0.50266  0.53729  0.53953  1.0000
  H   H257      1.0  0.47588  0.60968  0.26176  1.0000
  H   H258      1.0  0.59460  0.59429  0.44131  1.0000
  C   C153      1.0  0.42748  0.39712  0.12052  1.0000
  C   C154      1.0  0.58864  0.39479  0.48803  1.0000
  C   C155      1.0  0.44380  0.60542  0.48536  1.0000
  H   H259      1.0  0.39183  0.13670  0.13782  1.0000
  C   C156      1.0  0.53224  0.14679  0.57450  1.0000
  C   C157      1.0  0.43362  0.33789  0.12682  1.0000
  C   C158      1.0  0.61043  0.60451  0.46440  1.0000
  S   S71       1.0  0.51957  0.53413  0.28105  1.0000
  Fe  Fe36      1.0  0.55382  0.52844  0.40665  1.0000
  S   S72       1.0  0.53722  0.57532  0.37870  1.0000
  C   C159      1.0  0.60707  0.59342  0.26538  1.0000
  Fe  Fe37      1.0  0.50342  0.54468  0.35489  1.0000
  S   S73       1.0  0.46542  0.56871  0.37298  1.0000
  Fe  Fe38      1.0  0.55474  0.56118  0.30788  1.0000
  H   H260      1.0  0.46367  0.15880  0.46161  1.0000
  C   C160      1.0  0.54870  0.53267  0.52194  1.0000
  H   H261      1.0  0.41891  0.60571  0.36323  1.0000
  C   C161      1.0  0.40245  0.56907  0.25683  1.0000
  C   C162      1.0  0.40094  0.59006  0.29684  1.0000
  C   C163      1.0  0.42034  0.58948  0.33233  1.0000
  C   C164      1.0  0.44157  0.56825  0.32767  1.0000
  C   C165      1.0  0.44337  0.54744  0.28739  1.0000
  C   C166      1.0  0.42365  0.54769  0.25202  1.0000
  C   C167      1.0  0.42260  0.58055  0.55411  1.0000
  C   C168      1.0  0.58454  0.44454  0.53549  1.0000
  H   H262      1.0  0.45964  0.53077  0.28388  1.0000
  H   H263      1.0  0.42481  0.53133  0.22117  1.0000
  H   H264      1.0  0.51879  0.53970  0.46833  1.0000
  H   H265      1.0  0.46256  0.59276  0.49299  1.0000
  S   S74       1.0  0.57352  0.52807  0.47908  1.0000
  H   H266      1.0  0.48286  0.53975  0.52702  1.0000
  H   H267      1.0  0.38887  0.41409  0.13736  1.0000
  C   C169      1.0  0.42202  0.55310  0.47652  1.0000
  H   H268      1.0  0.60078  0.54142  0.25673  1.0000
  H   H269      1.0  0.57389  0.52780  0.58398  1.0000
  C   C170      1.0  0.55405  0.53063  0.57153  1.0000
  H   H270      1.0  0.44033  0.53960  0.48469  1.0000
  H   H271      1.0  0.40542  0.53728  0.48780  1.0000
  C   C171      1.0  0.38625  0.13231  0.36039  1.0000
  C   C172      1.0  0.44340  0.36934  0.11571  1.0000
  H   H272      1.0  0.40635  0.56480  0.56714  1.0000
  H   H273      1.0  0.59640  0.19515  0.55213  1.0000
  N   N17       1.0  0.42134  0.58540  0.50112  1.0000
  H   H274      1.0  0.51257  0.22609  0.47469  1.0000
  C   C173      1.0  0.49613  0.61697  0.27136  1.0000
  H   H275      1.0  0.59267  0.37982  0.52093  1.0000
  H   H276      1.0  0.60764  0.40279  0.47273  1.0000
  H   H277      1.0  0.53648  0.39525  0.49213  1.0000
  H   H278      1.0  0.43844  0.12791  0.15840  1.0000
  C   C174      1.0  0.50788  0.53469  0.58892  1.0000
  H   H279      1.0  0.38464  0.60671  0.30052  1.0000
  H   H280      1.0  0.60755  0.59451  0.50158  1.0000
  C   C175      1.0  0.61495  0.56060  0.26278  1.0000
  H   H281      1.0  0.61635  0.13429  0.50384  1.0000
  H   H282      1.0  0.54942  0.39679  0.55222  1.0000
  S   S75       1.0  0.44004  0.43677  0.10949  1.0000
  H   H283      1.0  0.42128  0.60445  0.57365  1.0000
  Fe  Fe39      1.0  0.61463  0.26254  0.46439  1.0000
  H   H284      1.0  0.45226  0.12808  0.36420  1.0000
  Fe  Fe40      1.0  0.40697  0.47322  0.11023  1.0000
  H   H285      1.0  0.44578  0.31644  0.12246  1.0000
  H   H286      1.0  0.43070  0.13427  0.22107  1.0000
  C   C176      1.0  0.61747  0.18929  0.55569  1.0000
  H   H287      1.0  0.46316  0.37215  0.10309  1.0000
  C   C177      1.0  0.48728  0.46127  0.99596  1.0000
  C   C178      1.0  0.44544  0.12984  0.97692  1.0000
  H   H288      1.0  0.51572  0.23994  0.90543  1.0000
  S   S76       1.0  0.37688  0.46798  0.05219  1.0000
  H   H289      1.0  0.49217  0.26173  0.02870  1.0000
  H   H290      1.0  0.54430  0.23660  0.94290  1.0000
  C   C179      1.0  0.52477  0.22585  0.93559  1.0000
  H   H291      1.0  0.52339  0.27251  0.00525  1.0000
  C   C180      1.0  0.52526  0.20848  0.61702  1.0000
  H   H292      1.0  0.48498  0.18626  0.95317  1.0000
  C   C181      1.0  0.52111  0.20738  0.01829  1.0000
  C   C182      1.0  0.48272  0.21150  0.96798  1.0000
  H   H293      1.0  0.47197  0.22603  0.94034  1.0000
  H   H294      1.0  0.52617  0.18217  0.00595  1.0000
  H   H295      1.0  0.47990  0.46715  0.95911  1.0000
  S   S77       1.0  0.50680  0.18444  0.70224  1.0000
  H   H296      1.0  0.49497  0.27587  0.96730  1.0000
  N   N18       1.0  0.50827  0.22636  0.97940  1.0000
  H   H297      1.0  0.50842  0.20506  0.05077  1.0000
  C   C183      1.0  0.53359  0.53181  0.60512  1.0000
  C   C184      1.0  0.51901  0.18013  0.64323  1.0000
  H   H298      1.0  0.48258  0.14265  0.07708  1.0000
  H   H299      1.0  0.41012  0.56998  0.70724  1.0000
  H   H300      1.0  0.53948  0.21935  0.03050  1.0000
  H   H301      1.0  0.47015  0.20962  0.00067  1.0000
  C   C185      1.0  0.50452  0.26067  0.99568  1.0000
  H   H302      1.0  0.52778  0.20017  0.92233  1.0000
  S   S78       1.0  0.42738  0.15345  0.06300  1.0000
  C   C186      1.0  0.40094  0.59028  0.79864  1.0000
  H   H303      1.0  0.50778  0.50488  0.09392  1.0000
  C   C187      1.0  0.51142  0.51224  0.99724  1.0000
  C   C188      1.0  0.50353  0.48265  0.07171  1.0000
  H   H304      1.0  0.51580  0.53540  0.01715  1.0000
  C   C189      1.0  0.52245  0.14921  0.62190  1.0000
  H   H305      1.0  0.47236  0.44566  0.01416  1.0000
  H   H306      1.0  0.50368  0.51930  0.96096  1.0000
  H   H307      1.0  0.40296  0.56308  0.79555  1.0000
  S   S79       1.0  0.37947  0.55312  0.97959  1.0000
  S   S80       1.0  0.41119  0.52796  0.10089  1.0000
  Fe  Fe41      1.0  0.54077  0.57320  0.76749  1.0000
  S   S81       1.0  0.52298  0.52338  0.75525  1.0000
  S   S82       1.0  0.58351  0.58434  0.77118  1.0000
  Fe  Fe42      1.0  0.48861  0.60825  0.76734  1.0000
  S   S83       1.0  0.46641  0.56152  0.75732  1.0000
  Fe  Fe43      1.0  0.49405  0.54011  0.81107  1.0000
  S   S84       1.0  0.47903  0.50518  0.86736  1.0000
  Fe  Fe44      1.0  0.49690  0.54962  0.70283  1.0000
  H   H308      1.0  0.46038  0.51931  0.99595  1.0000
  S   S85       1.0  0.51358  0.58830  0.82727  1.0000
  S   S86       1.0  0.51768  0.59766  0.70949  1.0000
  C   C190      1.0  0.40541  0.53950  0.94359  1.0000
  H   H309      1.0  0.42839  0.60646  0.72018  1.0000
  C   C191      1.0  0.43411  0.49560  0.91767  1.0000
  C   C192      1.0  0.44957  0.51828  0.89273  1.0000
  H   H310      1.0  0.47095  0.53172  0.05486  1.0000
  C   C193      1.0  0.41227  0.50625  0.94352  1.0000
  S   S87       1.0  0.47088  0.14318  0.80865  1.0000
  C   C194      1.0  0.42005  0.56202  0.91653  1.0000
  C   C195      1.0  0.44226  0.55144  0.89132  1.0000
  H   H311      1.0  0.53007  0.49904  0.99104  1.0000
  H   H312      1.0  0.41490  0.58781  0.91678  1.0000
  H   H313      1.0  0.45424  0.56909  0.87228  1.0000
  S   S88       1.0  0.44899  0.24314  0.09489  1.0000
  C   C196      1.0  0.47761  0.13661  0.04016  1.0000
  C   C197      1.0  0.58307  0.59024  0.67173  1.0000
  C   C198      1.0  0.59483  0.59931  0.71549  1.0000
  N   N19       1.0  0.39084  0.60497  0.75341  1.0000
  H   H314      1.0  0.40186  0.60841  0.67848  1.0000
  H   H315      1.0  0.56744  0.57249  0.67162  1.0000
  H   H316      1.0  0.52243  0.23245  0.63328  1.0000
  H   H317      1.0  0.43922  0.46979  0.91773  1.0000
  C   C199      1.0  0.46816  0.51002  0.03088  1.0000
  H   H318      1.0  0.53761  0.52974  0.64342  1.0000
  H   H319      1.0  0.50513  0.44620  0.99121  1.0000
  N   N20       1.0  0.49262  0.49156  0.02395  1.0000
  C   C200      1.0  0.40852  0.59702  0.71296  1.0000
  C   C201      1.0  0.45180  0.13873  0.02442  1.0000
  H   H320      1.0  0.38787  0.59546  0.82982  1.0000
  H   H321      1.0  0.45285  0.49421  0.04733  1.0000
  H   H322      1.0  0.42053  0.60029  0.80790  1.0000
  H   H323      1.0  0.40072  0.48862  0.96328  1.0000
  H   H324      1.0  0.61261  0.12810  0.63878  1.0000
  Fe  Fe45      1.0  0.49606  0.13838  0.74251  1.0000
  S   S89       1.0  0.48203  0.53527  0.62983  1.0000
  H   H325      1.0  0.52193  0.46850  0.06799  1.0000
  Fe  Fe46      1.0  0.37832  0.52298  0.04791  1.0000
  H   H326      1.0  0.58822  0.15759  0.62178  1.0000
  H   H327      1.0  0.48964  0.46720  0.09272  1.0000
  C   C202      1.0  0.60960  0.15303  0.62314  1.0000
  C   C203      1.0  0.61538  0.62173  0.71525  1.0000
  H   H328      1.0  0.42545  0.13116  0.96473  1.0000
  C   C204      1.0  0.59154  0.60429  0.62799  1.0000
  H   H329      1.0  0.47551  0.62545  0.67269  1.0000
  H   H330      1.0  0.51745  0.12726  0.64186  1.0000
  H   H331      1.0  0.49057  0.63523  0.36439  1.0000
  H   H332      1.0  0.48677  0.69965  0.26904  1.0000
  S   S90       1.0  0.42134  0.68316  0.55725  1.0000
  N   N21       1.0  0.49730  0.65072  0.29105  1.0000
  C   C205      1.0  0.38661  0.12337  0.17161  1.0000
  S   S91       1.0  0.36838  0.88175  0.54482  1.0000
  H   H333      1.0  0.49687  0.67303  0.22059  1.0000
  C   C206      1.0  0.48606  0.67386  0.25551  1.0000
  H   H334      1.0  0.41339  0.06311  0.24071  1.0000
  H   H335      1.0  0.41320  0.10284  0.40129  1.0000
  H   H336      1.0  0.48230  0.67741  0.35231  1.0000
  Fe  Fe47      1.0  0.37820  0.68154  0.56603  1.0000
  C   C207      1.0  0.41106  0.12221  0.37471  1.0000
  H   H337      1.0  0.43303  0.98009  0.58744  1.0000
  H   H338      1.0  0.44424  0.62966  0.50409  1.0000
  H   H339      1.0  0.61286  0.10590  0.55312  1.0000
  H   H340      1.0  0.41456  0.08670  0.11031  1.0000
  H   H341      1.0  0.37979  0.06922  0.22564  1.0000
  N   N22       1.0  0.40657  0.09878  0.18463  1.0000
  H   H342      1.0  0.44731  0.09761  0.20253  1.0000
  H   H343      1.0  0.53397  0.64226  0.32660  1.0000
  H   H344      1.0  0.39688  0.09966  0.26039  1.0000
  H   H345      1.0  0.52646  0.68485  0.31612  1.0000
  H   H346      1.0  0.53663  0.65882  0.26700  1.0000
  C   C208      1.0  0.43186  0.11537  0.19201  1.0000
  C   C209      1.0  0.39884  0.08194  0.22982  1.0000
  C   C210      1.0  0.52471  0.65967  0.30067  1.0000
  H   H347      1.0  0.60780  0.63165  0.46670  1.0000
  H   H348      1.0  0.38250  0.81383  0.53923  1.0000
  H   H349      1.0  0.42388  0.05559  0.15323  1.0000
  C   C211      1.0  0.40894  0.07453  0.14495  1.0000
  H   H350      1.0  0.46534  0.66780  0.24761  1.0000
  H   H351      1.0  0.46947  0.01983  0.59005  1.0000
  H   H352      1.0  0.46025  0.63850  0.59095  1.0000
  C   C212      1.0  0.48230  0.65218  0.33665  1.0000
  H   H353      1.0  0.46170  0.64458  0.33089  1.0000
  H   H354      1.0  0.39618  0.62753  0.50511  1.0000
  H   H355      1.0  0.52660  0.67566  0.59177  1.0000
  S   S92       1.0  0.37229  0.04344  0.57612  1.0000
  H   H356      1.0  0.39017  0.06157  0.13835  1.0000
  H   H357      1.0  0.53483  0.12283  0.55811  1.0000
  H   H358      1.0  0.55997  0.66385  0.60099  1.0000
  C   C213      1.0  0.61056  0.83859  0.65767  1.0000
  H   H359      1.0  0.41945  0.96455  0.64280  1.0000
  C   C214      1.0  0.38040  0.05785  0.63393  1.0000
  C   C215      1.0  0.55237  0.72385  0.63877  1.0000
  C   C216      1.0  0.49098  0.11964  0.95959  1.0000
  H   H360      1.0  0.46328  0.01223  0.72388  1.0000
  H   H361      1.0  0.47677  0.96161  0.61458  1.0000
  H   H362      1.0  0.55367  0.05276  0.84141  1.0000
  C   C217      1.0  0.45459  0.66468  0.70753  1.0000
  C   C218      1.0  0.43658  0.69004  0.70053  1.0000
  C   C219      1.0  0.42629  0.69595  0.65425  1.0000
  H   H363      1.0  0.40829  0.65169  0.77047  1.0000
  H   H364      1.0  0.43011  0.70461  0.73103  1.0000
  H   H365      1.0  0.50255  0.70447  0.65600  1.0000
  H   H366      1.0  0.48248  0.03311  0.64715  1.0000
  C   C220      1.0  0.46433  0.02523  0.62834  1.0000
  C   C221      1.0  0.47126  0.96871  0.65211  1.0000
  H   H367      1.0  0.41186  0.71499  0.64911  1.0000
  H   H368      1.0  0.38361  0.65331  0.72459  1.0000
  H   H369      1.0  0.55595  0.65640  0.71150  1.0000
  H   H370      1.0  0.37085  0.03959  0.75281  1.0000
  C   C222      1.0  0.37010  0.04251  0.67501  1.0000
  H   H371      1.0  0.57245  0.03782  0.89152  1.0000
  H   H372      1.0  0.46306  0.94659  0.67024  1.0000
  C   C223      1.0  0.44576  0.00491  0.70272  1.0000
  H   H373      1.0  0.43195  0.02595  0.70410  1.0000
  C   C224      1.0  0.40657  0.09308  0.68551  1.0000
  S   S93       1.0  0.47758  0.06314  0.82094  1.0000
  S   S94       1.0  0.47405  0.09556  0.71143  1.0000
  Fe  Fe48      1.0  0.45131  0.09758  0.78076  1.0000
  S   S95       1.0  0.40840  0.08696  0.78420  1.0000
  Fe  Fe49      1.0  0.50198  0.06504  0.75429  1.0000
  S   S96       1.0  0.51955  0.01818  0.72763  1.0000
  S   S97       1.0  0.51601  0.11365  0.91746  1.0000
  C   C225      1.0  0.45358  0.65299  0.62133  1.0000
  H   H374      1.0  0.56480  0.69816  0.72535  1.0000
  C   C226      1.0  0.39663  0.07731  0.72651  1.0000
  N   N23       1.0  0.59359  0.04160  0.82447  1.0000
  H   H375      1.0  0.55538  0.74266  0.66760  1.0000
  H   H376      1.0  0.51861  0.71579  0.71143  1.0000
  N   N24       1.0  0.54329  0.69217  0.65901  1.0000
  H   H377      1.0  0.43648  0.98390  0.72187  1.0000
  C   C227      1.0  0.59026  0.01433  0.66617  1.0000
  C   C228      1.0  0.56687  0.00503  0.68811  1.0000
  C   C229      1.0  0.54669  0.02782  0.69257  1.0000
  C   C230      1.0  0.54927  0.05925  0.67265  1.0000
  C   C231      1.0  0.57239  0.06824  0.64935  1.0000
  H   H378      1.0  0.58745  0.99034  0.84039  1.0000
  H   H379      1.0  0.56487  0.98064  0.70338  1.0000
  H   H380      1.0  0.53361  0.07682  0.67593  1.0000
  C   C232      1.0  0.37816  0.05229  0.72125  1.0000
  C   C233      1.0  0.51773  0.69677  0.68246  1.0000
  H   H381      1.0  0.57699  0.07915  0.87014  1.0000
  H   H382      1.0  0.57435  0.09264  0.63430  1.0000
  C   C234      1.0  0.59313  0.04602  0.64718  1.0000
  H   H383      1.0  0.40642  0.09530  0.60750  1.0000
  S   S98       1.0  0.46599  0.65556  0.76605  1.0000
  H   H384      1.0  0.37459  0.64824  0.78674  1.0000
  H   H385      1.0  0.59913  0.08906  0.79154  1.0000
  H   H386      1.0  0.51708  0.12486  0.02011  1.0000
  C   C235      1.0  0.43501  0.67757  0.61460  1.0000
  Fe  Fe50      1.0  0.49936  0.10842  0.84269  1.0000
  S   S99       1.0  0.52633  0.10750  0.77916  1.0000
  C   C236      1.0  0.60670  0.87167  0.64572  1.0000
  C   C237      1.0  0.58746  0.00760  0.80914  1.0000
  C   C238      1.0  0.46504  0.12061  0.94437  1.0000
  C   C239      1.0  0.57335  0.05333  0.85838  1.0000
  C   C240      1.0  0.39843  0.08338  0.63919  1.0000
  H   H387      1.0  0.42044  0.11291  0.68954  1.0000
  C   C241      1.0  0.46267  0.64591  0.66783  1.0000
  H   H388      1.0  0.45074  0.04659  0.62833  1.0000
  C   C242      1.0  0.42880  0.98638  0.62585  1.0000
  H   H389      1.0  0.51091  0.67362  0.69979  1.0000
  C   C243      1.0  0.38928  0.64110  0.75910  1.0000
  C   C244      1.0  0.54096  0.66772  0.61955  1.0000
  H   H390      1.0  0.60614  0.99702  0.66451  1.0000
  H   H391      1.0  0.57125  0.72101  0.61943  1.0000
  H   H392      1.0  0.58150  0.67601  0.67864  1.0000
  C   C245      1.0  0.59424  0.06326  0.78154  1.0000
  H   H393      1.0  0.48951  0.97530  0.67152  1.0000
  N   N25       1.0  0.45255  0.99631  0.65227  1.0000
  C   C246      1.0  0.56218  0.68022  0.69529  1.0000
  H   H394      1.0  0.41417  0.00647  0.62548  1.0000
  H   H395      1.0  0.56788  0.00615  0.79190  1.0000
  S   S100      1.0  0.60003  0.80752  0.61845  1.0000
  H   H396      1.0  0.60886  0.05478  0.75454  1.0000
  H   H397      1.0  0.57505  0.06374  0.76298  1.0000
  H   H398      1.0  0.60187  0.99823  0.78234  1.0000
  H   H399      1.0  0.53457  0.64335  0.63348  1.0000
  H   H400      1.0  0.59576  0.87809  0.61361  1.0000
  C   C247      1.0  0.61177  0.62739  0.62823  1.0000
  H   H401      1.0  0.61521  0.92201  0.66471  1.0000
  H   H402      1.0  0.46007  0.11490  0.90727  1.0000
  H   H403      1.0  0.53817  0.73411  0.61239  1.0000
  C   C248      1.0  0.49711  0.12647  0.00795  1.0000
  C   C249      1.0  0.61793  0.89648  0.67429  1.0000
  H   H404      1.0  0.66672  0.25129  0.26448  1.0000
  H   H405      1.0  0.77111  0.17412  0.28592  1.0000
  S   S101      1.0  0.73125  0.16116  0.54265  1.0000
  H   H406      1.0  0.72602  0.21738  0.32556  1.0000
  S   S102      1.0  0.83220  0.19228  0.39142  1.0000
  S   S103      1.0  0.75691  0.18511  0.41240  1.0000
  C   C250      1.0  0.68481  0.23967  0.56320  1.0000
  C   C251      1.0  0.83223  0.56399  0.33431  1.0000
  Fe  Fe51      1.0  0.79658  0.16225  0.40824  1.0000
  N   N26       1.0  0.63639  0.59590  0.44525  1.0000
  C   C252      1.0  0.67427  0.21055  0.33814  1.0000
  H   H407      1.0  0.67010  0.19712  0.30380  1.0000
  H   H408      1.0  0.83206  0.55124  0.29867  1.0000
  H   H409      1.0  0.68551  0.19344  0.36167  1.0000
  C   C253      1.0  0.67087  0.24155  0.51982  1.0000
  H   H410      1.0  0.65850  0.60248  0.37991  1.0000
  C   C254      1.0  0.70290  0.21443  0.57046  1.0000
  C   C255      1.0  0.70781  0.19171  0.53362  1.0000
  C   C256      1.0  0.69391  0.19348  0.49006  1.0000
  C   C257      1.0  0.67502  0.21803  0.48358  1.0000
  Fe  Fe52      1.0  0.75024  0.14864  0.47213  1.0000
  S   S104      1.0  0.64878  0.27387  0.51164  1.0000
  H   H411      1.0  0.69752  0.17569  0.46169  1.0000
  H   H412      1.0  0.66412  0.21918  0.45025  1.0000
  C   C258      1.0  0.67278  0.26349  0.29884  1.0000
  H   H413      1.0  0.65522  0.21551  0.35576  1.0000
  C   C259      1.0  0.83929  0.20282  0.48880  1.0000
  H   H414      1.0  0.72459  0.25624  0.29493  1.0000
  H   H415      1.0  0.70601  0.28075  0.37004  1.0000
  H   H416      1.0  0.82192  0.18839  0.49453  1.0000
  H   H417      1.0  0.68343  0.28642  0.28940  1.0000
  N   N27       1.0  0.68880  0.24133  0.32900  1.0000
  C   C260      1.0  0.84794  0.61006  0.38120  1.0000
  H   H418      1.0  0.70950  0.22043  0.26872  1.0000
  H   H419      1.0  0.65462  0.27081  0.31797  1.0000
  C   C261      1.0  0.73965  0.15018  0.24816  1.0000
  C   C262      1.0  0.82065  0.53522  0.45954  1.0000
  C   C263      1.0  0.69483  0.25762  0.37557  1.0000
  H   H420      1.0  0.67677  0.26411  0.39570  1.0000
  C   C264      1.0  0.71329  0.23364  0.30340  1.0000
  S   S105      1.0  0.84134  0.50112  0.45614  1.0000
  C   C265      1.0  0.78262  0.15891  0.21448  1.0000
  H   H421      1.0  0.85772  0.33802  0.51046  1.0000
  H   H422      1.0  0.81173  0.57014  0.34328  1.0000
  H   H423      1.0  0.70667  0.24138  0.39947  1.0000
  N   N28       1.0  0.84866  0.59383  0.33333  1.0000
  C   C266      1.0  0.82784  0.56267  0.48701  1.0000
  H   H424      1.0  0.80242  0.16752  0.21871  1.0000
  C   C267      1.0  0.76495  0.16240  0.25267  1.0000
  H   H425      1.0  0.84530  0.56213  0.50880  1.0000
  S   S106      1.0  0.71924  0.14920  0.29882  1.0000
  Fe  Fe53      1.0  0.71800  0.60872  0.30079  1.0000
  C   C268      1.0  0.83864  0.61676  0.29624  1.0000
  H   H426      1.0  0.64713  0.52686  0.26706  1.0000
  H   H427      1.0  0.65901  0.14966  0.54159  1.0000
  N   N29       1.0  0.62144  0.15565  0.57457  1.0000
  C   C269      1.0  0.84769  0.20972  0.44178  1.0000
  H   H428      1.0  0.84742  0.20829  0.56499  1.0000
  H   H429      1.0  0.83822  0.60531  0.25962  1.0000
  C   C270      1.0  0.63918  0.55971  0.44409  1.0000
  H   H430      1.0  0.79223  0.51480  0.41063  1.0000
  C   C271      1.0  0.62572  0.61835  0.27035  1.0000
  Fe  Fe54      1.0  0.74484  0.14362  0.36394  1.0000
  H   H431      1.0  0.83920  0.54605  0.36192  1.0000
  S   S107      1.0  0.76079  0.60049  0.31157  1.0000
  H   H432      1.0  0.77674  0.13016  0.59108  1.0000
  S   S108      1.0  0.69201  0.56570  0.28669  1.0000
  C   C272      1.0  0.64122  0.55240  0.26797  1.0000
  C   C273      1.0  0.79793  0.53612  0.43160  1.0000
  C   C274      1.0  0.78330  0.56518  0.42878  1.0000
  C   C275      1.0  0.79117  0.59307  0.45461  1.0000
  C   C276      1.0  0.81293  0.59146  0.48495  1.0000
  H   H433      1.0  0.81836  0.62458  0.30455  1.0000
  H   H434      1.0  0.62643  0.19222  0.51940  1.0000
  H   H435      1.0  0.76618  0.56615  0.40607  1.0000
  H   H436      1.0  0.85476  0.59325  0.41036  1.0000
  C   C277      1.0  0.65977  0.57705  0.27518  1.0000
  H   H437      1.0  0.68163  0.25780  0.59129  1.0000
  C   C278      1.0  0.63921  0.60898  0.39564  1.0000
  C   C279      1.0  0.85373  0.21412  0.52862  1.0000
  C   C280      1.0  0.65214  0.61014  0.27537  1.0000
  H   H438      1.0  0.81900  0.61301  0.50507  1.0000
  H   H439      1.0  0.63694  0.54892  0.48089  1.0000
  H   H440      1.0  0.65854  0.55230  0.42966  1.0000
  H   H441      1.0  0.84867  0.34060  0.57321  1.0000
  C   C281      1.0  0.86391  0.33159  0.54790  1.0000
  H   H442      1.0  0.62407  0.54820  0.42057  1.0000
  C   C282      1.0  0.65671  0.61030  0.47674  1.0000
  C   C283      1.0  0.64961  0.14863  0.57783  1.0000
  H   H443      1.0  0.82783  0.61798  0.39064  1.0000
  H   H444      1.0  0.86420  0.30420  0.55045  1.0000
  H   H445      1.0  0.62643  0.20819  0.57970  1.0000
  H   H446      1.0  0.67660  0.60438  0.46336  1.0000
  H   H447      1.0  0.65504  0.60111  0.51459  1.0000
  C   C284      1.0  0.77505  0.14302  0.17182  1.0000
  H   H448      1.0  0.62409  0.59872  0.37097  1.0000
  C   C285      1.0  0.73155  0.13612  0.20443  1.0000
  S   S109      1.0  0.79852  0.13441  0.12769  1.0000
  H   H449      1.0  0.71188  0.12696  0.20067  1.0000
  C   C286      1.0  0.74934  0.13230  0.16633  1.0000
  S   S110      1.0  0.79114  0.12933  0.47246  1.0000
  H   H450      1.0  0.65979  0.16672  0.60145  1.0000
  C   C287      1.0  0.69652  0.58988  0.82082  1.0000
  H   H451      1.0  0.65210  0.59996  0.86885  1.0000
  C   C288      1.0  0.84952  0.14919  0.04674  1.0000
  H   H452      1.0  0.84996  0.15085  0.08698  1.0000
  H   H453      1.0  0.67237  0.61034  0.74024  1.0000
  C   C289      1.0  0.65255  0.60953  0.83113  1.0000
  H   H454      1.0  0.69739  0.58095  0.85889  1.0000
  H   H455      1.0  0.86690  0.16469  0.95703  1.0000
  H   H456      1.0  0.64418  0.59014  0.80714  1.0000
  H   H457      1.0  0.68963  0.56910  0.79783  1.0000
  H   H458      1.0  0.71674  0.59595  0.80946  1.0000
  H   H459      1.0  0.84076  0.17235  0.03284  1.0000
  H   H460      1.0  0.83595  0.12880  0.03724  1.0000
  N   N30       1.0  0.67922  0.61874  0.81625  1.0000
  H   H461      1.0  0.71366  0.21313  0.60408  1.0000
  H   H462      1.0  0.73706  0.12709  0.64122  1.0000
  H   H463      1.0  0.61822  0.17116  0.64873  1.0000
  Fe  Fe55      1.0  0.72157  0.68167  0.31639  1.0000
  Fe  Fe56      1.0  0.63994  0.69557  0.60011  1.0000
  S   S111      1.0  0.70296  0.73141  0.31953  1.0000
  Fe  Fe57      1.0  0.76531  0.64553  0.26562  1.0000
  S   S112      1.0  0.79804  0.65236  0.21236  1.0000
  H   H464      1.0  0.68280  0.87027  0.46395  1.0000
  S   S113      1.0  0.72276  0.65085  0.24919  1.0000
  S   S114      1.0  0.76451  0.67998  0.32876  1.0000
  C   C290      1.0  0.71583  0.77284  0.39374  1.0000
  H   H465      1.0  0.68553  0.90662  0.50045  1.0000
  H   H466      1.0  0.65506  0.63761  0.47849  1.0000
  H   H467      1.0  0.77614  0.76111  0.14341  1.0000
  C   C291      1.0  0.66150  0.83184  0.53234  1.0000
  H   H468      1.0  0.70541  0.75028  0.16426  1.0000
  C   C292      1.0  0.66544  0.88064  0.58168  1.0000
  C   C293      1.0  0.78680  0.66583  0.15571  1.0000
  C   C294      1.0  0.76200  0.65698  0.13952  1.0000
  H   H469      1.0  0.66929  0.81745  0.50122  1.0000
  H   H470      1.0  0.72872  0.80330  0.45296  1.0000
  H   H471      1.0  0.75047  0.63965  0.15995  1.0000
  Fe  Fe58      1.0  0.68154  0.74696  0.58473  1.0000
  H   H472      1.0  0.82124  0.69425  0.14037  1.0000
  C   C295      1.0  0.70879  0.76004  0.47857  1.0000
  C   C296      1.0  0.70391  0.85468  0.54971  1.0000
  H   H473      1.0  0.71666  0.02008  0.53673  1.0000
  S   S115      1.0  0.64121  0.74138  0.55515  1.0000
  H   H474      1.0  0.79631  0.09400  0.58173  1.0000
  C   C297      1.0  0.69388  0.72239  0.41626  1.0000
  C   C298      1.0  0.70381  0.74329  0.38050  1.0000
  H   H475      1.0  0.68456  0.69956  0.40610  1.0000
  H   H476      1.0  0.68853  0.71466  0.49285  1.0000
  H   H477      1.0  0.79628  0.08825  0.23864  1.0000
  H   H478      1.0  0.74576  0.74995  0.11622  1.0000
  S   S116      1.0  0.78903  0.97104  0.11003  1.0000
  H   H479      1.0  0.64493  0.88805  0.57495  1.0000
  H   H480      1.0  0.85059  0.63952  0.29392  1.0000
  C   C299      1.0  0.74822  0.72729  0.20791  1.0000
  H   H481      1.0  0.72377  0.78884  0.36620  1.0000
  C   C300      1.0  0.69602  0.73099  0.46529  1.0000
  N   N31       1.0  0.74346  0.76144  0.19212  1.0000
  H   H482      1.0  0.73864  0.70937  0.18325  1.0000
  C   C301      1.0  0.71866  0.78097  0.44279  1.0000
  H   H483      1.0  0.71074  0.79299  0.17820  1.0000
  S   S117      1.0  0.71241  0.77056  0.53971  1.0000
  H   H484      1.0  0.70597  0.83866  0.58216  1.0000
  C   C302      1.0  0.75490  0.76648  0.14358  1.0000
  S   S118      1.0  0.73409  0.10933  0.42397  1.0000
  C   C303      1.0  0.71513  0.76744  0.19003  1.0000
  H   H485      1.0  0.61971  0.64381  0.27216  1.0000
  C   C304      1.0  0.67456  0.88318  0.49600  1.0000
  C   C305      1.0  0.80198  0.68745  0.12808  1.0000
  H   H486      1.0  0.74044  0.72285  0.24485  1.0000
  H   H487      1.0  0.74319  0.12088  0.13291  1.0000
  Fe  Fe59      1.0  0.75597  0.63548  0.37362  1.0000
  H   H488      1.0  0.75221  0.79219  0.13073  1.0000
  S   S119      1.0  0.61977  0.64931  0.57572  1.0000
  C   C306      1.0  0.73613  0.97515  0.51737  1.0000
  H   H489      1.0  0.66648  0.62930  0.28066  1.0000
  C   C307      1.0  0.75554  0.78431  0.22717  1.0000
  H   H490      1.0  0.71288  0.84128  0.51883  1.0000
  C   C308      1.0  0.78795  0.03415  0.29291  1.0000
  C   C309      1.0  0.79196  0.06505  0.21869  1.0000
  C   C310      1.0  0.73210  0.00917  0.51586  1.0000
  S   S120      1.0  0.71271  0.64002  0.36687  1.0000
  H   H491      1.0  0.79273  0.05632  0.31481  1.0000
  Fe  Fe60      1.0  0.77548  0.09256  0.41960  1.0000
  S   S121      1.0  0.78703  0.03940  0.42029  1.0000
  C   C311      1.0  0.75019  0.06020  0.25782  1.0000
  H   H492      1.0  0.73973  0.06707  0.22400  1.0000
  H   H493      1.0  0.73691  0.04459  0.27979  1.0000
  C   C312      1.0  0.74785  0.02914  0.48653  1.0000
  H   H494      1.0  0.75957  0.01858  0.18402  1.0000
  C   C313      1.0  0.76732  0.01503  0.45785  1.0000
  C   C314      1.0  0.77110  0.98096  0.45890  1.0000
  H   H495      1.0  0.75236  0.81041  0.21657  1.0000
  H   H496      1.0  0.81080  0.05302  0.20983  1.0000
  N   N32       1.0  0.67634  0.86258  0.53994  1.0000
  H   H497      1.0  0.74722  0.78087  0.26414  1.0000
  S   S122      1.0  0.71733  0.94968  0.55499  1.0000
  H   H498      1.0  0.77540  0.01819  0.31592  1.0000
  H   H499      1.0  0.70589  0.76368  0.22610  1.0000
  H   H500      1.0  0.75672  0.99563  0.23924  1.0000
  H   H501      1.0  0.75865  0.93475  0.48936  1.0000
  H   H502      1.0  0.78769  0.99948  0.20973  1.0000
  H   H503      1.0  0.78612  0.96992  0.43684  1.0000
  H   H504      1.0  0.71564  0.87733  0.55602  1.0000
  H   H505      1.0  0.74485  0.05538  0.48611  1.0000
  H   H506      1.0  0.76936  0.72144  0.20888  1.0000
  H   H507      1.0  0.80644  0.02070  0.28633  1.0000
  C   C315      1.0  0.75551  0.96106  0.48852  1.0000
  H   H508      1.0  0.66263  0.81563  0.56457  1.0000
  H   H509      1.0  0.78272  0.07217  0.18382  1.0000
  H   H510      1.0  0.75360  0.08330  0.27857  1.0000
  C   C316      1.0  0.76945  0.01289  0.21890  1.0000
  N   N33       1.0  0.77489  0.04307  0.24708  1.0000
  S   S123      1.0  0.78499  0.12332  0.35502  1.0000
  H   H511      1.0  0.77690  0.78018  0.22985  1.0000
  H   H512      1.0  0.64051  0.83679  0.52563  1.0000
  H   H513      1.0  0.65404  0.88970  0.48760  1.0000
  H   H514      1.0  0.76458  0.09703  0.55477  1.0000
  H   H515      1.0  0.67674  0.90344  0.58934  1.0000
  C   C317      1.0  0.77611  0.10285  0.58786  1.0000
  H   H516      1.0  0.65324  0.12359  0.59282  1.0000
  S   S124      1.0  0.77594  0.63103  0.44554  1.0000
  H   H517      1.0  0.86039  0.63243  0.38215  1.0000
  H   H518      1.0  0.75238  0.04413  0.59283  1.0000
  H   H519      1.0  0.63751  0.63626  0.39486  1.0000
  H   H520      1.0  0.83999  0.70085  0.79519  1.0000
  H   H521      1.0  0.83801  0.65726  0.78555  1.0000
  H   H522      1.0  0.76615  0.74846  0.71185  1.0000
  H   H523      1.0  0.84722  0.95846  0.97957  1.0000
  S   S125      1.0  0.67786  0.71885  0.76296  1.0000
  H   H524      1.0  0.80345  0.71852  0.06474  1.0000
  S   S126      1.0  0.77910  0.10103  0.99981  1.0000
  C   C318      1.0  0.63493  0.85512  0.72879  1.0000
  C   C319      1.0  0.68883  0.64557  0.84768  1.0000
  S   S127      1.0  0.75245  0.71305  0.02044  1.0000
  S   S128      1.0  0.81296  0.73009  0.93679  1.0000
  Fe  Fe61      1.0  0.77923  0.74751  0.98112  1.0000
  S   S129      1.0  0.80018  0.79019  0.01498  1.0000
  S   S130      1.0  0.79609  0.74931  0.80048  1.0000
  H   H525      1.0  0.70905  0.65280  0.83792  1.0000
  Fe  Fe62      1.0  0.83278  0.77542  0.96505  1.0000
  C   C320      1.0  0.71125  0.72476  0.77143  1.0000
  C   C321      1.0  0.72176  0.72077  0.81770  1.0000
  C   C322      1.0  0.74826  0.72622  0.82569  1.0000
  C   C323      1.0  0.76418  0.73690  0.78792  1.0000
  C   C324      1.0  0.75388  0.74019  0.74123  1.0000
  C   C325      1.0  0.72734  0.73407  0.73295  1.0000
  H   H526      1.0  0.70939  0.71406  0.84774  1.0000
  H   H527      1.0  0.75634  0.72239  0.86136  1.0000
  N   N34       1.0  0.85395  0.68451  0.72574  1.0000
  H   H528      1.0  0.71930  0.73717  0.69703  1.0000
  C   C326      1.0  0.82838  0.68816  0.70178  1.0000
  H   H529      1.0  0.63492  0.03330  0.82406  1.0000
  S   S131      1.0  0.65300  0.96809  0.62472  1.0000
  S   S132      1.0  0.62319  0.05855  0.62409  1.0000
  H   H530      1.0  0.77125  0.08515  0.70778  1.0000
  S   S133      1.0  0.68178  0.69830  0.62335  1.0000
  C   C327      1.0  0.84363  0.96903  0.88350  1.0000
  Fe  Fe63      1.0  0.66607  0.72734  0.68590  1.0000
  H   H531      1.0  0.66583  0.65143  0.76046  1.0000
  S   S134      1.0  0.69506  0.02964  0.62941  1.0000
  C   C328      1.0  0.73746  0.09985  0.63688  1.0000
  H   H532      1.0  0.85672  0.02294  0.00795  1.0000
  Fe  Fe64      1.0  0.79776  0.76361  0.87924  1.0000
  H   H533      1.0  0.80948  0.90573  0.09415  1.0000
  H   H534      1.0  0.82526  0.99170  0.96754  1.0000
  C   C329      1.0  0.75189  0.67088  0.09707  1.0000
  S   S135      1.0  0.66976  0.77623  0.64972  1.0000
  H   H535      1.0  0.69869  0.63826  0.75345  1.0000
  H   H536      1.0  0.72789  0.08888  0.66921  1.0000
  H   H537      1.0  0.83053  0.69210  0.66210  1.0000
  Fe  Fe65      1.0  0.69587  0.97546  0.61475  1.0000
  H   H538      1.0  0.81740  0.70953  0.71675  1.0000
  S   S136      1.0  0.81711  0.05422  0.06667  1.0000
  N   N35       1.0  0.76435  0.08759  0.63111  1.0000
  S   S137      1.0  0.76205  0.77724  0.92096  1.0000
  C   C330      1.0  0.76403  0.05146  0.62495  1.0000
  C   C331      1.0  0.78896  0.88691  0.03169  1.0000
  H   H539      1.0  0.64549  0.84861  0.76118  1.0000
  Fe  Fe66      1.0  0.74883  0.06183  0.00960  1.0000
  S   S138      1.0  0.77554  0.02030  0.99148  1.0000
  S   S139      1.0  0.71034  0.06235  0.97172  1.0000
  H   H540      1.0  0.80053  0.86477  0.02932  1.0000
  Fe  Fe67      1.0  0.80638  0.05881  0.98854  1.0000
  C   C332      1.0  0.76971  0.89325  0.99704  1.0000
  H   H541      1.0  0.79453  0.98872  0.89847  1.0000
  Fe  Fe68      1.0  0.66307  0.95937  0.70272  1.0000
  S   S140      1.0  0.65919  0.01208  0.72509  1.0000
  S   S141      1.0  0.64816  0.91848  0.74960  1.0000
  H   H542      1.0  0.73087  0.86784  0.86055  1.0000
  H   H543      1.0  0.73757  0.80979  0.75706  1.0000
  H   H544      1.0  0.70214  0.85076  0.73905  1.0000
  Fe  Fe69      1.0  0.70152  0.01562  0.70685  1.0000
  S   S142      1.0  0.73248  0.04215  0.74880  1.0000
  H   H545      1.0  0.75425  0.83967  0.79389  1.0000
  S   S143      1.0  0.70608  0.96199  0.69096  1.0000
  C   C333      1.0  0.67905  0.63004  0.76538  1.0000
  C   C334      1.0  0.71619  0.05712  0.90966  1.0000
  C   C335      1.0  0.74130  0.06129  0.89115  1.0000
  C   C336      1.0  0.74607  0.05683  0.84168  1.0000
  C   C337      1.0  0.72583  0.04769  0.81058  1.0000
  C   C338      1.0  0.70072  0.04340  0.82906  1.0000
  C   C339      1.0  0.69585  0.04833  0.87852  1.0000
  H   H546      1.0  0.75707  0.06831  0.91479  1.0000
  H   H547      1.0  0.76551  0.06031  0.82764  1.0000
  H   H548      1.0  0.68504  0.03657  0.80535  1.0000
  H   H549      1.0  0.67648  0.04499  0.89285  1.0000
  H   H550      1.0  0.73991  0.92694  0.97365  1.0000
  H   H551      1.0  0.84196  0.96043  0.84540  1.0000
  C   C340      1.0  0.63237  0.88815  0.71545  1.0000
  H   H552      1.0  0.62465  0.06749  0.86050  1.0000
  C   C341      1.0  0.82763  0.91692  0.91323  1.0000
  S   S144      1.0  0.83489  0.05944  0.92727  1.0000
  H   H553      1.0  0.68678  0.87195  0.78832  1.0000
  H   H554      1.0  0.69143  0.79636  0.77337  1.0000
  Fe  Fe70      1.0  0.78572  0.81865  0.95058  1.0000
  H   H555      1.0  0.81349  0.90422  0.93728  1.0000
  N   N36       1.0  0.71353  0.83399  0.80993  1.0000
  H   H556      1.0  0.74556  0.80053  0.81873  1.0000
  C   C342      1.0  0.82758  0.96458  0.96522  1.0000
  H   H557      1.0  0.78036  0.12338  0.68014  1.0000
  S   S145      1.0  0.82015  0.80793  0.90362  1.0000
  H   H558      1.0  0.73244  0.66454  0.08531  1.0000
  C   C343      1.0  0.79190  0.70128  0.08542  1.0000
  H   H559      1.0  0.75537  0.03896  0.65689  1.0000
  H   H560      1.0  0.78249  0.95027  0.92135  1.0000
  H   H561      1.0  0.66567  0.86537  0.61514  1.0000
  H   H562      1.0  0.79422  0.95295  0.86032  1.0000
  C   C344      1.0  0.79399  0.91004  0.06840  1.0000
  H   H563      1.0  0.72256  0.82866  0.88570  1.0000
  C   C345      1.0  0.70531  0.86035  0.77636  1.0000
  H   H564      1.0  0.84743  0.90963  0.92542  1.0000
  H   H565      1.0  0.69747  0.85807  0.87260  1.0000
  C   C346      1.0  0.73882  0.82046  0.79412  1.0000
  H   H566      1.0  0.81606  0.66593  0.70698  1.0000
  H   H567      1.0  0.78397  0.04143  0.61998  1.0000
  C   C347      1.0  0.77989  0.93951  0.07011  1.0000
  H   H568      1.0  0.72532  0.09393  0.60462  1.0000
  H   H569      1.0  0.63993  0.65289  0.67215  1.0000
  C   C348      1.0  0.76666  0.69338  0.07035  1.0000
  N   N37       1.0  0.82414  0.95300  0.91494  1.0000
  Fe  Fe71      1.0  0.65301  0.02139  0.64607  1.0000
  H   H570      1.0  0.72006  0.88037  0.77426  1.0000
  C   C349      1.0  0.85005  0.67944  0.77825  1.0000
  H   H571      1.0  0.81296  0.95341  0.98992  1.0000
  H   H572      1.0  0.80013  0.08734  0.67148  1.0000
  H   H573      1.0  0.67446  0.81671  0.82165  1.0000
  S   S146      1.0  0.76521  0.86729  0.94703  1.0000
  H   H574      1.0  0.82459  0.90708  0.87607  1.0000
  C   C350      1.0  0.75496  0.92204  0.00012  1.0000
  H   H575      1.0  0.67651  0.66801  0.84410  1.0000
  C   C351      1.0  0.75997  0.94505  0.03665  1.0000
  Fe  Fe72      1.0  0.78372  0.01897  0.07101  1.0000
  H   H576      1.0  0.69944  0.78716  0.83504  1.0000
  C   C352      1.0  0.69384  0.80745  0.81003  1.0000
  C   C353      1.0  0.71617  0.84770  0.85929  1.0000
  H   H577      1.0  0.74852  0.96731  0.03865  1.0000
  H   H578      1.0  0.63916  0.63105  0.82974  1.0000
  C   C354      1.0  0.79770  0.96157  0.89798  1.0000
  H   H579      1.0  0.85970  0.73662  0.73362  1.0000
  H   H580      1.0  0.62370  0.62971  0.74897  1.0000
  H   H581      1.0  0.86045  0.12150  0.96173  1.0000
  H   H582      1.0  0.86162  0.76485  0.88560  1.0000
  H   H583      1.0  0.85667  0.63276  0.70983  1.0000
  C   C355      1.0  0.77976  0.09627  0.67449  1.0000
  C   C356      1.0  0.62438  0.83034  0.69953  1.0000
  C   C357      1.0  0.61927  0.04219  0.84865  1.0000
  Fe  Fe73      1.0  0.62928  0.76707  0.62305  1.0000
  H   H584      1.0  0.62686  0.80481  0.70948  1.0000
  H   H585      1.0  0.84110  0.99625  0.88324  1.0000
  Fe  Fe74      1.0  0.78689  0.09300  0.07863  1.0000
  H   H586      1.0  0.68887  0.63831  0.88653  1.0000
  H   H587      1.0  0.86381  0.96408  0.89622  1.0000
  S   S147      1.0  0.62418  0.72109  0.66587  1.0000
  C   C358      1.0  0.86790  0.65594  0.70513  1.0000
  S   S148      1.0  0.75411  0.05721  0.09007  1.0000
  C   C359      1.0  0.62412  0.63538  0.67176  1.0000
  C   C360      1.0  0.86696  0.05192  0.94543  1.0000
  H   H588      1.0  0.61953  0.02616  0.88133  1.0000
  C   C361      1.0  0.87674  0.23190  0.52145  1.0000
  Fe  Fe75      1.0  0.98136  0.29796  0.53691  1.0000
  Fe  Fe76      1.0  0.93842  0.24868  0.55758  1.0000
  H   H589      1.0  0.04482  0.36671  0.37944  1.0000
  H   H590      1.0  0.03683  0.40115  0.30660  1.0000
  Fe  Fe77      1.0  0.98505  0.22848  0.49819  1.0000
  S   S149      1.0  0.99913  0.19940  0.43437  1.0000
  S   S150      1.0  0.95531  0.26818  0.48874  1.0000
  C   C362      1.0  0.02895  0.38046  0.39804  1.0000
  C   C363      1.0  0.02119  0.41384  0.32737  1.0000
  H   H591      1.0  0.02040  0.36386  0.42589  1.0000
  H   H592      1.0  0.01290  0.34898  0.31772  1.0000
  H   H593      1.0  0.88925  0.16745  0.46599  1.0000
  H   H594      1.0  0.04911  0.58955  0.44970  1.0000
  H   H595      1.0  0.94630  0.18515  0.38479  1.0000
  Fe  Fe78      1.0  0.09181  0.28124  0.26278  1.0000
  S   S151      1.0  0.05731  0.30200  0.30196  1.0000
  Fe  Fe79      1.0  0.87883  0.51245  0.49391  1.0000
  S   S152      1.0  0.09577  0.28222  0.18218  1.0000
  H   H596      1.0  0.06359  0.22016  0.17548  1.0000
  H   H597      1.0  0.98264  0.37057  0.31127  1.0000
  H   H598      1.0  0.90190  0.25429  0.46860  1.0000
  C   C364      1.0  0.01435  0.22738  0.39533  1.0000
  C   C365      1.0  0.01369  0.26092  0.40627  1.0000
  C   C366      1.0  0.02665  0.28352  0.37690  1.0000
  C   C367      1.0  0.04038  0.27284  0.33630  1.0000
  C   C368      1.0  0.04111  0.23927  0.32496  1.0000
  C   C369      1.0  0.02800  0.21649  0.35449  1.0000
  H   H599      1.0  0.00346  0.26966  0.43773  1.0000
  H   H600      1.0  0.02651  0.30922  0.38649  1.0000
  H   H601      1.0  0.05141  0.23091  0.29315  1.0000
  H   H602      1.0  0.02853  0.19053  0.34579  1.0000
  H   H603      1.0  0.00335  0.60244  0.59208  1.0000
  S   S153      1.0  0.01822  0.44102  0.19722  1.0000
  C   C370      1.0  0.96789  0.37283  0.59687  1.0000
  H   H604      1.0  0.00667  0.42308  0.30080  1.0000
  C   C371      1.0  0.96073  0.43572  0.55863  1.0000
  H   H605      1.0  0.90769  0.39348  0.56361  1.0000
  C   C372      1.0  0.98826  0.40952  0.38935  1.0000
  C   C373      1.0  0.97460  0.41209  0.53244  1.0000
  H   H606      1.0  0.08102  0.21557  0.47839  1.0000
  H   H607      1.0  0.95827  0.46001  0.54363  1.0000
  C   C374      1.0  0.93188  0.18679  0.41479  1.0000
  H   H608      1.0  0.92667  0.13000  0.36642  1.0000
  C   C375      1.0  0.07903  0.18995  0.11816  1.0000
  H   H609      1.0  0.07649  0.58583  0.37566  1.0000
  C   C376      1.0  0.09636  0.36440  0.15934  1.0000
  H   H610      1.0  0.11553  0.57107  0.25014  1.0000
  H   H611      1.0  0.93991  0.55571  0.12660  1.0000
  C   C377      1.0  0.95083  0.13882  0.45203  1.0000
  H   H612      1.0  0.97298  0.41868  0.36414  1.0000
  H   H613      1.0  0.01508  0.55692  0.31675  1.0000
  H   H614      1.0  0.05638  0.37946  0.16624  1.0000
  N   N38       1.0  0.00902  0.39171  0.36319  1.0000
  N   N39       1.0  0.92626  0.15411  0.43573  1.0000
  H   H615      1.0  0.94023  0.20374  0.44235  1.0000
  H   H616      1.0  0.10875  0.45087  0.21522  1.0000
  H   H617      1.0  0.88235  0.39026  0.51937  1.0000
  H   H618      1.0  0.98246  0.41835  0.49741  1.0000
  C   C378      1.0  0.03378  0.20627  0.12446  1.0000
  H   H619      1.0  0.02696  0.52490  0.41421  1.0000
  H   H620      1.0  0.08362  0.25970  0.47952  1.0000
  C   C379      1.0  0.10040  0.50520  0.34771  1.0000
  H   H621      1.0  0.91033  0.30590  0.52661  1.0000
  H   H622      1.0  0.98847  0.34560  0.36392  1.0000
  H   H623      1.0  0.06536  0.23971  0.43272  1.0000
  H   H624      1.0  0.03795  0.40154  0.41761  1.0000
  C   C380      1.0  0.05928  0.20686  0.14254  1.0000
  S   S154      1.0  0.95602  0.49708  0.20800  1.0000
  H   H625      1.0  0.90485  0.13374  0.49562  1.0000
  S   S155      1.0  0.01266  0.25980  0.54064  1.0000
  S   S156      1.0  0.99063  0.34961  0.51331  1.0000
  S   S157      1.0  0.11114  0.19216  0.13858  1.0000
  H   H626      1.0  0.04558  0.52159  0.35941  1.0000
  C   C381      1.0  0.88458  0.23987  0.47446  1.0000
  H   H627      1.0  0.03022  0.43562  0.34509  1.0000
  C   C382      1.0  0.97730  0.38020  0.55061  1.0000
  H   H628      1.0  0.09786  0.35650  0.19664  1.0000
  C   C383      1.0  0.90916  0.33319  0.52505  1.0000
  H   H629      1.0  0.88368  0.56712  0.34928  1.0000
  H   H630      1.0  0.97862  0.39335  0.41654  1.0000
  S   S158      1.0  0.96592  0.20595  0.56308  1.0000
  N   N40       1.0  0.88964  0.34580  0.55960  1.0000
  H   H631      1.0  0.99609  0.43130  0.40909  1.0000
  H   H632      1.0  0.09172  0.26780  0.36943  1.0000
  C   C384      1.0  0.87572  0.58447  0.32174  1.0000
  C   C385      1.0  0.99773  0.36296  0.33793  1.0000
  H   H633      1.0  0.91646  0.17499  0.50512  1.0000
  H   H634      1.0  0.01521  0.57881  0.44688  1.0000
  S   S159      1.0  0.88137  0.52418  0.57318  1.0000
  C   C386      1.0  0.08323  0.23781  0.45529  1.0000
  Fe  Fe80      1.0  0.90948  0.56306  0.54888  1.0000
  C   C387      1.0  0.10530  0.20655  0.39341  1.0000
  H   H635      1.0  0.96498  0.13648  0.42169  1.0000
  C   C388      1.0  0.88843  0.38208  0.55613  1.0000
  C   C389      1.0  0.03163  0.58968  0.42585  1.0000
  C   C390      1.0  0.09595  0.52533  0.26561  1.0000
  S   S160      1.0  0.10782  0.23021  0.27012  1.0000
  H   H636      1.0  0.91405  0.19844  0.39994  1.0000
  H   H637      1.0  0.04590  0.28310  0.11916  1.0000
  H   H638      1.0  0.92893  0.34300  0.53312  1.0000
  H   H639      1.0  0.02661  0.61581  0.41827  1.0000
  C   C391      1.0  0.96188  0.60943  0.58533  1.0000
  H   H640      1.0  0.89518  0.14412  0.38560  1.0000
  H   H641      1.0  0.10394  0.18355  0.41506  1.0000
  C   C392      1.0  0.09049  0.50163  0.30084  1.0000
  H   H642      1.0  0.01848  0.21921  0.14338  1.0000
  S   S161      1.0  0.89560  0.24333  0.57160  1.0000
  C   C393      1.0  0.10858  0.26580  0.39442  1.0000
  C   C394      1.0  0.07290  0.37740  0.14219  1.0000
  S   S162      1.0  0.91065  0.47490  0.49545  1.0000
  C   C395      1.0  0.04274  0.53664  0.39270  1.0000
  S   S163      1.0  0.02762  0.52174  0.20408  1.0000
  C   C396      1.0  0.05823  0.58607  0.35391  1.0000
  Fe  Fe81      1.0  0.05047  0.47568  0.21638  1.0000
  N   N41       1.0  0.03632  0.57111  0.38066  1.0000
  S   S164      1.0  0.07100  0.46771  0.28694  1.0000
  Fe  Fe82      1.0  0.99622  0.48719  0.18001  1.0000
  H   H643      1.0  0.91957  0.51407  0.28448  1.0000
  Fe  Fe83      1.0  0.93669  0.51743  0.47845  1.0000
  Fe  Fe84      1.0  0.11573  0.23374  0.19072  1.0000
  S   S165      1.0  0.97229  0.51032  0.43300  1.0000
  H   H644      1.0  0.96049  0.59622  0.55152  1.0000
  H   H645      1.0  0.00773  0.59746  0.33902  1.0000
  S   S166      1.0  0.94427  0.53041  0.55579  1.0000
  S   S167      1.0  0.90442  0.55404  0.46926  1.0000
  Fe  Fe85      1.0  0.04182  0.51835  0.12772  1.0000
  H   H646      1.0  0.88871  0.60637  0.32079  1.0000
  C   C397      1.0  0.95894  0.49830  0.27126  1.0000
  C   C398      1.0  0.93814  0.50813  0.30067  1.0000
  C   C399      1.0  0.94162  0.51086  0.35107  1.0000
  C   C400      1.0  0.96588  0.50374  0.37162  1.0000
  C   C401      1.0  0.98625  0.49299  0.34232  1.0000
  C   C402      1.0  0.98280  0.49035  0.29243  1.0000
  H   H647      1.0  0.06095  0.53502  0.41439  1.0000
  H   H648      1.0  0.92576  0.51901  0.37380  1.0000
  C   C403      1.0  0.11522  0.53296  0.35977  1.0000
  H   H649      1.0  0.99885  0.48244  0.27043  1.0000
  H   H650      1.0  0.08838  0.52262  0.22927  1.0000
  C   C404      1.0  0.90849  0.15772  0.47746  1.0000
  C   C405      1.0  0.01266  0.57194  0.35022  1.0000
  S   S168      1.0  0.06828  0.47582  0.14243  1.0000
  Fe  Fe86      1.0  0.91590  0.49066  0.57260  1.0000
  H   H651      1.0  0.99555  0.56197  0.37005  1.0000
  H   H652      1.0  0.06223  0.57249  0.31969  1.0000
  H   H653      1.0  0.00489  0.48711  0.35809  1.0000
  C   C406      1.0  0.11137  0.55266  0.27735  1.0000
  H   H654      1.0  0.10908  0.28858  0.41671  1.0000
  H   H655      1.0  0.96049  0.15402  0.48041  1.0000
  H   H656      1.0  0.09635  0.48673  0.37486  1.0000
  N   N42       1.0  0.10680  0.23597  0.42479  1.0000
  H   H657      1.0  0.95723  0.51999  0.10717  1.0000
  H   H658      1.0  0.87602  0.23509  0.39829  1.0000
  H   H659      1.0  0.87693  0.57207  0.28587  1.0000
  H   H660      1.0  0.08792  0.20746  0.36933  1.0000
  S   S169      1.0  0.90861  0.61299  0.58365  1.0000
  H   H661      1.0  0.90431  0.34014  0.48716  1.0000
  C   C407      1.0  0.91383  0.13314  0.39854  1.0000
  H   H662      1.0  0.87443  0.39265  0.58263  1.0000
  C   C408      1.0  0.86989  0.22909  0.43470  1.0000
  H   H663      1.0  0.05418  0.61212  0.34416  1.0000
  Fe  Fe87      1.0  0.03359  0.44536  0.12182  1.0000
  C   C409      1.0  0.11793  0.36227  0.12866  1.0000
  H   H664      1.0  0.03483  0.32365  0.10292  1.0000
  H   H665      1.0  0.06691  0.33091  0.01127  1.0000
  S   S170      1.0  0.01071  0.16198  0.92458  1.0000
  C   C410      1.0  0.02814  0.18895  0.08190  1.0000
  C   C411      1.0  0.02497  0.58976  0.95794  1.0000
  C   C412      1.0  0.07330  0.17225  0.07606  1.0000
  C   C413      1.0  0.10443  0.61968  0.95690  1.0000
  C   C414      1.0  0.98616  0.61343  0.60779  1.0000
  H   H666      1.0  0.04350  0.31272  0.97082  1.0000
  S   S171      1.0  0.04122  0.40282  0.07271  1.0000
  H   H667      1.0  0.00487  0.50038  0.66447  1.0000
  S   S172      1.0  0.01383  0.22774  0.67141  1.0000
  N   N43       1.0  0.04392  0.29220  0.04256  1.0000
  H   H668      1.0  0.01341  0.26879  0.00155  1.0000
  H   H669      1.0  0.97103  0.34881  0.61218  1.0000
  C   C415      1.0  0.07065  0.38687  0.09374  1.0000
  C   C416      1.0  0.96532  0.18325  0.79262  1.0000
  C   C417      1.0  0.95433  0.18751  0.74662  1.0000
  C   C418      1.0  0.96874  0.20247  0.70950  1.0000
  C   C419      1.0  0.99415  0.21320  0.71847  1.0000
  C   C420      1.0  0.00462  0.21043  0.76501  1.0000
  C   C421      1.0  0.99027  0.19539  0.80200  1.0000
  H   H670      1.0  0.06134  0.24494  0.05511  1.0000
  H   H671      1.0  0.96041  0.20491  0.67374  1.0000
  H   H672      1.0  0.02405  0.21946  0.77225  1.0000
  H   H673      1.0  0.99860  0.19304  0.83758  1.0000
  C   C422      1.0  0.04790  0.17196  0.05774  1.0000
  H   H674      1.0  0.03958  0.50886  0.02667  1.0000
  H   H675      1.0  0.06004  0.25685  0.99287  1.0000
  H   H676      1.0  0.93493  0.17841  0.73931  1.0000
  H   H677      1.0  0.94592  0.39045  0.65823  1.0000
  H   H678      1.0  0.04452  0.61410  0.01705  1.0000
  C   C423      1.0  0.06301  0.26633  0.03028  1.0000
  H   H679      1.0  0.92447  0.52623  0.08742  1.0000
  H   H680      1.0  0.98519  0.58808  0.03338  1.0000
  N   N44       1.0  0.95284  0.55717  0.05239  1.0000
  H   H681      1.0  0.99261  0.55672  0.07674  1.0000
  C   C424      1.0  0.10890  0.60829  0.04236  1.0000
  S   S173      1.0  0.99671  0.18991  0.05765  1.0000
  H   H682      1.0  0.98857  0.55088  0.77159  1.0000
  H   H683      1.0  0.00197  0.56687  0.71632  1.0000
  C   C425      1.0  0.04699  0.32024  0.00900  1.0000
  C   C426      1.0  0.93947  0.62246  0.60673  1.0000
  H   H684      1.0  0.04213  0.13855  0.69602  1.0000
  H   H685      1.0  0.93800  0.53417  0.67716  1.0000
  H   H686      1.0  0.04376  0.15891  0.02454  1.0000
  C   C427      1.0  0.01727  0.27879  0.03840  1.0000
  C   C428      1.0  0.04153  0.13669  0.79299  1.0000
  C   C429      1.0  0.09211  0.38449  0.06285  1.0000
  H   H687      1.0  0.97308  0.51564  0.02216  1.0000
  C   C430      1.0  0.95771  0.53376  0.01243  1.0000
  C   C431      1.0  0.03849  0.59071  0.00204  1.0000
  Fe  Fe88      1.0  0.99093  0.24103  0.60523  1.0000
  H   H688      1.0  0.91453  0.56949  0.02686  1.0000
  C   C432      1.0  0.94314  0.53907  0.09516  1.0000
  C   C433      1.0  0.04846  0.30351  0.09270  1.0000
  H   H689      1.0  0.96436  0.54670  0.97915  1.0000
  H   H690      1.0  0.10093  0.58297  0.03825  1.0000
  H   H691      1.0  0.04030  0.16175  0.77724  1.0000
  H   H692      1.0  0.03072  0.13692  0.82788  1.0000
  H   H693      1.0  0.09046  0.39238  0.02557  1.0000
  H   H694      1.0  0.01405  0.25827  0.06433  1.0000
  H   H695      1.0  0.89795  0.30890  0.61328  1.0000
  S   S174      1.0  0.99442  0.55905  0.89021  1.0000
  C   C434      1.0  0.04264  0.56167  0.02802  1.0000
  H   H696      1.0  0.08334  0.27558  0.03319  1.0000
  H   H697      1.0  0.99266  0.53766  0.63772  1.0000
  S   S175      1.0  0.05452  0.56352  0.08738  1.0000
  H   H698      1.0  0.94438  0.55512  0.73345  1.0000
  H   H699      1.0  0.95869  0.56973  0.67841  1.0000
  H   H700      1.0  0.91665  0.34584  0.61908  1.0000
  S   S176      1.0  0.96178  0.28196  0.60549  1.0000
  H   H701      1.0  0.98472  0.47919  0.74027  1.0000
  C   C435      1.0  0.03500  0.53152  0.00820  1.0000
  H   H702      1.0  0.95283  0.48203  0.71415  1.0000
  H   H703      1.0  0.93988  0.51968  0.00278  1.0000
  H   H704      1.0  0.95987  0.50272  0.77015  1.0000
  C   C436      1.0  0.01538  0.55982  0.94021  1.0000
  C   C437      1.0  0.02107  0.53061  0.96465  1.0000
  H   H705      1.0  0.01428  0.50732  0.95040  1.0000
  N   N45       1.0  0.97612  0.52572  0.70695  1.0000
  C   C438      1.0  0.95327  0.54708  0.69870  1.0000
  C   C439      1.0  0.99596  0.54387  0.73513  1.0000
  C   C440      1.0  0.98718  0.51579  0.65980  1.0000
  C   C441      1.0  0.96804  0.49611  0.73412  1.0000
  C   C442      1.0  0.97730  0.57432  0.06494  1.0000
  H   H706      1.0  0.08854  0.15918  0.05712  1.0000
  H   H707      1.0  0.06856  0.31324  0.09721  1.0000
  H   H708      1.0  0.01378  0.52886  0.74087  1.0000
  C   C443      1.0  0.89307  0.17107  0.04026  1.0000
  H   H709      1.0  0.94003  0.59566  0.00466  1.0000
  N   N46       1.0  0.87576  0.14353  0.02656  1.0000
  H   H710      1.0  0.03314  0.34047  0.01775  1.0000
  S   S177      1.0  0.92734  0.45462  0.63017  1.0000
  C   C444      1.0  0.95403  0.39658  0.62325  1.0000
  Fe  Fe89      1.0  0.99454  0.60874  0.85588  1.0000
  S   S178      1.0  0.94843  0.16060  0.83658  1.0000
  H   H711      1.0  0.00237  0.29791  0.04621  1.0000
  H   H712      1.0  0.97297  0.50103  0.63839  1.0000
  H   H713      1.0  0.99940  0.14153  0.73422  1.0000
  C   C445      1.0  0.93323  0.58157  0.03688  1.0000
  H   H714      1.0  0.92903  0.59964  0.06615  1.0000
  H   H715      1.0  0.88577  0.19491  0.02591  1.0000
  H   H716      1.0  0.02111  0.61236  0.93877  1.0000
  S   S179      1.0  0.97071  0.61898  0.79008  1.0000
  C   C446      1.0  0.87407  0.14135  0.97321  1.0000
  H   H717      1.0  0.91308  0.16745  0.02587  1.0000
  H   H718      1.0  0.09474  0.59544  0.95145  1.0000
  Fe  Fe90      1.0  0.99440  0.15237  0.99835  1.0000
  H   H719      1.0  0.06232  0.13196  0.80188  1.0000
  C   C447      1.0  0.89712  0.33616  0.60931  1.0000
  H   H720      1.0  0.97447  0.59219  0.09499  1.0000
  H   H721      1.0  0.89337  0.13585  0.95674  1.0000
  Fe  Fe91      1.0  0.97291  0.14127  0.89778  1.0000
  H   H722      1.0  0.88304  0.34560  0.63652  1.0000
  S   S180      1.0  0.95539  0.13615  0.97150  1.0000
  H   H723      1.0  0.89473  0.17344  0.08030  1.0000
  C   C448      1.0  0.94952  0.42759  0.60312  1.0000
  C   C449      1.0  0.11591  0.37266  0.08055  1.0000
  S   S181      1.0  0.00806  0.48788  0.10213  1.0000
  H   H724      1.0  0.09227  0.62481  0.05082  1.0000
  H   H725      1.0  0.11461  0.62607  0.92264  1.0000
  H   H726      1.0  0.90925  0.10825  0.41299  1.0000
  H   H727      1.0  0.94752  0.11389  0.46737  1.0000
  S   S182      1.0  0.98420  0.65604  0.89289  1.0000
  Fe  Fe92      1.0  0.00714  0.64169  0.76108  1.0000
  S   S183      1.0  0.99861  0.69214  0.78924  1.0000
  C   C450      1.0  0.03487  0.07851  0.78067  1.0000
  Fe  Fe93      1.0  0.01992  0.67561  0.85581  1.0000
  S   S184      1.0  0.04572  0.71066  0.89727  1.0000
  Fe  Fe94      1.0  0.96390  0.66838  0.82337  1.0000
  S   S185      1.0  0.92514  0.69235  0.81188  1.0000
  H   H728      1.0  0.88333  0.07985  0.88657  1.0000
  H   H729      1.0  0.03734  0.09520  0.68657  1.0000
  H   H730      1.0  0.02744  0.05880  0.75640  1.0000
  C   C451      1.0  0.87880  0.75033  0.89198  1.0000
  H   H731      1.0  0.00291  0.75381  0.94614  1.0000
  H   H732      1.0  0.88852  0.11345  0.08611  1.0000
  N   N47       1.0  0.98468  0.77851  0.88614  1.0000
  H   H733      1.0  0.96726  0.65975  0.70406  1.0000
  C   C452      1.0  0.91206  0.71376  0.86121  1.0000
  C   C453      1.0  0.92323  0.71215  0.90740  1.0000
  C   C454      1.0  0.91222  0.73003  0.94587  1.0000
  H   H734      1.0  0.00908  0.79939  0.83070  1.0000
  H   H735      1.0  0.98066  0.83116  0.88651  1.0000
  H   H736      1.0  0.06602  0.10970  0.71739  1.0000
  H   H737      1.0  0.94007  0.69696  0.91364  1.0000
  H   H738      1.0  0.92056  0.72856  0.98177  1.0000
  H   H739      1.0  0.10339  0.08505  0.05236  1.0000
  C   C455      1.0  0.08738  0.68028  0.85423  1.0000
  C   C456      1.0  0.07911  0.70334  0.88838  1.0000
  H   H740      1.0  0.02640  0.78209  0.88136  1.0000
  C   C457      1.0  0.98165  0.81007  0.91213  1.0000
  H   H741      1.0  0.07349  0.66829  0.83103  1.0000
  C   C458      1.0  0.10990  0.07068  0.91418  1.0000
  H   H742      1.0  0.87156  0.65903  0.66560  1.0000
  H   H743      1.0  0.96122  0.79294  0.82514  1.0000
  C   C459      1.0  0.88976  0.74883  0.93818  1.0000
  C   C460      1.0  0.89007  0.73320  0.85358  1.0000
  H   H744      1.0  0.09139  0.73825  0.94259  1.0000
  C   C461      1.0  0.09764  0.72010  0.91643  1.0000
  S   S186      1.0  0.06146  0.09423  0.89315  1.0000
  C   C462      1.0  0.11382  0.67280  0.84951  1.0000
  H   H745      1.0  0.99825  0.81458  0.93721  1.0000
  H   H746      1.0  0.96348  0.81035  0.93413  1.0000
  H   H747      1.0  0.01184  0.75560  0.83752  1.0000
  C   C463      1.0  0.00901  0.77907  0.85764  1.0000
  H   H748      1.0  0.90581  0.10669  0.03048  1.0000
  H   H749      1.0  0.88905  0.71256  0.73509  1.0000
  H   H750      1.0  0.92444  0.65209  0.66489  1.0000
  C   C464      1.0  0.98581  0.75135  0.92159  1.0000
  S   S187      1.0  0.01075  0.10134  0.00468  1.0000
  C   C465      1.0  0.04475  0.11379  0.71275  1.0000
  H   H751      1.0  0.86894  0.67617  0.79744  1.0000
  Fe  Fe95      1.0  0.97296  0.08583  0.97132  1.0000
  S   S188      1.0  0.94994  0.04358  0.00081  1.0000
  S   S189      1.0  0.01725  0.63098  0.68392  1.0000
  C   C466      1.0  0.00291  0.11738  0.75196  1.0000
  C   C467      1.0  0.91833  0.04502  0.97768  1.0000
  C   C468      1.0  0.89804  0.02982  0.00291  1.0000
  C   C469      1.0  0.96227  0.77348  0.85336  1.0000
  C   C470      1.0  0.94159  0.64141  0.64877  1.0000
  H   H752      1.0  0.88161  0.73517  0.81795  1.0000
  C   C471      1.0  0.91302  0.06285  0.93556  1.0000
  H   H753      1.0  0.90217  0.01616  0.03564  1.0000
  H   H754      1.0  0.96797  0.75040  0.94433  1.0000
  C   C472      1.0  0.86951  0.71463  0.71791  1.0000
  H   H755      1.0  0.92867  0.07455  0.91587  1.0000
  H   H756      1.0  0.06734  0.10059  0.99743  1.0000
  C   C473      1.0  0.88634  0.11245  0.04607  1.0000
  C   C474      1.0  0.08478  0.08973  0.98274  1.0000
  C   C475      1.0  0.88738  0.06575  0.91894  1.0000
  H   H757      1.0  0.98777  0.72719  0.90310  1.0000
  H   H758      1.0  0.99206  0.11754  0.78689  1.0000
  H   H759      1.0  0.94353  0.77385  0.87356  1.0000
  C   C476      1.0  0.96583  0.64547  0.67118  1.0000
  S   S190      1.0  0.98709  0.08923  0.89495  1.0000
  H   H760      1.0  0.96344  0.74932  0.83437  1.0000
  C   C477      1.0  0.08698  0.08431  0.93291  1.0000
  Fe  Fe96      1.0  0.02372  0.10934  0.92801  1.0000
  H   H761      1.0  0.08882  0.63831  0.96239  1.0000
  H   H762      1.0  0.87264  0.71936  0.67866  1.0000
  H   H763      1.0  0.87329  0.09140  0.03764  1.0000
  H   H764      1.0  0.02461  0.07611  0.81596  1.0000
  C   C478      1.0  0.10528  0.08104  0.01380  1.0000
  H   H765      1.0  0.99402  0.09814  0.72860  1.0000
  N   N48       1.0  0.03100  0.11157  0.75959  1.0000
  C   C479      1.0  0.87230  0.03363  0.98715  1.0000
  H   H766      1.0  0.05581  0.07358  0.78808  1.0000
  H   H767      1.0  0.11172  0.06653  0.87566  1.0000
  S   S191      1.0  0.87478  0.76988  0.98595  1.0000
  C   C480      1.0  0.98799  0.63067  0.65150  1.0000
  H   H768      1.0  0.88717  0.65246  0.72297  1.0000
  S   S192      1.0  0.03178  0.62692  0.82428  1.0000
