data_image0
_chemical_formula_structural       C3SHFeS2CH2CH3C3SH4CH3S2H3CHNSFeSC2HFeCH2FeH2CFeS2FeS3CHCH2SC2HC4H5CNH4CH2SCHFe2SHCH2FeSFeCHSCHCHSHCHC2NH5CH4FeHFeSHC2FeCSHCH2C2SH2C4H5CH2NC3SHS2H3SH2C2H2CH7C2FeHSNHS2FeHC3SHCH3CSCFeCH3CH2SHCHCHC3HC2HSH3CHNH2CHCHCH3CH5CHCHC2HCSHFeH2FeCS2H2C2HC2HSHS2H2SCHCFeSCSC2HFeSHSH2Fe2NCH2SCSHC2HC2H2CH4CHSH4C3HCHNCFeHFeCSH2SHFeHCH2CHNCH2CHC2S2H3FeSCSHSCHSH3C5HCHSCHCHNCH5CH2CH2CH6FeCHC2H2SHFeHNHCSFeH6CHCHSHC2H5S4H4CSC6H3CHNCH5CHC3HCH2NHSFeHC2H2CH2CHC4FeH3CH2SC3H2FeCH3C2SH2NSCH6CHNHC3HFeH2C3H3SHC2H5CHC2SHCHFeH2C7H3CHFeSHFeH2FeH5CHS2NSHCHCFeC3SH2CH4FeH3CH4CFeS3HCHSCSC2HNCHCH3NH2CHSHFeSC2SH2CH4SH4S2HFeSHCHC2FeC3HCH2CH5CHCSH2CH2CH2C2NCFeH3FeCSHSH3FeCH4SH2FeS2H2CSHNHC3HCHSH3CH2CNC3H7NCH3SCH3CH3C3SHFeHFeSHCHCFeHSC2H3CSHSHCHNHC2HCHC2FeHCHCHNCHCHCHC2H4CHSHCNC4HCHCHCHSH3CFeSHCSH3C3NH2CH4CH2C2H9SHCHSCHCHNFe2H2C3FeH5SCFeH5CHCHCSFeSHC2H2FeC4FeH4CSNC2H2CH2CH3NS3HS2CH3CH2CH3CH2CSCHC2HC2H2CSHCSHSHFeHSCH3CHCSCHSCSHFeH5C3H3NHCHSHC2SFeHSFeH2CHC2HFe2H2NCHSHFeH2SHCH2CH2FeH2SH2SCSHCH2C7HFeHNCH4C2HCH3CH3CSH4CH4SHFeCSNH4C3HCHCS2CS2FeHC3H2C2HSH2CNCHSHCHFeH3CHSHSFeCHFeCH2CH2SH6CNSHC6H3CH3C2HSCHSH2CHC2FeH5NH4SCHCHSH2CSH2CFeHC3Fe2S3CHC3HCHCFeHCHCH5FeCS2HFeHCH5CHCH2NS2HCNCHS2HSCHC2H2FeHCH2CH3SC2SHCH2CH3C2H2Fe2CSC2FeS2NS2CSH2SHCFe2C4H3SHC3HCH3CHNC2H7NH6CSH2CHCH3CHC2SH3SC4H8CHS2CH2SH4C6HCFe2NCSH2CHFeCH2FeCHCHCHSFeSHCH3CH2NHNH2SCH2NSH2SHC6HC3H2CHCH4CNC3H3NFeCHCH7C2SH6CH2FeSHC2HCS2CHC5H2CHFeH3SH2CNSH6C3HSH3SH2SCFeSC2FeH
_chemical_formula_sum              "C480 S192 H768 Fe96 N48"
_cell_length_a       31.4737
_cell_length_b       38.4351
_cell_length_c       23.1523
_cell_angle_alpha    90.5102
_cell_angle_beta     90.6088
_cell_angle_gamma    89.1111

_space_group_name_H-M_alt    "P 1"
_space_group_IT_number       1

loop_
  _space_group_symop_operation_xyz
  'x, y, z'

loop_
  _atom_site_type_symbol
  _atom_site_label
  _atom_site_symmetry_multiplicity
  _atom_site_fract_x
  _atom_site_fract_y
  _atom_site_fract_z
  _atom_site_occupancy
  C   C1        1.0  0.24031  0.18536  0.46623  1.0000
  C   C2        1.0  0.41113  0.26601  0.60090  1.0000
  C   C3        1.0  0.23161  0.22305  0.30299  1.0000
  S   S1        1.0  0.50092  0.05889  0.48813  1.0000
  H   H1        1.0  0.23798  0.18068  0.41877  1.0000
  Fe  Fe1       1.0  0.24681  0.08337  0.35542  1.0000
  S   S2        1.0  0.20956  0.26439  0.31631  1.0000
  S   S3        1.0  0.32525  0.28994  0.37933  1.0000
  C   C4        1.0  0.22273  0.16074  0.29373  1.0000
  H   H2        1.0  0.20212  0.13850  0.29102  1.0000
  H   H3        1.0  0.27292  0.21593  0.56170  1.0000
  C   C5        1.0  0.28652  0.18994  0.54979  1.0000
  H   H4        1.0  0.31011  0.20723  0.41030  1.0000
  H   H5        1.0  0.26827  0.16983  0.57301  1.0000
  H   H6        1.0  0.22515  0.21116  0.47528  1.0000
  C   C6        1.0  0.26684  0.15595  0.29335  1.0000
  C   C7        1.0  0.29332  0.18481  0.29410  1.0000
  C   C8        1.0  0.27566  0.21838  0.29913  1.0000
  S   S4        1.0  0.65339  0.11434  0.31396  1.0000
  H   H7        1.0  0.48298  0.28381  0.73506  1.0000
  H   H8        1.0  0.29616  0.24057  0.30026  1.0000
  H   H9        1.0  0.28690  0.12850  0.49457  1.0000
  H   H10       1.0  0.33788  0.14802  0.48626  1.0000
  C   C9        1.0  0.38893  0.27239  0.54921  1.0000
  H   H11       1.0  0.34256  0.21245  0.47404  1.0000
  H   H12       1.0  0.39485  0.26787  0.64178  1.0000
  H   H13       1.0  0.30240  0.14415  0.42515  1.0000
  S   S5        1.0  0.27708  0.05766  0.43231  1.0000
  S   S6        1.0  0.22141  0.10067  0.56818  1.0000
  H   H14       1.0  0.29457  0.23763  0.46566  1.0000
  H   H15       1.0  0.31978  0.18910  0.56665  1.0000
  H   H16       1.0  0.39352  0.27469  0.45657  1.0000
  C   C10       1.0  0.30915  0.21151  0.45778  1.0000
  H   H17       1.0  0.22105  0.16526  0.48785  1.0000
  N   N1        1.0  0.28498  0.18411  0.48659  1.0000
  S   S7        1.0  0.19215  0.10740  0.40404  1.0000
  Fe  Fe2       1.0  0.21981  0.07824  0.47894  1.0000
  S   S8        1.0  0.28893  0.11409  0.29828  1.0000
  C   C11       1.0  0.41026  0.26994  0.49664  1.0000
  C   C12       1.0  0.30394  0.14969  0.47250  1.0000
  H   H18       1.0  0.32747  0.18115  0.29307  1.0000
  Fe  Fe3       1.0  0.62245  0.06781  0.35131  1.0000
  C   C13       1.0  0.20509  0.19432  0.29828  1.0000
  H   H19       1.0  0.65451  0.07877  0.61603  1.0000
  H   H20       1.0  0.54153  0.22343  0.42867  1.0000
  Fe  Fe4       1.0  0.62958  0.24661  0.71725  1.0000
  H   H21       1.0  0.55976  0.12920  0.39766  1.0000
  H   H22       1.0  0.51787  0.18771  0.28298  1.0000
  C   C14       1.0  0.53732  0.14271  0.36756  1.0000
  Fe  Fe5       1.0  0.55815  0.23416  0.63212  1.0000
  S   S9        1.0  0.52716  0.19503  0.68785  1.0000
  S   S10       1.0  0.53078  0.24612  0.54498  1.0000
  Fe  Fe6       1.0  0.59330  0.17490  0.70275  1.0000
  S   S11       1.0  0.56679  0.27340  0.70317  1.0000
  S   S12       1.0  0.62014  0.06888  0.44769  1.0000
  S   S13       1.0  0.62374  0.21087  0.64050  1.0000
  C   C15       1.0  0.45357  0.26100  0.49569  1.0000
  H   H23       1.0  0.50450  0.13608  0.38050  1.0000
  C   C16       1.0  0.47609  0.25556  0.54730  1.0000
  H   H24       1.0  0.54288  0.13157  0.32353  1.0000
  H   H25       1.0  0.59417  0.17743  0.30673  1.0000
  S   S14       1.0  0.55953  0.29696  0.33258  1.0000
  C   C17       1.0  0.51357  0.19770  0.32784  1.0000
  C   C18       1.0  0.45479  0.25789  0.59998  1.0000
  H   H26       1.0  0.51801  0.22641  0.32708  1.0000
  C   C19       1.0  0.57221  0.10101  0.64446  1.0000
  C   C20       1.0  0.52457  0.07551  0.55085  1.0000
  C   C21       1.0  0.53509  0.11067  0.55356  1.0000
  C   C22       1.0  0.55887  0.12340  0.60034  1.0000
  H   H27       1.0  0.52562  0.12793  0.51892  1.0000
  H   H28       1.0  0.56763  0.15046  0.60137  1.0000
  H   H29       1.0  0.50403  0.18991  0.44233  1.0000
  H   H30       1.0  0.50026  0.12275  0.72099  1.0000
  H   H31       1.0  0.55924  0.18293  0.45921  1.0000
  C   C23       1.0  0.58772  0.18798  0.35082  1.0000
  N   N2        1.0  0.54380  0.18072  0.36839  1.0000
  H   H32       1.0  0.48008  0.19302  0.34003  1.0000
  H   H33       1.0  0.61138  0.17553  0.38043  1.0000
  H   H34       1.0  0.64577  0.28738  0.62758  1.0000
  H   H35       1.0  0.19032  0.09018  0.68270  1.0000
  C   C24       1.0  0.53682  0.19473  0.42718  1.0000
  H   H36       1.0  0.59366  0.21647  0.35066  1.0000
  H   H37       1.0  0.47197  0.25369  0.64001  1.0000
  S   S15       1.0  0.60213  0.11718  0.70271  1.0000
  C   C25       1.0  0.56180  0.06576  0.64169  1.0000
  H   H38       1.0  0.46971  0.25842  0.45489  1.0000
  Fe  Fe7       1.0  0.25547  0.29857  0.36359  1.0000
  Fe  Fe8       1.0  0.57605  0.27702  0.24455  1.0000
  S   S16       1.0  0.33449  0.28304  0.55079  1.0000
  H   H39       1.0  0.64381  0.05299  0.71588  1.0000
  C   C26       1.0  0.53808  0.05297  0.59474  1.0000
  H   H40       1.0  0.46147  0.16085  0.85860  1.0000
  H   H41       1.0  0.46927  0.16856  0.78352  1.0000
  Fe  Fe9       1.0  0.54180  0.23168  0.76014  1.0000
  S   S17       1.0  0.21289  0.12461  0.07543  1.0000
  Fe  Fe10      1.0  0.22371  0.10072  0.98798  1.0000
  C   C27       1.0  0.28594  0.21829  0.12875  1.0000
  H   H42       1.0  0.43594  0.27233  0.90711  1.0000
  S   S18       1.0  0.18538  0.14135  0.94051  1.0000
  C   C28       1.0  0.66859  0.07088  0.22205  1.0000
  H   H43       1.0  0.66738  0.11280  0.07349  1.0000
  C   C29       1.0  0.17592  0.28350  0.01835  1.0000
  H   H44       1.0  0.57328  0.25766  0.89081  1.0000
  S   S19       1.0  0.29003  0.08396  0.96388  1.0000
  H   H45       1.0  0.54517  0.15164  0.79582  1.0000
  C   C30       1.0  0.26068  0.06400  0.17081  1.0000
  H   H46       1.0  0.25759  0.20673  0.10708  1.0000
  C   C31       1.0  0.24617  0.27025  0.15443  1.0000
  C   C32       1.0  0.28387  0.26722  0.06410  1.0000
  N   N3        1.0  0.28469  0.25670  0.12540  1.0000
  H   H47       1.0  0.65218  0.29573  0.91559  1.0000
  H   H48       1.0  0.17943  0.29128  0.06308  1.0000
  H   H49       1.0  0.48085  0.10291  0.90009  1.0000
  H   H50       1.0  0.32215  0.07032  0.09227  1.0000
  H   H51       1.0  0.34209  0.07632  0.19681  1.0000
  C   C33       1.0  0.32267  0.27112  0.15445  1.0000
  H   H52       1.0  0.44847  0.08174  0.84620  1.0000
  H   H53       1.0  0.21693  0.25851  0.13594  1.0000
  H   H54       1.0  0.58660  0.27081  0.96349  1.0000
  H   H55       1.0  0.24311  0.29903  0.15035  1.0000
  Fe  Fe11      1.0  0.64166  0.26293  0.15183  1.0000
  H   H56       1.0  0.64109  0.15445  0.07985  1.0000
  Fe  Fe12      1.0  0.55021  0.27722  0.11920  1.0000
  S   S20       1.0  0.52405  0.25001  0.19585  1.0000
  H   H57       1.0  0.31472  0.20719  0.10748  1.0000
  C   C34       1.0  0.17635  0.29853  0.91695  1.0000
  C   C35       1.0  0.49247  0.10318  0.75423  1.0000
  Fe  Fe13      1.0  0.57452  0.20987  0.17865  1.0000
  C   C36       1.0  0.48069  0.09210  0.85526  1.0000
  S   S21       1.0  0.59561  0.23393  0.09632  1.0000
  H   H58       1.0  0.59281  0.05699  0.05890  1.0000
  C   C37       1.0  0.46301  0.27480  0.82218  1.0000
  H   H59       1.0  0.53668  0.14344  0.87100  1.0000
  H   H60       1.0  0.46110  0.09202  0.74255  1.0000
  C   C38       1.0  0.46151  0.14804  0.81521  1.0000
  C   C39       1.0  0.56170  0.13233  0.12540  1.0000
  S   S22       1.0  0.60556  0.20821  0.78070  1.0000
  H   H61       1.0  0.31356  0.25914  0.04164  1.0000
  H   H62       1.0  0.26987  0.09163  0.16560  1.0000
  C   C40       1.0  0.57955  0.08294  0.06399  1.0000
  C   C41       1.0  0.56379  0.10102  0.01600  1.0000
  C   C42       1.0  0.54627  0.13444  0.02277  1.0000
  C   C43       1.0  0.54571  0.15027  0.07742  1.0000
  H   H63       1.0  0.50365  0.06975  0.85483  1.0000
  H   H64       1.0  0.53393  0.14841  0.98570  1.0000
  H   H65       1.0  0.53261  0.17629  0.08251  1.0000
  H   H66       1.0  0.53569  0.28184  0.93274  1.0000
  H   H67       1.0  0.51679  0.08196  0.75055  1.0000
  C   C44       1.0  0.46390  0.29319  0.77037  1.0000
  H   H68       1.0  0.24678  0.26419  0.20126  1.0000
  H   H69       1.0  0.55964  0.11022  0.82550  1.0000
  N   N4        1.0  0.49245  0.11873  0.81289  1.0000
  C   C45       1.0  0.53535  0.13161  0.82697  1.0000
  C   C46       1.0  0.57793  0.09846  0.11893  1.0000
  C   C47       1.0  0.57019  0.27916  0.92301  1.0000
  S   S23       1.0  0.56443  0.15319  0.19251  1.0000
  H   H70       1.0  0.25684  0.25529  0.04021  1.0000
  S   S24       1.0  0.62508  0.23485  0.23264  1.0000
  S   S25       1.0  0.56749  0.08283  0.94692  1.0000
  H   H71       1.0  0.32517  0.26273  0.20024  1.0000
  H   H72       1.0  0.28606  0.20938  0.17432  1.0000
  H   H73       1.0  0.59034  0.08466  0.15613  1.0000
  S   S26       1.0  0.49580  0.23810  0.83228  1.0000
  H   H74       1.0  0.23435  0.05853  0.13981  1.0000
  H   H75       1.0  0.35246  0.26291  0.13230  1.0000
  C   C48       1.0  0.67244  0.14142  0.07273  1.0000
  C   C49       1.0  0.43670  0.28641  0.86684  1.0000
  H   H76       1.0  0.28058  0.29596  0.05972  1.0000
  H   H77       1.0  0.64060  0.05703  0.23482  1.0000
  C   C50       1.0  0.66235  0.14389  0.96936  1.0000
  H   H78       1.0  0.24762  0.06169  0.21503  1.0000
  H   H79       1.0  0.66882  0.20516  0.02593  1.0000
  H   H80       1.0  0.63191  0.28628  0.84438  1.0000
  H   H81       1.0  0.63115  0.15763  0.97400  1.0000
  H   H82       1.0  0.65573  0.11555  0.96737  1.0000
  H   H83       1.0  0.42864  0.13933  0.80560  1.0000
  H   H84       1.0  0.32147  0.30009  0.15470  1.0000
  C   C51       1.0  0.54218  0.38972  0.40573  1.0000
  C   C52       1.0  0.30220  0.33992  0.68877  1.0000
  Fe  Fe14      1.0  0.25312  0.36700  0.42881  1.0000
  H   H85       1.0  0.41833  0.33461  0.39792  1.0000
  S   S27       1.0  0.32265  0.36531  0.45110  1.0000
  N   N5        1.0  0.31045  0.37040  0.65220  1.0000
  H   H86       1.0  0.32308  0.40454  0.72417  1.0000
  S   S28       1.0  0.37846  0.36682  0.29788  1.0000
  S   S29       1.0  0.26195  0.35344  0.33554  1.0000
  Fe  Fe15      1.0  0.33059  0.34671  0.35961  1.0000
  H   H87       1.0  0.37737  0.37025  0.67189  1.0000
  C   C53       1.0  0.49813  0.33182  0.27129  1.0000
  C   C54       1.0  0.18484  0.47422  0.31289  1.0000
  C   C55       1.0  0.44531  0.54925  0.25303  1.0000
  S   S30       1.0  0.24102  0.31240  0.45538  1.0000
  H   H88       1.0  0.32322  0.33959  0.72775  1.0000
  C   C56       1.0  0.28224  0.36953  0.60074  1.0000
  H   H89       1.0  0.28777  0.39202  0.57188  1.0000
  H   H90       1.0  0.24815  0.37037  0.61297  1.0000
  H   H91       1.0  0.44070  0.33801  0.72384  1.0000
  C   C57       1.0  0.25998  0.46034  0.31689  1.0000
  S   S31       1.0  0.66654  0.49430  0.60222  1.0000
  C   C58       1.0  0.21359  0.43863  0.39064  1.0000
  Fe  Fe16      1.0  0.31149  0.30885  0.46927  1.0000
  C   C59       1.0  0.25405  0.44125  0.36712  1.0000
  H   H92       1.0  0.28093  0.42810  0.38720  1.0000
  H   H93       1.0  0.35361  0.48094  0.25358  1.0000
  H   H94       1.0  0.29142  0.46206  0.29922  1.0000
  C   C60       1.0  0.45819  0.34777  0.26402  1.0000
  H   H95       1.0  0.49062  0.30869  0.41198  1.0000
  H   H96       1.0  0.57790  0.42968  0.32439  1.0000
  S   S32       1.0  0.66464  0.41733  0.26649  1.0000
  H   H97       1.0  0.64693  0.38159  0.37357  1.0000
  C   C61       1.0  0.22543  0.47649  0.28915  1.0000
  H   H98       1.0  0.36276  0.39170  0.60571  1.0000
  C   C62       1.0  0.48124  0.31903  0.37047  1.0000
  H   H99       1.0  0.26881  0.33987  0.70406  1.0000
  C   C63       1.0  0.61299  0.37401  0.37518  1.0000
  C   C64       1.0  0.50966  0.31732  0.32442  1.0000
  C   C65       1.0  0.35534  0.36938  0.63392  1.0000
  H   H100      1.0  0.56825  0.45474  0.38909  1.0000
  C   C66       1.0  0.42903  0.34823  0.30916  1.0000
  C   C67       1.0  0.44056  0.33391  0.36259  1.0000
  H   H101      1.0  0.62168  0.44364  0.36831  1.0000
  S   S33       1.0  0.20619  0.40981  0.44766  1.0000
  H   H102      1.0  0.30826  0.31507  0.66486  1.0000
  H   H103      1.0  0.58366  0.42758  0.48577  1.0000
  H   H104      1.0  0.52138  0.40925  0.42773  1.0000
  C   C68       1.0  0.58860  0.43382  0.36995  1.0000
  H   H105      1.0  0.52885  0.38545  0.36152  1.0000
  N   N6        1.0  0.58666  0.40130  0.40337  1.0000
  H   H106      1.0  0.50667  0.49321  0.33182  1.0000
  H   H107      1.0  0.61148  0.34887  0.39854  1.0000
  C   C69       1.0  0.30205  0.40279  0.68535  1.0000
  H   H108      1.0  0.60216  0.36901  0.32990  1.0000
  C   C70       1.0  0.46489  0.53415  0.30150  1.0000
  H   H109      1.0  0.37836  0.43937  0.26788  1.0000
  C   C71       1.0  0.49171  0.50508  0.29447  1.0000
  H   H110      1.0  0.53977  0.36470  0.42933  1.0000
  H   H111      1.0  0.60304  0.38335  0.48871  1.0000
  H   H112      1.0  0.30773  0.42626  0.65889  1.0000
  C   C72       1.0  0.60300  0.40756  0.46258  1.0000
  H   H113      1.0  0.63635  0.41682  0.46195  1.0000
  H   H114      1.0  0.61731  0.49472  0.70942  1.0000
  H   H115      1.0  0.26866  0.40423  0.70062  1.0000
  H   H116      1.0  0.64979  0.33390  0.55497  1.0000
  H   H117      1.0  0.36301  0.34506  0.60943  1.0000
  C   C73       1.0  0.66565  0.30957  0.63598  1.0000
  H   H118      1.0  0.28758  0.34539  0.57483  1.0000
  C   C74       1.0  0.50018  0.49193  0.23905  1.0000
  H   H119      1.0  0.19450  0.52793  0.45275  1.0000
  C   C75       1.0  0.17898  0.45579  0.36433  1.0000
  C   C76       1.0  0.66795  0.33593  0.59479  1.0000
  H   H120      1.0  0.53983  0.50319  0.72277  1.0000
  C   C77       1.0  0.17751  0.55154  0.46940  1.0000
  S   S34       1.0  0.45699  0.55167  0.37088  1.0000
  H   H121      1.0  0.18836  0.33469  0.98651  1.0000
  Fe  Fe17      1.0  0.24051  0.36144  0.89518  1.0000
  H   H122      1.0  0.48485  0.42376  0.95986  1.0000
  H   H123      1.0  0.39155  0.32543  0.89443  1.0000
  Fe  Fe18      1.0  0.30474  0.37463  0.99047  1.0000
  C   C78       1.0  0.40103  0.34575  0.01760  1.0000
  S   S35       1.0  0.38325  0.37378  0.80021  1.0000
  S   S36       1.0  0.30303  0.33595  0.91736  1.0000
  H   H124      1.0  0.42977  0.42626  0.97857  1.0000
  H   H125      1.0  0.46329  0.30683  0.14784  1.0000
  C   C79       1.0  0.60578  0.51403  0.73986  1.0000
  C   C80       1.0  0.40417  0.33045  0.11865  1.0000
  H   H126      1.0  0.44968  0.35906  0.22287  1.0000
  C   C81       1.0  0.38149  0.34394  0.07125  1.0000
  C   C82       1.0  0.39780  0.42491  0.15620  1.0000
  H   H127      1.0  0.52009  0.33105  0.23570  1.0000
  S   S37       1.0  0.32873  0.35854  0.07818  1.0000
  H   H128      1.0  0.38393  0.35625  0.98109  1.0000
  S   S38       1.0  0.18648  0.32880  0.86295  1.0000
  S   S39       1.0  0.60598  0.49977  0.05454  1.0000
  H   H129      1.0  0.29810  0.44808  0.19781  1.0000
  H   H130      1.0  0.42941  0.43747  0.15482  1.0000
  S   S40       1.0  0.23937  0.39673  0.97307  1.0000
  C   C83       1.0  0.44591  0.31764  0.11151  1.0000
  H   H131      1.0  0.35050  0.47101  0.09499  1.0000
  C   C84       1.0  0.46495  0.31897  0.05723  1.0000
  Fe  Fe19      1.0  0.64771  0.51769  0.12783  1.0000
  S   S41       1.0  0.26906  0.40047  0.83684  1.0000
  C   C85       1.0  0.37679  0.46129  0.23678  1.0000
  S   S42       1.0  0.25951  0.48994  0.90308  1.0000
  C   C86       1.0  0.20865  0.50862  0.81261  1.0000
  C   C87       1.0  0.36031  0.47924  0.13932  1.0000
  H   H132      1.0  0.39002  0.48269  0.97043  1.0000
  Fe  Fe20      1.0  0.33178  0.37870  0.86616  1.0000
  S   S43       1.0  0.66772  0.41343  0.99441  1.0000
  H   H133      1.0  0.55514  0.34494  0.96252  1.0000
  S   S44       1.0  0.33876  0.41545  0.94090  1.0000
  H   H134      1.0  0.17983  0.45668  0.92326  1.0000
  H   H135      1.0  0.52712  0.33000  0.86713  1.0000
  Fe  Fe21      1.0  0.18122  0.53303  0.19196  1.0000
  Fe  Fe22      1.0  0.27360  0.43372  0.91625  1.0000
  N   N7        1.0  0.36469  0.44909  0.17823  1.0000
  C   C88       1.0  0.21182  0.49027  0.86422  1.0000
  H   H136      1.0  0.23621  0.52105  0.79540  1.0000
  H   H137      1.0  0.57278  0.34872  0.83367  1.0000
  S   S45       1.0  0.23405  0.49828  0.22416  1.0000
  C   C89       1.0  0.56026  0.32452  0.85271  1.0000
  S   S46       1.0  0.59772  0.30819  0.16934  1.0000
  H   H138      1.0  0.32603  0.40749  0.20876  1.0000
  C   C90       1.0  0.49546  0.49257  0.94588  1.0000
  C   C91       1.0  0.63444  0.53343  0.77293  1.0000
  H   H139      1.0  0.43940  0.48919  0.85787  1.0000
  C   C92       1.0  0.43952  0.32373  0.76382  1.0000
  C   C93       1.0  0.44269  0.33349  0.01063  1.0000
  H   H140      1.0  0.41697  0.52069  0.94693  1.0000
  H   H141      1.0  0.40098  0.40154  0.18407  1.0000
  C   C94       1.0  0.18096  0.30816  0.97499  1.0000
  H   H142      1.0  0.38963  0.32979  0.16077  1.0000
  H   H143      1.0  0.45745  0.33468  0.96872  1.0000
  H   H144      1.0  0.38987  0.41550  0.11187  1.0000
  H   H145      1.0  0.41269  0.45092  0.88154  1.0000
  C   C95       1.0  0.58787  0.33854  0.94764  1.0000
  H   H146      1.0  0.39076  0.49339  0.13580  1.0000
  S   S47       1.0  0.60476  0.50095  0.19825  1.0000
  H   H147      1.0  0.52151  0.46981  0.23383  1.0000
  H   H148      1.0  0.40849  0.47358  0.23711  1.0000
  H   H149      1.0  0.60613  0.32926  0.98618  1.0000
  H   H150      1.0  0.46878  0.44675  0.02405  1.0000
  C   C96       1.0  0.56195  0.51866  0.74776  1.0000
  C   C97       1.0  0.42128  0.49583  0.97078  1.0000
  C   C98       1.0  0.32374  0.43086  0.18068  1.0000
  H   H151      1.0  0.31317  0.42197  0.13711  1.0000
  C   C99       1.0  0.41336  0.33544  0.80862  1.0000
  H   H152      1.0  0.46788  0.44854  0.86321  1.0000
  N   N8        1.0  0.45490  0.47364  0.94477  1.0000
  C   C100      1.0  0.45978  0.44119  0.97824  1.0000
  Fe  Fe23      1.0  0.64059  0.44842  0.06363  1.0000
  H   H153      1.0  0.49310  0.51679  0.91989  1.0000
  Fe  Fe24      1.0  0.64010  0.45000  0.19299  1.0000
  C   C101      1.0  0.45289  0.53552  0.19766  1.0000
  S   S48       1.0  0.49507  0.49299  0.12128  1.0000
  H   H154      1.0  0.33572  0.49805  0.15529  1.0000
  H   H155      1.0  0.52180  0.47646  0.92756  1.0000
  S   S49       1.0  0.59500  0.42712  0.12767  1.0000
  H   H156      1.0  0.50471  0.50015  0.99081  1.0000
  Fe  Fe25      1.0  0.56483  0.48015  0.12532  1.0000
  H   H157      1.0  0.67157  0.39326  0.11391  1.0000
  C   C102      1.0  0.44318  0.46518  0.88427  1.0000
  H   H158      1.0  0.64540  0.32997  0.86378  1.0000
  H   H159      1.0  0.42913  0.50276  0.01649  1.0000
  C   C103      1.0  0.48114  0.50737  0.19061  1.0000
  H   H160      1.0  0.60255  0.36314  0.93341  1.0000
  N   N9        1.0  0.58739  0.31201  0.90096  1.0000
  C   C104      1.0  0.54670  0.54288  0.78834  1.0000
  H   H161      1.0  0.43779  0.54735  0.16032  1.0000
  H   H162      1.0  0.66807  0.47877  0.94107  1.0000
  C   C105      1.0  0.41163  0.31656  0.85981  1.0000
  H   H163      1.0  0.31717  0.53985  0.07889  1.0000
  C   C106      1.0  0.63116  0.30573  0.88033  1.0000
  C   C107      1.0  0.17717  0.47144  0.88374  1.0000
  S   S50       1.0  0.49179  0.54739  0.79838  1.0000
  S   S51       1.0  0.51632  0.30267  0.04538  1.0000
  H   H164      1.0  0.55807  0.30459  0.81776  1.0000
  H   H165      1.0  0.21959  0.56353  0.37085  1.0000
  H   H166      1.0  0.40346  0.74861  0.60910  1.0000
  Fe  Fe26      1.0  0.35779  0.65598  0.39330  1.0000
  S   S52       1.0  0.28993  0.66670  0.41857  1.0000
  C   C108      1.0  0.36882  0.74363  0.61340  1.0000
  S   S53       1.0  0.37632  0.62615  0.31341  1.0000
  H   H167      1.0  0.18885  0.64990  0.57435  1.0000
  S   S54       1.0  0.39595  0.70284  0.37242  1.0000
  C   C109      1.0  0.48234  0.76905  0.53266  1.0000
  H   H168      1.0  0.34202  0.75381  0.47174  1.0000
  S   S55       1.0  0.40856  0.63194  0.44916  1.0000
  H   H169      1.0  0.30486  0.59005  0.58632  1.0000
  H   H170      1.0  0.36544  0.72297  0.64641  1.0000
  H   H171      1.0  0.52638  0.61184  0.62333  1.0000
  C   C110      1.0  0.45736  0.79914  0.42776  1.0000
  C   C111      1.0  0.27353  0.64823  0.48363  1.0000
  C   C112      1.0  0.29919  0.62401  0.51288  1.0000
  C   C113      1.0  0.28510  0.60914  0.56424  1.0000
  C   C114      1.0  0.24493  0.61786  0.58585  1.0000
  H   H172      1.0  0.21389  0.67651  0.48376  1.0000
  C   C115      1.0  0.23383  0.65767  0.50615  1.0000
  H   H173      1.0  0.32940  0.61598  0.49538  1.0000
  S   S56       1.0  0.22695  0.59753  0.64834  1.0000
  C   C116      1.0  0.21949  0.64247  0.55714  1.0000
  H   H174      1.0  0.35373  0.76783  0.63079  1.0000
  C   C117      1.0  0.46818  0.76361  0.43009  1.0000
  H   H175      1.0  0.36464  0.67891  0.56792  1.0000
  N   N10       1.0  0.34947  0.73330  0.55752  1.0000
  C   C118      1.0  0.30341  0.72797  0.56471  1.0000
  H   H176      1.0  0.28796  0.72054  0.52294  1.0000
  H   H177      1.0  0.29720  0.70673  0.59584  1.0000
  H   H178      1.0  0.39052  0.76532  0.50768  1.0000
  H   H179      1.0  0.28712  0.75201  0.58080  1.0000
  H   H180      1.0  0.40446  0.70346  0.53193  1.0000
  C   C119      1.0  0.36962  0.70055  0.53718  1.0000
  H   H181      1.0  0.34162  0.78613  0.52855  1.0000
  H   H182      1.0  0.35618  0.69234  0.49472  1.0000
  C   C120      1.0  0.47996  0.74842  0.48275  1.0000
  H   H183      1.0  0.38109  0.79761  0.72209  1.0000
  H   H184      1.0  0.66306  0.57287  0.61451  1.0000
  C   C121      1.0  0.35611  0.76088  0.51454  1.0000
  H   H185      1.0  0.19912  0.56495  0.50054  1.0000
  H   H186      1.0  0.36902  0.73392  0.27112  1.0000
  H   H187      1.0  0.52993  0.56700  0.60100  1.0000
  H   H188      1.0  0.48625  0.58095  0.51357  1.0000
  H   H189      1.0  0.46743  0.74799  0.39104  1.0000
  H   H190      1.0  0.48347  0.62608  0.53539  1.0000
  Fe  Fe27      1.0  0.43079  0.60610  0.36759  1.0000
  C   C122      1.0  0.50286  0.60629  0.51159  1.0000
  H   H191      1.0  0.49179  0.75751  0.57341  1.0000
  C   C123      1.0  0.57114  0.57780  0.50180  1.0000
  C   C124      1.0  0.56669  0.63813  0.53200  1.0000
  H   H192      1.0  0.65316  0.62124  0.68452  1.0000
  H   H193      1.0  0.55574  0.55193  0.50159  1.0000
  S   S57       1.0  0.47525  0.64846  0.34435  1.0000
  H   H194      1.0  0.19296  0.60393  0.35410  1.0000
  Fe  Fe28      1.0  0.41904  0.67118  0.29697  1.0000
  H   H195      1.0  0.59981  0.63726  0.54888  1.0000
  N   N11       1.0  0.54644  0.60376  0.53557  1.0000
  H   H196      1.0  0.42433  0.57149  0.25808  1.0000
  C   C125      1.0  0.66406  0.62654  0.64132  1.0000
  S   S58       1.0  0.48855  0.70336  0.48757  1.0000
  Fe  Fe29      1.0  0.44854  0.67621  0.42122  1.0000
  H   H197      1.0  0.57739  0.59087  0.61609  1.0000
  H   H198      1.0  0.50312  0.61411  0.46538  1.0000
  H   H199      1.0  0.56771  0.64747  0.48666  1.0000
  H   H200      1.0  0.57443  0.58588  0.45600  1.0000
  H   H201      1.0  0.54904  0.65828  0.55745  1.0000
  H   H202      1.0  0.60372  0.57415  0.51991  1.0000
  C   C126      1.0  0.54493  0.59288  0.59664  1.0000
  H   H203      1.0  0.22444  0.60030  0.41882  1.0000
  C   C127      1.0  0.20199  0.58611  0.39004  1.0000
  H   H204      1.0  0.28106  0.67141  0.27380  1.0000
  S   S59       1.0  0.66817  0.69450  0.67576  1.0000
  H   H205      1.0  0.33262  0.68141  0.24697  1.0000
  C   C128      1.0  0.66987  0.59916  0.60172  1.0000
  C   C129      1.0  0.67303  0.66059  0.62527  1.0000
  H   H206      1.0  0.28944  0.71227  0.23901  1.0000
  H   H207      1.0  0.32121  0.78195  0.24022  1.0000
  H   H208      1.0  0.23108  0.65923  0.12954  1.0000
  H   H209      1.0  0.30159  0.67519  0.09161  1.0000
  H   H210      1.0  0.21365  0.62536  0.77110  1.0000
  S   S60       1.0  0.39131  0.57417  0.03749  1.0000
  S   S61       1.0  0.40295  0.59498  0.87612  1.0000
  S   S62       1.0  0.19916  0.58897  0.18850  1.0000
  S   S63       1.0  0.19730  0.61616  0.02755  1.0000
  H   H211      1.0  0.30808  0.58799  0.89024  1.0000
  H   H212      1.0  0.67167  0.71189  0.88717  1.0000
  H   H213      1.0  0.25926  0.66634  0.82611  1.0000
  H   H214      1.0  0.62155  0.70584  0.92112  1.0000
  C   C130      1.0  0.29786  0.61103  0.77973  1.0000
  S   S64       1.0  0.36390  0.68618  0.81981  1.0000
  C   C131      1.0  0.33727  0.58528  0.03359  1.0000
  C   C132      1.0  0.32403  0.61591  0.00610  1.0000
  C   C133      1.0  0.28091  0.62524  0.00390  1.0000
  C   C134      1.0  0.25084  0.60358  0.02810  1.0000
  C   C135      1.0  0.26392  0.57275  0.05511  1.0000
  C   C136      1.0  0.30718  0.56369  0.05810  1.0000
  H   H215      1.0  0.34698  0.63283  0.98742  1.0000
  H   H216      1.0  0.27104  0.64968  0.98488  1.0000
  H   H217      1.0  0.25520  0.79976  0.77145  1.0000
  C   C137      1.0  0.55229  0.78966  0.00428  1.0000
  H   H218      1.0  0.59990  0.68821  0.76571  1.0000
  N   N12       1.0  0.26610  0.61058  0.82630  1.0000
  C   C138      1.0  0.26541  0.64457  0.85661  1.0000
  H   H219      1.0  0.48320  0.76512  0.83453  1.0000
  H   H220      1.0  0.55748  0.74093  0.79717  1.0000
  H   H221      1.0  0.23146  0.70032  0.16710  1.0000
  H   H222      1.0  0.55443  0.62304  0.04270  1.0000
  H   H223      1.0  0.24036  0.64562  0.89018  1.0000
  C   C139      1.0  0.34436  0.77115  0.21057  1.0000
  H   H224      1.0  0.29648  0.64974  0.87829  1.0000
  C   C140      1.0  0.29909  0.63092  0.18205  1.0000
  C   C141      1.0  0.31060  0.68559  0.13493  1.0000
  C   C142      1.0  0.61923  0.55775  0.81344  1.0000
  H   H225      1.0  0.28090  0.55706  0.84620  1.0000
  C   C143      1.0  0.37156  0.74395  0.22814  1.0000
  H   H226      1.0  0.38060  0.78158  0.07405  1.0000
  H   H227      1.0  0.51628  0.60079  0.21495  1.0000
  N   N13       1.0  0.28713  0.66825  0.18129  1.0000
  H   H228      1.0  0.29900  0.58583  0.75565  1.0000
  S   S65       1.0  0.42508  0.66097  0.96171  1.0000
  Fe  Fe30      1.0  0.41121  0.65239  0.86758  1.0000
  H   H229      1.0  0.52823  0.67057  0.10580  1.0000
  C   C144      1.0  0.24097  0.67239  0.17052  1.0000
  C   C145      1.0  0.37796  0.77112  0.11706  1.0000
  H   H230      1.0  0.29028  0.63170  0.74766  1.0000
  H   H231      1.0  0.22228  0.66122  0.20624  1.0000
  C   C146      1.0  0.40062  0.72912  0.18944  1.0000
  H   H232      1.0  0.46210  0.61752  0.14236  1.0000
  H   H233      1.0  0.33407  0.62709  0.18752  1.0000
  C   C147      1.0  0.40419  0.74308  0.13406  1.0000
  H   H234      1.0  0.44595  0.78781  0.97717  1.0000
  C   C148      1.0  0.38944  0.72538  0.80595  1.0000
  C   C149      1.0  0.42913  0.73165  0.83119  1.0000
  C   C150      1.0  0.45219  0.76079  0.81549  1.0000
  C   C151      1.0  0.48817  0.74293  0.97583  1.0000
  Fe  Fe31      1.0  0.47255  0.59107  0.85787  1.0000
  H   H235      1.0  0.25286  0.58024  0.90188  1.0000
  H   H236      1.0  0.33026  0.61608  0.79718  1.0000
  H   H237      1.0  0.62676  0.74771  0.75103  1.0000
  C   C152      1.0  0.63878  0.72270  0.89067  1.0000
  H   H238      1.0  0.59309  0.60971  0.09573  1.0000
  H   H239      1.0  0.55389  0.72055  0.86612  1.0000
  S   S66       1.0  0.54375  0.68619  0.97433  1.0000
  C   C153      1.0  0.37147  0.74965  0.76768  1.0000
  C   C154      1.0  0.27736  0.58282  0.86787  1.0000
  C   C155      1.0  0.57534  0.56266  0.82096  1.0000
  H   H240      1.0  0.28350  0.61713  0.21795  1.0000
  H   H241      1.0  0.51311  0.66164  0.17858  1.0000
  Fe  Fe32      1.0  0.49273  0.65253  0.93624  1.0000
  C   C156      1.0  0.48541  0.61095  0.10788  1.0000
  H   H242      1.0  0.56370  0.58150  0.85222  1.0000
  H   H243      1.0  0.64138  0.57296  0.83872  1.0000
  H   H244      1.0  0.22353  0.57965  0.77487  1.0000
  C   C157      1.0  0.53844  0.59441  0.17903  1.0000
  C   C158      1.0  0.53509  0.65338  0.14347  1.0000
  S   S67       1.0  0.49293  0.59471  0.95064  1.0000
  H   H245      1.0  0.53480  0.56630  0.16840  1.0000
  H   H246      1.0  0.19908  0.60192  0.83477  1.0000
  N   N14       1.0  0.52959  0.61631  0.12798  1.0000
  S   S68       1.0  0.47958  0.64799  0.84091  1.0000
  C   C159      1.0  0.55945  0.60652  0.08149  1.0000
  H   H247      1.0  0.57153  0.59781  0.19542  1.0000
  H   H248      1.0  0.34553  0.68150  0.13996  1.0000
  H   H249      1.0  0.44234  0.71391  0.86262  1.0000
  H   H250      1.0  0.64287  0.77371  0.81209  1.0000
  H   H251      1.0  0.55560  0.57888  0.06791  1.0000
  H   H252      1.0  0.57352  0.76396  0.86162  1.0000
  C   C160      1.0  0.64147  0.74660  0.79493  1.0000
  H   H253      1.0  0.64095  0.74910  0.91059  1.0000
  N   N15       1.0  0.61740  0.72392  0.83359  1.0000
  H   H254      1.0  0.48014  0.58343  0.09447  1.0000
  C   C161      1.0  0.22366  0.60409  0.80089  1.0000
  C   C162      1.0  0.57369  0.73801  0.83987  1.0000
  C   C163      1.0  0.34734  0.78460  0.15491  1.0000
  H   H255      1.0  0.42675  0.73190  0.10389  1.0000
  Fe  Fe33      1.0  0.42373  0.60302  0.96772  1.0000
  H   H256      1.0  0.66543  0.59164  0.93228  1.0000
  H   H257      1.0  0.46328  0.72527  0.96415  1.0000
  C   C164      1.0  0.47830  0.77852  0.98319  1.0000
  C   C165      1.0  0.56186  0.75408  0.99850  1.0000
  C   C166      1.0  0.52993  0.73055  0.98388  1.0000
  H   H258      1.0  0.30432  0.71419  0.13481  1.0000
  H   H259      1.0  0.59417  0.74483  0.00513  1.0000
  H   H260      1.0  0.28988  0.61780  0.14103  1.0000
  S   S69       1.0  0.42946  0.69110  0.20738  1.0000
  H   H261      1.0  0.56812  0.65856  0.15830  1.0000
  C   C167      1.0  0.43546  0.78400  0.77485  1.0000
  C   C168      1.0  0.61578  0.68835  0.80890  1.0000
  H   H262      1.0  0.59807  0.67057  0.83745  1.0000
  H   H263      1.0  0.47729  0.62774  0.07032  1.0000
  H   H264      1.0  0.24087  0.55582  0.07391  1.0000
  H   H265      1.0  0.64481  0.56273  0.02299  1.0000
  H   H266      1.0  0.64829  0.67704  0.80325  1.0000
  C   C169      1.0  0.66868  0.58250  0.02403  1.0000
  H   H267      1.0  0.34033  0.74520  0.74914  1.0000
  C   C170      1.0  0.39452  0.77912  0.75221  1.0000
  C   C171      1.0  0.29802  0.68408  0.23776  1.0000
  S   S70       1.0  0.38845  0.84221  0.62104  1.0000
  H   H268      1.0  0.22126  0.94336  0.60433  1.0000
  C   C172      1.0  0.55735  0.87920  0.50379  1.0000
  H   H269      1.0  0.25534  0.04143  0.66868  1.0000
  Fe  Fe34      1.0  0.35533  0.89111  0.64955  1.0000
  H   H270      1.0  0.21302  0.96870  0.50684  1.0000
  H   H271      1.0  0.36303  0.95933  0.40185  1.0000
  C   C173      1.0  0.24602  0.01702  0.69049  1.0000
  C   C174      1.0  0.27240  0.90871  0.57948  1.0000
  C   C175      1.0  0.29739  0.89627  0.53391  1.0000
  C   C176      1.0  0.29222  0.91021  0.47860  1.0000
  C   C177      1.0  0.26283  0.93724  0.46917  1.0000
  C   C178      1.0  0.23654  0.94859  0.51419  1.0000
  C   C179      1.0  0.24095  0.93402  0.56928  1.0000
  H   H272      1.0  0.32146  0.87642  0.54148  1.0000
  H   H273      1.0  0.31217  0.90097  0.44374  1.0000
  H   H274      1.0  0.48572  0.98174  0.47323  1.0000
  C   C180      1.0  0.66410  0.90153  0.58606  1.0000
  H   H275      1.0  0.23124  0.84978  0.71274  1.0000
  Fe  Fe35      1.0  0.43594  0.93190  0.66377  1.0000
  S   S71       1.0  0.65357  0.01506  0.34456  1.0000
  H   H276      1.0  0.61650  0.91106  0.44263  1.0000
  Fe  Fe36      1.0  0.23607  0.01252  0.40819  1.0000
  H   H277      1.0  0.55095  0.81497  0.45810  1.0000
  H   H278      1.0  0.32830  0.01617  0.66147  1.0000
  Fe  Fe37      1.0  0.55686  0.04401  0.43493  1.0000
  H   H279      1.0  0.49497  0.90241  0.26903  1.0000
  H   H280      1.0  0.64109  0.87465  0.47863  1.0000
  H   H281      1.0  0.65681  0.03523  0.58787  1.0000
  H   H282      1.0  0.54396  0.90409  0.39773  1.0000
  H   H283      1.0  0.19452  0.90265  0.34596  1.0000
  C   C181      1.0  0.45360  0.97109  0.48101  1.0000
  H   H284      1.0  0.40882  0.02598  0.44325  1.0000
  S   S72       1.0  0.38983  0.92640  0.59040  1.0000
  S   S73       1.0  0.26116  0.95764  0.40183  1.0000
  N   N16       1.0  0.42677  0.97246  0.42821  1.0000
  S   S74       1.0  0.28493  0.89624  0.65007  1.0000
  H   H285      1.0  0.45392  0.01979  0.39760  1.0000
  C   C182      1.0  0.51319  0.98135  0.71104  1.0000
  H   H286      1.0  0.53140  0.00818  0.24104  1.0000
  C   C183      1.0  0.42247  0.00890  0.40881  1.0000
  Fe  Fe38      1.0  0.42687  0.87818  0.56778  1.0000
  C   C184      1.0  0.47102  0.80442  0.53049  1.0000
  C   C185      1.0  0.51745  0.95469  0.25913  1.0000
  C   C186      1.0  0.38427  0.95862  0.44067  1.0000
  S   S75       1.0  0.64609  0.86228  0.61413  1.0000
  H   H287      1.0  0.38641  0.93104  0.45501  1.0000
  H   H288      1.0  0.47926  0.96060  0.37234  1.0000
  C   C187      1.0  0.66595  0.03185  0.70200  1.0000
  H   H289      1.0  0.44995  0.92338  0.39495  1.0000
  H   H290      1.0  0.42782  0.95211  0.34142  1.0000
  H   H291      1.0  0.47238  0.81996  0.56953  1.0000
  H   H292      1.0  0.43949  0.98690  0.51676  1.0000
  Fe  Fe39      1.0  0.43480  0.85530  0.69169  1.0000
  H   H293      1.0  0.21852  0.02348  0.71866  1.0000
  H   H294      1.0  0.36809  0.97390  0.47533  1.0000
  H   H295      1.0  0.59964  0.92904  0.68801  1.0000
  C   C188      1.0  0.31711  0.99273  0.68434  1.0000
  H   H296      1.0  0.25403  0.95081  0.72023  1.0000
  H   H297      1.0  0.52803  0.94191  0.64781  1.0000
  H   H298      1.0  0.56331  0.86681  0.35857  1.0000
  H   H299      1.0  0.57684  0.87201  0.54218  1.0000
  C   C189      1.0  0.63483  0.92859  0.57610  1.0000
  Fe  Fe40      1.0  0.58705  0.99503  0.34224  1.0000
  S   S76       1.0  0.58307  0.98983  0.43795  1.0000
  S   S77       1.0  0.56485  0.94661  0.29712  1.0000
  S   S78       1.0  0.47675  0.88664  0.63555  1.0000
  H   H300      1.0  0.40156  0.01108  0.36989  1.0000
  C   C190      1.0  0.64757  0.95897  0.54905  1.0000
  H   H301      1.0  0.55338  0.90801  0.50369  1.0000
  S   S79       1.0  0.55605  0.04813  0.33887  1.0000
  C   C191      1.0  0.53935  0.95634  0.68470  1.0000
  S   S80       1.0  0.45921  0.98430  0.69220  1.0000
  C   C192      1.0  0.44686  0.95119  0.38222  1.0000
  C   C193      1.0  0.48870  0.92773  0.25044  1.0000
  H   H302      1.0  0.23424  0.99882  0.65650  1.0000
  N   N17       1.0  0.28180  0.00145  0.72384  1.0000
  C   C194      1.0  0.17840  0.87840  0.33136  1.0000
  H   H303      1.0  0.62493  0.98000  0.54274  1.0000
  C   C195      1.0  0.58209  0.82790  0.45290  1.0000
  H   H304      1.0  0.53060  0.02559  0.59224  1.0000
  H   H305      1.0  0.22082  0.90922  0.24654  1.0000
  H   H306      1.0  0.52570  0.86776  0.51049  1.0000
  N   N18       1.0  0.57689  0.86615  0.44989  1.0000
  H   H307      1.0  0.60203  0.92591  0.58828  1.0000
  H   H308      1.0  0.30717  0.97338  0.65090  1.0000
  C   C196      1.0  0.58037  0.94985  0.70615  1.0000
  H   H309      1.0  0.63406  0.87376  0.40169  1.0000
  S   S81       1.0  0.44156  0.86322  0.47657  1.0000
  H   H310      1.0  0.45782  0.94392  0.49658  1.0000
  Fe  Fe41      1.0  0.64683  0.01503  0.44038  1.0000
  S   S82       1.0  0.18187  0.03062  0.46338  1.0000
  C   C197      1.0  0.45791  0.81940  0.47822  1.0000
  C   C198      1.0  0.54916  0.87543  0.40026  1.0000
  S   S83       1.0  0.39771  0.90112  0.72578  1.0000
  H   H311      1.0  0.51743  0.86325  0.40355  1.0000
  H   H312      1.0  0.57188  0.04832  0.67568  1.0000
  C   C199      1.0  0.61895  0.88212  0.44287  1.0000
  H   H313      1.0  0.22702  0.86285  0.23930  1.0000
  H   H314      1.0  0.64660  0.01072  0.68242  1.0000
  H   H315      1.0  0.34489  0.98129  0.70808  1.0000
  H   H316      1.0  0.32144  0.04655  0.24811  1.0000
  S   S84       1.0  0.21119  0.03639  0.32654  1.0000
  H   H317      1.0  0.20086  0.85630  0.33948  1.0000
  H   H318      1.0  0.44758  0.81064  0.38712  1.0000
  H   H319      1.0  0.60253  0.82017  0.49045  1.0000
  H   H320      1.0  0.59705  0.81707  0.41317  1.0000
  S   S85       1.0  0.37100  0.84508  0.98714  1.0000
  S   S86       1.0  0.32570  0.90864  0.06377  1.0000
  H   H321      1.0  0.31442  0.85322  0.82856  1.0000
  Fe  Fe42      1.0  0.35335  0.90165  0.97560  1.0000
  S   S87       1.0  0.31547  0.92445  0.90166  1.0000
  H   H322      1.0  0.30519  0.84747  0.75211  1.0000
  C   C200      1.0  0.29648  0.03998  0.94385  1.0000
  H   H323      1.0  0.49053  0.94076  0.88558  1.0000
  C   C201      1.0  0.30828  0.96912  0.91606  1.0000
  C   C202      1.0  0.34238  0.98878  0.93646  1.0000
  Fe  Fe43      1.0  0.62147  0.04467  0.94196  1.0000
  C   C203      1.0  0.59591  0.96922  0.75267  1.0000
  C   C204      1.0  0.26770  0.96938  0.75217  1.0000
  C   C205      1.0  0.26833  0.98512  0.90841  1.0000
  H   H324      1.0  0.37342  0.97682  0.94170  1.0000
  C   C206      1.0  0.26236  0.02047  0.92279  1.0000
  H   H325      1.0  0.24172  0.97002  0.89301  1.0000
  H   H326      1.0  0.23148  0.03265  0.91721  1.0000
  C   C207      1.0  0.23409  0.87073  0.85563  1.0000
  H   H327      1.0  0.46581  0.01833  0.18345  1.0000
  H   H328      1.0  0.27025  0.03417  0.79808  1.0000
  H   H329      1.0  0.29713  0.88928  0.78541  1.0000
  H   H330      1.0  0.31059  0.98509  0.16444  1.0000
  H   H331      1.0  0.54662  0.85378  0.79721  1.0000
  C   C208      1.0  0.22171  0.86339  0.75333  1.0000
  H   H332      1.0  0.56763  0.89632  0.78535  1.0000
  C   C209      1.0  0.28384  0.00390  0.17154  1.0000
  S   S88       1.0  0.40090  0.97184  0.14487  1.0000
  H   H333      1.0  0.53522  0.94779  0.84027  1.0000
  H   H334      1.0  0.29437  0.95602  0.77542  1.0000
  C   C210      1.0  0.33661  0.02417  0.94971  1.0000
  H   H335      1.0  0.56048  0.86235  0.90414  1.0000
  H   H336      1.0  0.58135  0.90443  0.88772  1.0000
  C   C211      1.0  0.52940  0.00192  0.75606  1.0000
  H   H337      1.0  0.42980  0.91243  0.21040  1.0000
  H   H338      1.0  0.32255  0.01516  0.79549  1.0000
  C   C212      1.0  0.31231  0.04328  0.10172  1.0000
  C   C213      1.0  0.53825  0.88201  0.79571  1.0000
  N   N19       1.0  0.24848  0.85232  0.80285  1.0000
  C   C214      1.0  0.44390  0.96583  0.19226  1.0000
  Fe  Fe44      1.0  0.39119  0.92397  0.09042  1.0000
  H   H339      1.0  0.45723  0.87596  0.82937  1.0000
  H   H340      1.0  0.25747  0.99655  0.14163  1.0000
  H   H341      1.0  0.46691  0.88222  0.90502  1.0000
  Fe  Fe45      1.0  0.34924  0.85415  0.07833  1.0000
  C   C215      1.0  0.29329  0.86083  0.79174  1.0000
  S   S89       1.0  0.41758  0.92125  0.00111  1.0000
  H   H342      1.0  0.19478  0.01558  0.81948  1.0000
  S   S90       1.0  0.41276  0.87003  0.11295  1.0000
  H   H343      1.0  0.51552  0.88563  0.75904  1.0000
  H   H344      1.0  0.26443  0.80509  0.84784  1.0000
  H   H345      1.0  0.66457  0.87525  0.87110  1.0000
  Fe  Fe46      1.0  0.43315  0.86539  0.02100  1.0000
  C   C216      1.0  0.29644  0.02649  0.76836  1.0000
  H   H346      1.0  0.34007  0.02568  0.09328  1.0000
  H   H347      1.0  0.36315  0.03916  0.96573  1.0000
  H   H348      1.0  0.58300  0.01141  0.81239  1.0000
  H   H349      1.0  0.57737  0.80763  0.01496  1.0000
  S   S91       1.0  0.31230  0.81783  0.13271  1.0000
  H   H350      1.0  0.23535  0.89948  0.85042  1.0000
  H   H351      1.0  0.59091  0.87046  0.15778  1.0000
  Fe  Fe47      1.0  0.65631  0.99031  0.86116  1.0000
  S   S92       1.0  0.61328  0.98701  0.93702  1.0000
  S   S93       1.0  0.64553  0.95821  0.78228  1.0000
  H   H352      1.0  0.60156  0.92036  0.02324  1.0000
  H   H353      1.0  0.53970  0.86600  0.12338  1.0000
  C   C217      1.0  0.56161  0.88495  0.14439  1.0000
  S   S94       1.0  0.46721  0.81793  0.75143  1.0000
  H   H354      1.0  0.22367  0.89188  0.74588  1.0000
  N   N20       1.0  0.29720  0.04004  0.16165  1.0000
  H   H355      1.0  0.53930  0.90060  0.93912  1.0000
  C   C218      1.0  0.50879  0.98751  0.23589  1.0000
  C   C219      1.0  0.50704  0.93128  0.84605  1.0000
  C   C220      1.0  0.48185  0.87359  0.86397  1.0000
  H   H356      1.0  0.25455  0.86400  0.89360  1.0000
  C   C221      1.0  0.47179  0.99318  0.20288  1.0000
  H   H357      1.0  0.49002  0.84541  0.86845  1.0000
  S   S95       1.0  0.50012  0.84683  0.00455  1.0000
  H   H358      1.0  0.62407  0.88627  0.06714  1.0000
  H   H359      1.0  0.58318  0.95065  0.17371  1.0000
  H   H360      1.0  0.66051  0.92697  0.93347  1.0000
  C   C222      1.0  0.55171  0.89025  0.89752  1.0000
  H   H361      1.0  0.20081  0.86414  0.86628  1.0000
  H   H362      1.0  0.54619  0.89475  0.18431  1.0000
  C   C223      1.0  0.57103  0.99612  0.77654  1.0000
  N   N21       1.0  0.57146  0.91376  0.10511  1.0000
  C   C224      1.0  0.59902  0.93908  0.13523  1.0000
  C   C225      1.0  0.59382  0.89951  0.05422  1.0000
  C   C226      1.0  0.53162  0.93138  0.08645  1.0000
  H   H363      1.0  0.48513  0.93574  0.80861  1.0000
  H   H364      1.0  0.60750  0.96091  0.10641  1.0000
  H   H365      1.0  0.62935  0.92670  0.15016  1.0000
  H   H366      1.0  0.57459  0.87983  0.03098  1.0000
  H   H367      1.0  0.50982  0.91300  0.06415  1.0000
  H   H368      1.0  0.53788  0.95311  0.05643  1.0000
  H   H369      1.0  0.51420  0.94257  0.12394  1.0000
  N   N22       1.0  0.51970  0.89425  0.85079  1.0000
  C   C227      1.0  0.24472  0.81436  0.81066  1.0000
  H   H370      1.0  0.18784  0.85744  0.76027  1.0000
  H   H371      1.0  0.28700  0.03651  0.06978  1.0000
  H   H372      1.0  0.24251  0.97498  0.78423  1.0000
  S   S96       1.0  0.65891  0.04820  0.86087  1.0000
  C   C228      1.0  0.45197  0.93329  0.21693  1.0000
  H   H373      1.0  0.21115  0.80704  0.81853  1.0000
  H   H374      1.0  0.50920  0.02120  0.77669  1.0000
  H   H375      1.0  0.36013  0.03172  0.19640  1.0000
  C   C229      1.0  0.33180  0.04899  0.20253  1.0000
  H   H376      1.0  0.27250  0.00051  0.21650  1.0000
  H   H377      1.0  0.30828  0.05072  0.74859  1.0000
  H   H378      1.0  0.19565  0.88653  0.18740  1.0000
  C   C230      1.0  0.51046  0.80193  0.99727  1.0000
  C   C231      1.0  0.20394  0.88494  0.23418  1.0000
  C   C232      1.0  0.92566  0.23835  0.68122  1.0000
  S   S97       1.0  0.85752  0.12179  0.59479  1.0000
  H   H379      1.0  0.96276  0.28148  0.65198  1.0000
  Fe  Fe48      1.0  0.90331  0.14638  0.65642  1.0000
  H   H380      1.0  0.03396  0.11253  0.38354  1.0000
  Fe  Fe49      1.0  0.91242  0.12065  0.53434  1.0000
  S   S98       1.0  0.87032  0.16319  0.26331  1.0000
  H   H381      1.0  0.80612  0.20558  0.55716  1.0000
  C   C233      1.0  0.75461  0.05649  0.35374  1.0000
  H   H382      1.0  0.76448  0.19832  0.26622  1.0000
  C   C234      1.0  0.79706  0.10777  0.34300  1.0000
  Fe  Fe50      1.0  0.88441  0.07115  0.62520  1.0000
  H   H383      1.0  0.76893  0.12544  0.34738  1.0000
  S   S99       1.0  0.95661  0.15022  0.59345  1.0000
  C   C235      1.0  0.68062  0.10097  0.25202  1.0000
  C   C236      1.0  0.83046  0.05343  0.37070  1.0000
  H   H384      1.0  0.81225  0.16964  0.42565  1.0000
  H   H385      1.0  0.88204  0.21807  0.34403  1.0000
  H   H386      1.0  0.75625  0.10097  0.44367  1.0000
  C   C237      1.0  0.87726  0.17989  0.44950  1.0000
  S   S100      1.0  0.83454  0.29371  0.45899  1.0000
  H   H387      1.0  0.93869  0.19816  0.47689  1.0000
  S   S101      1.0  0.89372  0.13618  0.44484  1.0000
  H   H388      1.0  0.97421  0.15238  0.26089  1.0000
  C   C238      1.0  0.98437  0.14650  0.30595  1.0000
  H   H389      1.0  0.01550  0.15916  0.31368  1.0000
  N   N23       1.0  0.78263  0.24036  0.62320  1.0000
  H   H390      1.0  0.74711  0.08252  0.65981  1.0000
  C   C239      1.0  0.79470  0.27844  0.31261  1.0000
  C   C240      1.0  0.16952  0.09812  0.59483  1.0000
  H   H391      1.0  0.05044  0.10331  0.28076  1.0000
  C   C241      1.0  0.77618  0.21827  0.29744  1.0000
  H   H392      1.0  0.69952  0.06429  0.57465  1.0000
  C   C242      1.0  0.73117  0.26397  0.25907  1.0000
  C   C243      1.0  0.94891  0.26157  0.25712  1.0000
  Fe  Fe51      1.0  0.15927  0.05749  0.38306  1.0000
  H   H393      1.0  0.80905  0.28321  0.57765  1.0000
  C   C244      1.0  0.82172  0.22426  0.44205  1.0000
  H   H394      1.0  0.93248  0.22221  0.64385  1.0000
  C   C245      1.0  0.89312  0.24044  0.46982  1.0000
  H   H395      1.0  0.82827  0.27121  0.32322  1.0000
  N   N24       1.0  0.79183  0.07550  0.37630  1.0000
  C   C246      1.0  0.83491  0.18931  0.43767  1.0000
  H   H396      1.0  0.78897  0.23145  0.43326  1.0000
  C   C247      1.0  0.89968  0.22605  0.72500  1.0000
  H   H397      1.0  0.80890  0.21021  0.31065  1.0000
  C   C248      1.0  0.85105  0.24994  0.45680  1.0000
  H   H398      1.0  0.93334  0.09781  0.26135  1.0000
  C   C249      1.0  0.16335  0.09199  0.65349  1.0000
  C   C250      1.0  0.90609  0.20538  0.46683  1.0000
  H   H399      1.0  0.79964  0.23132  0.71215  1.0000
  H   H400      1.0  0.96071  0.15907  0.33534  1.0000
  H   H401      1.0  0.17094  0.19788  0.30000  1.0000
  H   H402      1.0  0.77722  0.27959  0.35416  1.0000
  C   C251      1.0  0.93395  0.29273  0.73428  1.0000
  H   H403      1.0  0.84668  0.22750  0.59792  1.0000
  S   S102      1.0  0.93572  0.06709  0.55892  1.0000
  H   H404      1.0  0.81271  0.09861  0.45647  1.0000
  C   C252      1.0  0.90064  0.22365  0.30650  1.0000
  N   N25       1.0  0.77556  0.25332  0.27165  1.0000
  C   C253      1.0  0.00169  0.10195  0.37532  1.0000
  C   C254      1.0  0.78516  0.08431  0.43789  1.0000
  C   C255      1.0  0.72091  0.07375  0.68785  1.0000
  C   C256      1.0  0.94514  0.09308  0.30595  1.0000
  H   H405      1.0  0.00362  0.07358  0.38428  1.0000
  C   C257      1.0  0.77820  0.27005  0.58338  1.0000
  H   H406      1.0  0.81826  0.19247  0.62954  1.0000
  C   C258      1.0  0.79610  0.25309  0.68089  1.0000
  H   H407      1.0  0.92252  0.27169  0.34106  1.0000
  C   C259      1.0  0.92392  0.25416  0.30483  1.0000
  H   H408      1.0  0.75598  0.21734  0.33648  1.0000
  S   S103      1.0  0.92613  0.09553  0.69135  1.0000
  H   H409      1.0  0.73085  0.21187  0.58536  1.0000
  H   H410      1.0  0.91562  0.25999  0.48293  1.0000
  H   H411      1.0  0.76726  0.26155  0.53970  1.0000
  C   C260      1.0  0.94267  0.27186  0.68577  1.0000
  Fe  Fe52      1.0  0.97577  0.09654  0.62325  1.0000
  S   S104      1.0  0.97736  0.30050  0.25627  1.0000
  H   H412      1.0  0.82567  0.12226  0.35760  1.0000
  C   C261      1.0  0.09296  0.09644  0.57852  1.0000
  S   S105      1.0  0.03712  0.07801  0.66363  1.0000
  H   H413      1.0  0.72490  0.07235  0.35809  1.0000
  H   H414      1.0  0.06590  0.09813  0.54945  1.0000
  H   H415      1.0  0.97968  0.11411  0.40725  1.0000
  C   C262      1.0  0.08710  0.08888  0.63686  1.0000
  C   C263      1.0  0.81483  0.21543  0.60088  1.0000
  C   C264      1.0  0.13430  0.10039  0.55730  1.0000
  N   N26       1.0  0.98733  0.10858  0.31538  1.0000
  H   H416      1.0  0.85898  0.06706  0.38797  1.0000
  H   H417      1.0  0.74308  0.20113  0.65935  1.0000
  C   C265      1.0  0.12232  0.08675  0.67419  1.0000
  H   H418      1.0  0.75481  0.28980  0.59950  1.0000
  H   H419      1.0  0.13885  0.10515  0.51187  1.0000
  H   H420      1.0  0.94630  0.06440  0.31236  1.0000
  H   H421      1.0  0.92120  0.10463  0.33585  1.0000
  C   C266      1.0  0.74138  0.22278  0.62771  1.0000
  H   H422      1.0  0.71607  0.24117  0.64246  1.0000
  H   H423      1.0  0.80112  0.10214  0.29612  1.0000
  C   C267      1.0  0.90118  0.20056  0.25989  1.0000
  C   C268      1.0  0.01793  0.09281  0.27437  1.0000
  H   H424      1.0  0.02060  0.06412  0.27995  1.0000
  H   H425      1.0  0.83679  0.09647  0.71415  1.0000
  H   H426      1.0  0.11792  0.08073  0.71929  1.0000
  H   H427      1.0  0.78093  0.06044  0.46414  1.0000
  H   H428      1.0  0.77255  0.27191  0.69924  1.0000
  H   H429      1.0  0.71180  0.26555  0.29899  1.0000
  H   H430      1.0  0.82726  0.26628  0.67918  1.0000
  H   H431      1.0  0.69925  0.09638  0.69644  1.0000
  H   H432      1.0  0.72560  0.14242  0.25792  1.0000
  S   S106      1.0  0.87738  0.18473  0.72107  1.0000
  H   H433      1.0  0.73527  0.06616  0.73010  1.0000
  C   C269      1.0  0.67622  0.05626  0.60758  1.0000
  H   H434      1.0  0.06987  0.07727  0.08804  1.0000
  S   S107      1.0  0.83767  0.14091  0.10430  1.0000
  C   C270      1.0  0.90786  0.28035  0.77770  1.0000
  H   H435      1.0  0.76906  0.12032  0.17662  1.0000
  C   C271      1.0  0.90799  0.19897  0.99312  1.0000
  H   H436      1.0  0.71579  0.24504  0.22921  1.0000
  N   N27       1.0  0.69153  0.15228  0.01780  1.0000
  Fe  Fe53      1.0  0.13108  0.10554  0.95545  1.0000
  Fe  Fe54      1.0  0.91322  0.06293  0.13817  1.0000
  H   H437      1.0  0.04471  0.13344  0.79182  1.0000
  H   H438      1.0  0.92189  0.16016  0.85811  1.0000
  C   C272      1.0  0.88114  0.24693  0.05201  1.0000
  C   C273      1.0  0.88296  0.26906  0.00450  1.0000
  C   C274      1.0  0.89787  0.25635  0.95166  1.0000
  Fe  Fe55      1.0  0.16951  0.16209  0.02893  1.0000
  H   H439      1.0  0.89331  0.19521  0.08330  1.0000
  H   H440      1.0  0.16209  0.25680  0.85745  1.0000
  H   H441      1.0  0.89864  0.27322  0.91465  1.0000
  H   H442      1.0  0.75479  0.13848  0.04605  1.0000
  H   H443      1.0  0.81079  0.11384  0.81068  1.0000
  S   S108      1.0  0.85633  0.07540  0.19138  1.0000
  C   C275      1.0  0.72886  0.07657  0.15867  1.0000
  Fe  Fe56      1.0  0.87598  0.13050  0.18409  1.0000
  H   H444      1.0  0.87045  0.23767  0.80684  1.0000
  H   H445      1.0  0.98907  0.17824  0.91063  1.0000
  H   H446      1.0  0.08824  0.28720  0.11501  1.0000
  H   H447      1.0  0.72079  0.19737  0.05581  1.0000
  H   H448      1.0  0.87018  0.25681  0.09323  1.0000
  C   C276      1.0  0.82585  0.07677  0.74313  1.0000
  H   H449      1.0  0.71351  0.19925  0.97893  1.0000
  C   C277      1.0  0.79413  0.06179  0.83451  1.0000
  H   H450      1.0  0.03967  0.16442  0.88229  1.0000
  C   C278      1.0  0.81074  0.08671  0.79771  1.0000
  S   S109      1.0  0.77124  0.07482  0.90017  1.0000
  Fe  Fe57      1.0  0.15624  0.09013  0.07871  1.0000
  S   S110      1.0  0.70639  0.26997  0.11404  1.0000
  H   H451      1.0  0.69309  0.14796  0.11039  1.0000
  C   C279      1.0  0.73246  0.13362  0.00955  1.0000
  C   C280      1.0  0.74101  0.10656  0.18892  1.0000
  H   H452      1.0  0.74828  0.14140  0.96895  1.0000
  H   H453      1.0  0.92097  0.21186  0.90465  1.0000
  Fe  Fe58      1.0  0.89720  0.12380  0.05884  1.0000
  C   C281      1.0  0.89400  0.21199  0.04636  1.0000
  C   C282      1.0  0.91044  0.22141  0.94600  1.0000
  C   C283      1.0  0.16785  0.24881  0.00377  1.0000
  C   C284      1.0  0.16189  0.23931  0.94582  1.0000
  Fe  Fe59      1.0  0.82376  0.08412  0.10680  1.0000
  H   H454      1.0  0.99857  0.12457  0.74894  1.0000
  H   H455      1.0  0.15476  0.21274  0.93435  1.0000
  H   H456      1.0  0.92585  0.13730  0.79140  1.0000
  H   H457      1.0  0.92638  0.19003  0.17524  1.0000
  C   C285      1.0  0.92582  0.20780  0.21154  1.0000
  S   S111      1.0  0.92196  0.15478  0.98503  1.0000
  N   N28       1.0  0.03599  0.28540  0.05453  1.0000
  C   C286      1.0  0.98591  0.18647  0.79656  1.0000
  C   C287      1.0  0.01045  0.12683  0.79408  1.0000
  H   H458      1.0  0.96912  0.24380  0.17320  1.0000
  H   H459      1.0  0.90071  0.29643  0.81494  1.0000
  C   C288      1.0  0.79995  0.25251  0.21737  1.0000
  H   H460      1.0  0.98282  0.27168  0.00028  1.0000
  H   H461      1.0  0.97204  0.18362  0.75238  1.0000
  C   C289      1.0  0.06017  0.05850  0.11903  1.0000
  H   H462      1.0  0.72821  0.10500  0.00685  1.0000
  H   H463      1.0  0.01873  0.19633  0.79191  1.0000
  H   H464      1.0  0.96675  0.20671  0.81954  1.0000
  N   N29       1.0  0.98589  0.15301  0.82748  1.0000
  S   S112      1.0  0.75957  0.06081  0.10134  1.0000
  S   S113      1.0  0.87932  0.06732  0.05305  1.0000
  S   S114      1.0  0.17065  0.06312  0.99548  1.0000
  H   H465      1.0  0.00398  0.13317  0.91080  1.0000
  S   S115      1.0  0.08148  0.09162  0.88978  1.0000
  S   S116      1.0  0.11174  0.12974  0.03952  1.0000
  C   C290      1.0  0.95006  0.23821  0.21038  1.0000
  H   H466      1.0  0.67603  0.15109  0.92706  1.0000
  H   H467      1.0  0.07949  0.27054  0.98721  1.0000
  H   H468      1.0  0.01751  0.23586  0.01896  1.0000
  C   C291      1.0  0.16566  0.26431  0.90236  1.0000
  H   H469      1.0  0.99432  0.06264  0.09410  1.0000
  H   H470      1.0  0.94050  0.11607  0.85760  1.0000
  C   C292      1.0  0.00555  0.15753  0.88525  1.0000
  H   H471      1.0  0.78620  0.23384  0.18542  1.0000
  H   H472      1.0  0.00853  0.10068  0.81374  1.0000
  H   H473      1.0  0.71899  0.29210  0.99610  1.0000
  C   C293      1.0  0.94174  0.14108  0.83385  1.0000
  H   H474      1.0  0.04333  0.26309  0.13907  1.0000
  H   H475      1.0  0.07829  0.24492  0.08524  1.0000
  C   C294      1.0  0.89063  0.24713  0.77296  1.0000
  S   S117      1.0  0.93684  0.11769  0.13930  1.0000
  C   C295      1.0  0.00310  0.26061  0.03543  1.0000
  H   H476      1.0  0.98154  0.25395  0.07133  1.0000
  C   C296      1.0  0.06254  0.26944  0.10055  1.0000
  C   C297      1.0  0.71642  0.11912  0.23486  1.0000
  H   H477      1.0  0.79987  0.27840  0.19642  1.0000
  C   C298      1.0  0.69895  0.19017  0.01961  1.0000
  C   C299      1.0  0.10212  0.05907  0.84446  1.0000
  H   H478      1.0  0.16692  0.06707  0.87147  1.0000
  H   H479      1.0  0.83362  0.24448  0.22510  1.0000
  C   C300      1.0  0.06315  0.29408  0.00511  1.0000
  S   S118      1.0  0.16622  0.21793  0.05884  1.0000
  H   H480      1.0  0.00834  0.09752  0.22870  1.0000
  C   C301      1.0  0.69235  0.05898  0.17475  1.0000
  S   S119      1.0  0.14362  0.05478  0.15320  1.0000
  H   H481      1.0  0.72929  0.28988  0.23794  1.0000
  S   S120      1.0  0.68605  0.27905  0.73899  1.0000
  H   H482      1.0  0.79576  0.48430  0.26265  1.0000
  Fe  Fe60      1.0  0.88372  0.32831  0.42118  1.0000
  H   H483      1.0  0.03003  0.49772  0.41023  1.0000
  S   S121      1.0  0.87911  0.34065  0.32693  1.0000
  C   C302      1.0  0.07592  0.33383  0.32701  1.0000
  H   H484      1.0  0.03277  0.43729  0.59873  1.0000
  H   H485      1.0  0.82183  0.38079  0.70445  1.0000
  H   H486      1.0  0.72674  0.37707  0.32992  1.0000
  C   C303      1.0  0.07965  0.35804  0.71234  1.0000
  H   H487      1.0  0.16722  0.37945  0.34107  1.0000
  C   C304      1.0  0.71476  0.34077  0.69781  1.0000
  S   S122      1.0  0.89100  0.38385  0.44873  1.0000
  C   C305      1.0  0.85316  0.39164  0.69285  1.0000
  H   H488      1.0  0.14958  0.54252  0.49401  1.0000
  S   S123      1.0  0.85941  0.44189  0.31799  1.0000
  C   C306      1.0  0.78507  0.40578  0.32710  1.0000
  S   S124      1.0  0.75593  0.48244  0.52885  1.0000
  H   H489      1.0  0.84531  0.48742  0.42186  1.0000
  Fe  Fe61      1.0  0.71209  0.52659  0.55300  1.0000
  H   H490      1.0  0.87181  0.34018  0.57520  1.0000
  H   H491      1.0  0.79445  0.30520  0.29470  1.0000
  H   H492      1.0  0.05156  0.49940  0.59381  1.0000
  H   H493      1.0  0.93119  0.47466  0.69565  1.0000
  H   H494      1.0  0.10051  0.33442  0.71442  1.0000
  C   C307      1.0  0.80471  0.43582  0.30748  1.0000
  C   C308      1.0  0.78082  0.46084  0.27731  1.0000
  C   C309      1.0  0.71810  0.42519  0.28388  1.0000
  H   H495      1.0  0.95350  0.51946  0.38920  1.0000
  H   H496      1.0  0.05054  0.32487  0.35631  1.0000
  H   H497      1.0  0.94495  0.48809  0.50907  1.0000
  N   N30       1.0  0.90229  0.51350  0.44898  1.0000
  H   H498      1.0  0.71915  0.47544  0.24360  1.0000
  C   C310      1.0  0.74180  0.40045  0.31519  1.0000
  H   H499      1.0  0.91453  0.52345  0.53922  1.0000
  S   S125      1.0  0.75155  0.46022  0.66671  1.0000
  H   H500      1.0  0.10481  0.32154  0.43455  1.0000
  C   C311      1.0  0.83051  0.40044  0.59403  1.0000
  C   C312      1.0  0.73755  0.45562  0.26577  1.0000
  S   S126      1.0  0.86004  0.49689  0.62408  1.0000
  Fe  Fe62      1.0  0.70836  0.50647  0.67861  1.0000
  H   H501      1.0  0.79851  0.38984  0.60265  1.0000
  S   S127      1.0  0.75013  0.54234  0.63049  1.0000
  Fe  Fe63      1.0  0.78967  0.49535  0.61155  1.0000
  H   H502      1.0  0.08793  0.37274  0.67289  1.0000
  H   H503      1.0  0.15226  0.53388  0.36053  1.0000
  C   C313      1.0  0.86762  0.48890  0.45947  1.0000
  H   H504      1.0  0.07501  0.40231  0.35525  1.0000
  C   C314      1.0  0.90447  0.48111  0.72299  1.0000
  C   C315      1.0  0.86707  0.49506  0.69904  1.0000
  H   H505      1.0  0.06019  0.35012  0.29320  1.0000
  Fe  Fe64      1.0  0.89315  0.39514  0.35434  1.0000
  Fe  Fe65      1.0  0.09271  0.54176  0.70613  1.0000
  H   H506      1.0  0.15786  0.48579  0.29081  1.0000
  H   H507      1.0  0.80314  0.38664  0.35138  1.0000
  N   N31       1.0  0.86354  0.38449  0.63169  1.0000
  C   C316      1.0  0.69269  0.36525  0.60564  1.0000
  H   H508      1.0  0.06421  0.37664  0.41780  1.0000
  S   S128      1.0  0.95362  0.31649  0.42099  1.0000
  H   H509      1.0  0.73283  0.34270  0.73771  1.0000
  Fe  Fe66      1.0  0.94974  0.33281  0.32822  1.0000
  H   H510      1.0  0.12833  0.38168  0.28409  1.0000
  H   H511      1.0  0.88027  0.46216  0.46714  1.0000
  S   S129      1.0  0.96391  0.38878  0.34682  1.0000
  H   H512      1.0  0.89032  0.33377  0.64791  1.0000
  C   C317      1.0  0.90544  0.39930  0.61871  1.0000
  H   H513      1.0  0.90526  0.42805  0.62479  1.0000
  H   H514      1.0  0.95814  0.53227  0.49292  1.0000
  C   C318      1.0  0.92619  0.50216  0.39734  1.0000
  H   H515      1.0  0.82856  0.42908  0.60057  1.0000
  H   H516      1.0  0.11349  0.39901  0.41292  1.0000
  Fe  Fe67      1.0  0.96076  0.37318  0.43990  1.0000
  H   H517      1.0  0.73570  0.38978  0.66571  1.0000
  H   H518      1.0  0.85171  0.42012  0.70205  1.0000
  S   S130      1.0  0.13169  0.53577  0.62632  1.0000
  H   H519      1.0  0.87756  0.38010  0.72251  1.0000
  H   H520      1.0  0.93086  0.38829  0.64736  1.0000
  S   S131      1.0  0.00400  0.38913  0.51236  1.0000
  C   C319      1.0  0.71629  0.36753  0.65710  1.0000
  S   S132      1.0  0.05254  0.54717  0.49838  1.0000
  H   H521      1.0  0.91509  0.39368  0.57347  1.0000
  C   C320      1.0  0.93123  0.51433  0.49968  1.0000
  H   H522      1.0  0.83429  0.33444  0.63236  1.0000
  H   H523      1.0  0.14752  0.45360  0.38211  1.0000
  C   C321      1.0  0.86499  0.34650  0.62131  1.0000
  C   C322      1.0  0.01967  0.43250  0.50752  1.0000
  C   C323      1.0  0.01899  0.44956  0.45439  1.0000
  C   C324      1.0  0.03046  0.48458  0.45138  1.0000
  C   C325      1.0  0.04196  0.50269  0.50166  1.0000
  C   C326      1.0  0.04307  0.48553  0.55469  1.0000
  C   C327      1.0  0.03225  0.45037  0.55753  1.0000
  H   H524      1.0  0.00997  0.43583  0.41554  1.0000
  Fe  Fe68      1.0  0.71389  0.45095  0.58552  1.0000
  H   H525      1.0  0.15353  0.34484  0.42843  1.0000
  N   N32       1.0  0.10899  0.35332  0.35893  1.0000
  C   C328      1.0  0.83316  0.50417  0.73495  1.0000
  H   H526      1.0  0.93895  0.47516  0.40218  1.0000
  H   H527      1.0  0.84886  0.49677  0.49801  1.0000
  H   H528      1.0  0.80445  0.51546  0.71713  1.0000
  H   H529      1.0  0.83710  0.39555  0.54763  1.0000
  C   C329      1.0  0.08953  0.38418  0.38733  1.0000
  C   C330      1.0  0.14193  0.36454  0.31833  1.0000
  H   H530      1.0  0.14433  0.30731  0.38343  1.0000
  C   C331      1.0  0.12875  0.33068  0.40329  1.0000
  H   H531      1.0  0.90562  0.50231  0.35790  1.0000
  H   H532      1.0  0.06465  0.42742  0.72351  1.0000
  H   H533      1.0  0.15774  0.34182  0.29680  1.0000
  C   C332      1.0  0.88404  0.54866  0.43941  1.0000
  H   H534      1.0  0.08954  0.31032  0.30515  1.0000
  H   H535      1.0  0.04631  0.34908  0.70669  1.0000
  H   H536      1.0  0.10783  0.54530  0.40478  1.0000
  C   C333      1.0  0.68889  0.31206  0.68762  1.0000
  S   S133      1.0  0.69392  0.39824  0.55378  1.0000
  H   H537      1.0  0.86196  0.54891  0.40149  1.0000
  H   H538      1.0  0.13757  0.40930  0.73592  1.0000
  H   H539      1.0  0.82760  0.32750  0.12014  1.0000
  H   H540      1.0  0.78002  0.46248  0.89837  1.0000
  C   C334      1.0  0.84486  0.39338  0.08906  1.0000
  H   H541      1.0  0.07532  0.37517  0.85659  1.0000
  H   H542      1.0  0.86571  0.36425  0.19055  1.0000
  H   H543      1.0  0.14640  0.53913  0.96435  1.0000
  H   H544      1.0  0.84900  0.40855  0.20241  1.0000
  S   S134      1.0  0.96941  0.40588  0.85535  1.0000
  H   H545      1.0  0.77859  0.48786  0.99719  1.0000
  Fe  Fe69      1.0  0.90195  0.34418  0.94631  1.0000
  C   C335      1.0  0.01527  0.31749  0.07700  1.0000
  S   S135      1.0  0.87631  0.36744  0.86417  1.0000
  N   N33       1.0  0.81530  0.38212  0.13416  1.0000
  H   H546      1.0  0.78809  0.43321  0.14794  1.0000
  H   H547      1.0  0.87330  0.37581  0.08693  1.0000
  H   H548      1.0  0.78548  0.34534  0.07677  1.0000
  H   H549      1.0  0.82958  0.39285  0.04544  1.0000
  C   C336      1.0  0.80066  0.34662  0.12043  1.0000
  C   C337      1.0  0.13485  0.49257  0.80293  1.0000
  C   C338      1.0  0.83750  0.38211  0.19070  1.0000
  H   H550      1.0  0.68548  0.33712  0.16028  1.0000
  C   C339      1.0  0.12882  0.39117  0.77092  1.0000
  H   H551      1.0  0.81615  0.37376  0.22575  1.0000
  C   C340      1.0  0.68505  0.50201  0.92578  1.0000
  S   S136      1.0  0.87098  0.46741  0.88951  1.0000
  S   S137      1.0  0.92607  0.39428  0.98190  1.0000
  C   C341      1.0  0.70245  0.31072  0.08115  1.0000
  S   S138      1.0  0.11790  0.54358  0.23273  1.0000
  S   S139      1.0  0.08561  0.49827  0.76874  1.0000
  Fe  Fe70      1.0  0.90647  0.41650  0.89658  1.0000
  H   H552      1.0  0.73720  0.47162  0.84847  1.0000
  C   C342      1.0  0.05586  0.41061  0.76032  1.0000
  C   C343      1.0  0.75281  0.52911  0.91116  1.0000
  C   C344      1.0  0.87155  0.48110  0.81753  1.0000
  H   H553      1.0  0.75497  0.39819  0.16936  1.0000
  H   H554      1.0  0.73294  0.51292  0.02043  1.0000
  C   C345      1.0  0.77833  0.40628  0.13639  1.0000
  C   C346      1.0  0.83546  0.49738  0.79406  1.0000
  H   H555      1.0  0.16792  0.52446  0.74252  1.0000
  S   S140      1.0  0.86786  0.31282  0.01163  1.0000
  H   H556      1.0  0.07014  0.51225  0.89142  1.0000
  H   H557      1.0  0.80841  0.50317  0.82078  1.0000
  C   C347      1.0  0.90655  0.47392  0.78226  1.0000
  N   N34       1.0  0.73163  0.49736  0.93095  1.0000
  C   C348      1.0  0.74514  0.46731  0.89492  1.0000
  H   H558      1.0  0.14116  0.54458  0.88779  1.0000
  S   S141      1.0  0.68701  0.46864  0.12894  1.0000
  H   H559      1.0  0.93526  0.46292  0.80051  1.0000
  C   C349      1.0  0.74352  0.49099  0.99191  1.0000
  H   H560      1.0  0.74406  0.53510  0.86562  1.0000
  Fe  Fe71      1.0  0.09407  0.54765  0.14161  1.0000
  H   H561      1.0  0.99525  0.31209  0.11523  1.0000
  H   H562      1.0  0.77702  0.33770  0.15218  1.0000
  H   H563      1.0  0.76127  0.40731  0.09405  1.0000
  C   C350      1.0  0.68445  0.37461  0.02778  1.0000
  H   H564      1.0  0.70293  0.34884  0.94869  1.0000
  S   S142      1.0  0.15583  0.53159  0.10097  1.0000
  H   H565      1.0  0.99446  0.32991  0.04361  1.0000
  S   S143      1.0  0.96424  0.32691  0.90860  1.0000
  Fe  Fe72      1.0  0.94127  0.35500  0.82954  1.0000
  C   C351      1.0  0.70864  0.31430  0.02168  1.0000
  H   H566      1.0  0.09452  0.33638  0.82176  1.0000
  Fe  Fe73      1.0  0.98644  0.37907  0.93753  1.0000
  C   C352      1.0  0.07286  0.35933  0.81614  1.0000
  H   H567      1.0  0.05734  0.42706  0.80012  1.0000
  H   H568      1.0  0.72916  0.44304  0.90827  1.0000
  C   C353      1.0  0.68969  0.33950  0.11416  1.0000
  H   H569      1.0  0.04442  0.30632  0.96956  1.0000
  H   H570      1.0  0.72882  0.46687  0.00801  1.0000
  S   S144      1.0  0.04964  0.38530  0.98036  1.0000
  H   H571      1.0  0.08075  0.50752  0.96730  1.0000
  H   H572      1.0  0.08810  0.31301  0.01783  1.0000
  H   H573      1.0  0.03156  0.52676  0.94258  1.0000
  H   H574      1.0  0.78805  0.52618  0.91391  1.0000
  H   H575      1.0  0.15142  0.36864  0.76991  1.0000
  H   H576      1.0  0.11141  0.45894  0.86926  1.0000
  C   C354      1.0  0.04685  0.42607  0.01437  1.0000
  N   N35       1.0  0.08432  0.37979  0.76495  1.0000
  S   S145      1.0  0.03128  0.52925  0.10958  1.0000
  H   H577      1.0  0.10366  0.41844  0.06574  1.0000
  C   C355      1.0  0.07709  0.43569  0.05598  1.0000
  C   C356      1.0  0.07246  0.46748  0.08577  1.0000
  C   C357      1.0  0.03734  0.48924  0.07425  1.0000
  C   C358      1.0  0.00747  0.47971  0.03232  1.0000
  C   C359      1.0  0.01277  0.44856  0.00156  1.0000
  C   C360      1.0  0.69946  0.34631  0.99489  1.0000
  H   H578      1.0  0.09545  0.47469  0.11857  1.0000
  H   H579      1.0  0.98061  0.49672  0.02283  1.0000
  H   H580      1.0  0.99039  0.44216  0.96777  1.0000
  C   C361      1.0  0.13855  0.47264  0.85308  1.0000
  H   H581      1.0  0.03973  0.34973  0.81267  1.0000
  H   H582      1.0  0.13428  0.40483  0.81285  1.0000
  H   H583      1.0  0.85629  0.42024  0.09743  1.0000
  C   C362      1.0  0.06628  0.52507  0.93422  1.0000
  C   C363      1.0  0.68127  0.37140  0.08764  1.0000
  H   H584      1.0  0.03916  0.33721  0.09021  1.0000
  S   S146      1.0  0.68935  0.52653  0.76597  1.0000
  C   C364      1.0  0.17013  0.50996  0.78215  1.0000
  H   H585      1.0  0.02225  0.40294  0.75321  1.0000
  S   S147      1.0  0.95487  0.33455  0.74054  1.0000
  H   H586      1.0  0.67497  0.50623  0.88024  1.0000
  H   H587      1.0  0.67359  0.52469  0.95132  1.0000
  C   C365      1.0  0.14142  0.60557  0.44555  1.0000
  H   H588      1.0  0.86573  0.55792  0.47765  1.0000
  C   C366      1.0  0.12963  0.72980  0.69409  1.0000
  C   C367      1.0  0.74118  0.73311  0.27681  1.0000
  Fe  Fe74      1.0  0.97396  0.79741  0.35799  1.0000
  H   H589      1.0  0.01379  0.79545  0.61617  1.0000
  H   H590      1.0  0.74578  0.65190  0.33389  1.0000
  H   H591      1.0  0.16132  0.61979  0.47729  1.0000
  H   H592      1.0  0.12271  0.57347  0.34780  1.0000
  H   H593      1.0  0.87997  0.70683  0.63828  1.0000
  N   N36       1.0  0.75347  0.69584  0.27808  1.0000
  H   H594      1.0  0.93643  0.78511  0.69303  1.0000
  H   H595      1.0  0.81932  0.58848  0.69850  1.0000
  H   H596      1.0  0.70270  0.68313  0.33537  1.0000
  H   H597      1.0  0.72567  0.59790  0.72914  1.0000
  S   S148      1.0  0.03663  0.56679  0.66234  1.0000
  C   C368      1.0  0.68689  0.66730  0.56925  1.0000
  H   H598      1.0  0.07096  0.79550  0.62109  1.0000
  C   C369      1.0  0.11566  0.75929  0.72465  1.0000
  H   H599      1.0  0.11181  0.59806  0.46764  1.0000
  S   S149      1.0  0.69284  0.57131  0.49736  1.0000
  H   H600      1.0  0.74161  0.66069  0.71643  1.0000
  H   H601      1.0  0.99351  0.72510  0.66860  1.0000
  C   C370      1.0  0.80479  0.61513  0.69896  1.0000
  S   S150      1.0  0.67450  0.76818  0.56060  1.0000
  H   H602      1.0  0.92618  0.67522  0.71310  1.0000
  H   H603      1.0  0.75453  0.74745  0.31466  1.0000
  C   C371      1.0  0.69194  0.63998  0.52930  1.0000
  Fe  Fe75      1.0  0.77553  0.78830  0.65149  1.0000
  H   H604      1.0  0.90342  0.73009  0.51134  1.0000
  C   C372      1.0  0.80028  0.69232  0.27635  1.0000
  C   C373      1.0  0.68403  0.60584  0.54578  1.0000
  C   C374      1.0  0.87801  0.76959  0.38455  1.0000
  Fe  Fe76      1.0  0.69976  0.74093  0.63906  1.0000
  Fe  Fe77      1.0  0.74259  0.76701  0.53347  1.0000
  S   S151      1.0  0.75900  0.75521  0.44137  1.0000
  S   S152      1.0  0.71044  0.78978  0.68957  1.0000
  S   S153      1.0  0.76702  0.73617  0.60915  1.0000
  C   C375      1.0  0.90310  0.75588  0.42919  1.0000
  H   H605      1.0  0.82484  0.72883  0.51730  1.0000
  C   C376      1.0  0.81441  0.75451  0.43600  1.0000
  C   C377      1.0  0.83366  0.76871  0.38764  1.0000
  C   C378      1.0  0.73780  0.68018  0.33180  1.0000
  H   H606      1.0  0.70291  0.64524  0.48615  1.0000
  C   C379      1.0  0.88397  0.74087  0.47693  1.0000
  H   H607      1.0  0.75207  0.69285  0.37077  1.0000
  C   C380      1.0  0.83956  0.74041  0.48049  1.0000
  Fe  Fe78      1.0  0.07782  0.56492  0.58413  1.0000
  H   H608      1.0  0.07536  0.75613  0.53620  1.0000
  C   C381      1.0  0.88586  0.73088  0.66397  1.0000
  H   H609      1.0  0.88282  0.75344  0.63420  1.0000
  C   C382      1.0  0.06596  0.73221  0.26562  1.0000
  H   H610      1.0  0.15849  0.73067  0.66918  1.0000
  H   H611      1.0  0.69380  0.69353  0.55647  1.0000
  H   H612      1.0  0.85992  0.73381  0.69609  1.0000
  H   H613      1.0  0.13208  0.62417  0.41095  1.0000
  H   H614      1.0  0.90940  0.56787  0.43136  1.0000
  Fe  Fe79      1.0  0.06977  0.61677  0.68161  1.0000
  C   C383      1.0  0.10738  0.67874  0.26038  1.0000
  S   S154      1.0  0.10610  0.61751  0.59867  1.0000
  S   S155      1.0  0.12269  0.63899  0.29113  1.0000
  H   H615      1.0  0.78159  0.61651  0.66225  1.0000
  Fe  Fe80      1.0  0.15644  0.58857  0.64911  1.0000
  H   H616      1.0  0.81077  0.66461  0.27913  1.0000
  C   C384      1.0  0.04731  0.77005  0.51725  1.0000
  H   H617      1.0  0.06500  0.69202  0.32975  1.0000
  H   H618      1.0  0.95839  0.69829  0.62735  1.0000
  H   H619      1.0  0.11623  0.67693  0.67000  1.0000
  H   H620      1.0  0.83036  0.63395  0.69026  1.0000
  H   H621      1.0  0.01829  0.75582  0.52957  1.0000
  C   C385      1.0  0.07845  0.70030  0.28940  1.0000
  H   H622      1.0  0.95923  0.74439  0.61474  1.0000
  C   C386      1.0  0.96122  0.72419  0.64885  1.0000
  H   H623      1.0  0.04949  0.76798  0.46932  1.0000
  H   H624      1.0  0.81558  0.70676  0.31279  1.0000
  N   N37       1.0  0.92800  0.72975  0.69277  1.0000
  S   S156      1.0  0.95832  0.75855  0.42588  1.0000
  S   S157      1.0  0.96192  0.79444  0.26248  1.0000
  H   H625      1.0  0.04217  0.74777  0.28717  1.0000
  C   C387      1.0  0.92944  0.70099  0.73476  1.0000
  N   N38       1.0  0.16417  0.57481  0.42181  1.0000
  C   C388      1.0  0.93535  0.76301  0.72354  1.0000
  H   H626      1.0  0.89298  0.78111  0.34789  1.0000
  S   S158      1.0  0.12221  0.59202  0.73337  1.0000
  S   S159      1.0  0.14344  0.79818  0.71938  1.0000
  H   H627      1.0  0.70608  0.73679  0.27775  1.0000
  S   S160      1.0  0.03472  0.66223  0.72043  1.0000
  C   C389      1.0  0.10563  0.69939  0.69438  1.0000
  H   H628      1.0  0.81446  0.78016  0.35355  1.0000
  C   C390      1.0  0.13554  0.55598  0.38194  1.0000
  C   C391      1.0  0.06763  0.69852  0.72509  1.0000
  H   H629      1.0  0.14549  0.67215  0.18415  1.0000
  H   H630      1.0  0.02292  0.78393  0.05399  1.0000
  Fe  Fe81      1.0  0.76092  0.69314  0.93458  1.0000
  H   H631      1.0  0.96997  0.72153  0.08633  1.0000
  C   C392      1.0  0.71040  0.62527  0.97437  1.0000
  H   H632      1.0  0.90973  0.76882  0.75529  1.0000
  H   H633      1.0  0.73149  0.62670  0.11876  1.0000
  C   C393      1.0  0.72832  0.63566  0.02715  1.0000
  H   H634      1.0  0.76351  0.57018  0.76551  1.0000
  H   H635      1.0  0.73342  0.60207  0.80555  1.0000
  H   H636      1.0  0.75151  0.65607  0.02873  1.0000
  S   S161      1.0  0.72661  0.64455  0.91029  1.0000
  C   C394      1.0  0.11243  0.72177  0.18454  1.0000
  C   C395      1.0  0.83673  0.78396  0.20983  1.0000
  S   S162      1.0  0.82275  0.69707  0.98286  1.0000
  H   H637      1.0  0.74352  0.64964  0.22666  1.0000
  C   C396      1.0  0.07591  0.57711  0.99131  1.0000
  H   H638      1.0  0.09074  0.60317  0.99486  1.0000
  H   H639      1.0  0.74692  0.66427  0.79322  1.0000
  C   C397      1.0  0.76462  0.65814  0.75293  1.0000
  H   H640      1.0  0.84115  0.64000  0.79678  1.0000
  H   H641      1.0  0.99439  0.75705  0.00318  1.0000
  H   H642      1.0  0.99789  0.74954  0.13576  1.0000
  C   C398      1.0  0.13241  0.55616  0.93015  1.0000
  C   C399      1.0  0.73471  0.67781  0.22740  1.0000
  H   H643      1.0  0.94216  0.74248  0.14488  1.0000
  H   H644      1.0  0.90726  0.79320  0.01707  1.0000
  Fe  Fe82      1.0  0.83812  0.73798  0.91814  1.0000
  Fe  Fe83      1.0  0.75009  0.77015  0.92335  1.0000
  C   C400      1.0  0.81902  0.78296  0.15419  1.0000
  S   S163      1.0  0.81084  0.78216  0.97025  1.0000
  C   C401      1.0  0.07873  0.75790  0.75745  1.0000
  C   C402      1.0  0.12370  0.68907  0.20723  1.0000
  Fe  Fe84      1.0  0.79070  0.74079  0.03140  1.0000
  S   S164      1.0  0.72727  0.73290  0.98913  1.0000
  S   S165      1.0  0.79734  0.74394  0.12818  1.0000
  N   N39       1.0  0.08579  0.55981  0.93576  1.0000
  S   S166      1.0  0.77906  0.72982  0.86505  1.0000
  S   S167      1.0  0.90354  0.73716  0.87988  1.0000
  C   C403      1.0  0.68010  0.59905  0.97287  1.0000
  S   S168      1.0  0.67541  0.57070  0.14037  1.0000
  H   H645      1.0  0.08793  0.56132  0.02811  1.0000
  H   H646      1.0  0.90385  0.70398  0.76733  1.0000
  S   S169      1.0  0.10433  0.60487  0.13431  1.0000
  H   H647      1.0  0.69941  0.67982  0.22727  1.0000
  C   C404      1.0  0.81546  0.62077  0.80214  1.0000
  Fe  Fe85      1.0  0.16803  0.58868  0.10138  1.0000
  Fe  Fe86      1.0  0.13411  0.59963  0.22166  1.0000
  C   C405      1.0  0.05475  0.72754  0.75766  1.0000
  C   C406      1.0  0.71694  0.61908  0.07817  1.0000
  C   C407      1.0  0.75023  0.59716  0.76412  1.0000
  C   C408      1.0  0.96725  0.74607  0.11197  1.0000
  H   H648      1.0  0.67480  0.73705  0.78978  1.0000
  H   H649      1.0  0.04103  0.58044  0.99744  1.0000
  H   H650      1.0  0.96592  0.76260  0.74805  1.0000
  S   S170      1.0  0.07110  0.78527  0.18839  1.0000
  H   H651      1.0  0.07506  0.56817  0.84507  1.0000
  C   C409      1.0  0.68767  0.59210  0.07648  1.0000
  C   C410      1.0  0.08387  0.74356  0.21423  1.0000
  C   C411      1.0  0.06852  0.58090  0.88759  1.0000
  H   H652      1.0  0.80048  0.62626  0.84469  1.0000
  C   C412      1.0  0.99155  0.78025  0.03210  1.0000
  H   H653      1.0  0.08275  0.60722  0.88708  1.0000
  H   H654      1.0  0.06893  0.77999  0.78340  1.0000
  H   H655      1.0  0.99088  0.75400  0.86449  1.0000
  C   C413      1.0  0.97371  0.77782  0.87464  1.0000
  H   H656      1.0  0.74583  0.68921  0.18617  1.0000
  N   N40       1.0  0.95730  0.77617  0.07458  1.0000
  C   C414      1.0  0.91651  0.77041  0.04395  1.0000
  C   C415      1.0  0.92990  0.77706  0.88413  1.0000
  H   H657      1.0  0.14826  0.58176  0.93394  1.0000
  H   H658      1.0  0.96004  0.70033  0.75922  1.0000
  H   H659      1.0  0.91831  0.74731  0.01461  1.0000
  H   H660      1.0  0.02630  0.72653  0.78317  1.0000
  H   H661      1.0  0.12589  0.73018  0.14429  1.0000
  H   H662      1.0  0.03343  0.58431  0.89077  1.0000
  H   H663      1.0  0.83052  0.59439  0.80453  1.0000
  N   N41       1.0  0.78383  0.62283  0.75457  1.0000
  H   H664      1.0  0.89021  0.76607  0.07477  1.0000
  H   H665      1.0  0.81298  0.70274  0.23536  1.0000
  H   H666      1.0  0.78900  0.67848  0.74772  1.0000
  H   H667      1.0  0.83531  0.76157  0.23750  1.0000
  H   H668      1.0  0.74371  0.55218  0.93790  1.0000
  H   H669      1.0  0.75286  0.74589  0.23717  1.0000
  C   C416      1.0  0.87276  0.83473  0.62525  1.0000
  S   S171      1.0  0.70400  0.99887  0.49226  1.0000
  H   H670      1.0  0.15050  0.93498  0.27504  1.0000
  H   H671      1.0  0.74981  0.03183  0.37766  1.0000
  C   C417      1.0  0.89464  0.84729  0.72370  1.0000
  H   H672      1.0  0.74595  0.00735  0.68627  1.0000
  C   C418      1.0  0.70882  0.88857  0.73546  1.0000
  H   H673      1.0  0.02496  0.00526  0.49637  1.0000
  H   H674      1.0  0.91154  0.85692  0.55895  1.0000
  H   H675      1.0  0.70537  0.86392  0.71072  1.0000
  C   C419      1.0  0.92838  0.86695  0.70345  1.0000
  H   H676      1.0  0.81463  0.89881  0.71440  1.0000
  C   C420      1.0  0.71941  0.93608  0.54359  1.0000
  C   C421      1.0  0.70665  0.90571  0.57117  1.0000
  S   S172      1.0  0.84210  0.02936  0.65642  1.0000
  H   H677      1.0  0.15029  0.87490  0.35949  1.0000
  H   H678      1.0  0.75215  0.93890  0.53074  1.0000
  H   H679      1.0  0.72973  0.88560  0.58026  1.0000
  S   S173      1.0  0.01532  0.86817  0.25496  1.0000
  C   C422      1.0  0.82536  0.04177  0.72575  1.0000
  C   C423      1.0  0.90666  0.85450  0.60494  1.0000
  C   C424      1.0  0.14457  0.84757  0.25240  1.0000
  C   C425      1.0  0.72788  0.01581  0.64739  1.0000
  H   H680      1.0  0.03294  0.94255  0.51300  1.0000
  H   H681      1.0  0.75136  0.02355  0.61441  1.0000
  H   H682      1.0  0.13758  0.93341  0.40545  1.0000
  H   H683      1.0  0.08649  0.82416  0.46979  1.0000
  H   H684      1.0  0.77940  0.86956  0.67796  1.0000
  H   H685      1.0  0.82751  0.02874  0.39510  1.0000
  H   H686      1.0  0.08244  0.85299  0.53060  1.0000
  H   H687      1.0  0.69680  0.90997  0.70728  1.0000
  C   C426      1.0  0.01510  0.98285  0.60573  1.0000
  H   H688      1.0  0.85190  0.82177  0.59482  1.0000
  S   S174      1.0  0.95303  0.85323  0.36667  1.0000
  S   S175      1.0  0.09938  0.88672  0.67386  1.0000
  C   C427      1.0  0.05172  0.00989  0.52717  1.0000
  H   H689      1.0  0.77081  0.91575  0.67220  1.0000
  H   H690      1.0  0.00978  0.00845  0.62761  1.0000
  S   S176      1.0  0.98037  0.89120  0.61939  1.0000
  H   H691      1.0  0.12155  0.98984  0.58585  1.0000
  H   H692      1.0  0.08136  0.01100  0.50138  1.0000
  H   H693      1.0  0.01624  0.96267  0.63988  1.0000
  H   H694      1.0  0.06122  0.92683  0.57499  1.0000
  C   C428      1.0  0.06988  0.93587  0.39138  1.0000
  C   C429      1.0  0.11060  0.94946  0.39275  1.0000
  C   C430      1.0  0.11680  0.98387  0.37733  1.0000
  C   C431      1.0  0.08218  0.00583  0.36537  1.0000
  C   C432      1.0  0.04117  0.99220  0.36296  1.0000
  C   C433      1.0  0.03509  0.95682  0.37494  1.0000
  H   H695      1.0  0.14863  0.99336  0.37547  1.0000
  C   C434      1.0  0.78073  0.89464  0.70230  1.0000
  Fe  Fe87      1.0  0.94795  0.85193  0.26957  1.0000
  Fe  Fe88      1.0  0.02156  0.86411  0.35132  1.0000
  N   N42       1.0  0.05453  0.98250  0.57154  1.0000
  C   C435      1.0  0.68948  0.96222  0.53094  1.0000
  S   S177      1.0  0.06359  0.89292  0.41236  1.0000
  H   H696      1.0  0.98670  0.97751  0.57814  1.0000
  H   H697      1.0  0.08776  0.01445  0.63345  1.0000
  C   C436      1.0  0.04277  0.80828  0.60027  1.0000
  H   H698      1.0  0.09484  0.96866  0.64376  1.0000
  Fe  Fe89      1.0  0.69178  0.81707  0.60806  1.0000
  C   C437      1.0  0.05994  0.94819  0.54300  1.0000
  H   H699      1.0  0.08965  0.94681  0.51739  1.0000
  H   H700      1.0  0.04647  0.03596  0.54728  1.0000
  Fe  Fe90      1.0  0.02935  0.88898  0.69012  1.0000
  C   C438      1.0  0.93495  0.87012  0.64410  1.0000
  H   H701      1.0  0.71101  0.99268  0.63052  1.0000
  C   C439      1.0  0.09130  0.98909  0.61023  1.0000
  H   H702      1.0  0.00347  0.94613  0.37358  1.0000
  C   C440      1.0  0.86713  0.83078  0.68472  1.0000
  H   H703      1.0  0.04143  0.83565  0.61594  1.0000
  S   S178      1.0  0.04278  0.80865  0.34886  1.0000
  Fe  Fe91      1.0  0.02922  0.81096  0.25418  1.0000
  S   S179      1.0  0.75775  0.81884  0.57302  1.0000
  H   H704      1.0  0.01425  0.00890  0.35264  1.0000
  C   C441      1.0  0.08356  0.82499  0.51767  1.0000
  H   H705      1.0  0.11296  0.81320  0.53675  1.0000
  H   H706      1.0  0.00712  0.82213  0.46334  1.0000
  H   H707      1.0  0.00538  0.85209  0.52242  1.0000
  C   C442      1.0  0.00705  0.82392  0.51118  1.0000
  H   H708      1.0  0.87192  0.81427  0.27200  1.0000
  H   H709      1.0  0.83664  0.04651  0.32472  1.0000
  N   N43       1.0  0.69776  0.04448  0.66112  1.0000
  H   H710      1.0  0.97719  0.81181  0.52594  1.0000
  N   N44       1.0  0.04516  0.80678  0.53660  1.0000
  H   H711      1.0  0.10650  0.90684  0.28675  1.0000
  H   H712      1.0  0.75797  0.04987  0.30706  1.0000
  S   S180      1.0  0.82849  0.80307  0.71186  1.0000
  C   C443      1.0  0.13599  0.90994  0.26121  1.0000
  H   H713      1.0  0.11576  0.84304  0.27863  1.0000
  H   H714      1.0  0.16603  0.82450  0.25778  1.0000
  N   N45       1.0  0.16573  0.88020  0.26975  1.0000
  S   S181      1.0  0.09073  0.05051  0.35938  1.0000
  H   H715      1.0  0.94943  0.87956  0.73403  1.0000
  H   H716      1.0  0.84319  0.97489  0.18958  1.0000
  S   S182      1.0  0.71677  0.98363  0.91090  1.0000
  H   H717      1.0  0.78502  0.91166  0.09704  1.0000
  C   C444      1.0  0.67621  0.90401  0.94956  1.0000
  C   C445      1.0  0.01725  0.05009  0.12244  1.0000
  C   C446      1.0  0.79597  0.97601  0.05682  1.0000
  C   C447      1.0  0.86202  0.84219  0.19325  1.0000
  C   C448      1.0  0.69903  0.84448  0.93358  1.0000
  C   C449      1.0  0.79416  0.02677  0.81736  1.0000
  H   H718      1.0  0.80183  0.86681  0.80284  1.0000
  C   C450      1.0  0.85948  0.94462  0.08713  1.0000
  C   C451      1.0  0.71620  0.84348  0.98965  1.0000
  C   C452      1.0  0.01408  0.02087  0.95776  1.0000
  H   H719      1.0  0.74959  0.86576  0.83329  1.0000
  H   H720      1.0  0.73562  0.92766  0.82413  1.0000
  C   C453      1.0  0.79197  0.93197  0.13020  1.0000
  H   H721      1.0  0.76197  0.83947  0.77166  1.0000
  C   C454      1.0  0.71337  0.87301  0.02572  1.0000
  H   H722      1.0  0.73147  0.81996  0.00534  1.0000
  H   H723      1.0  0.80536  0.81262  0.07759  1.0000
  H   H724      1.0  0.72637  0.87212  0.06911  1.0000
  H   H725      1.0  0.08759  0.01742  0.01787  1.0000
  C   C455      1.0  0.84245  0.84208  0.13871  1.0000
  N   N46       1.0  0.04102  0.98959  0.96766  1.0000
  C   C456      1.0  0.69405  0.90359  0.00516  1.0000
  C   C457      1.0  0.14557  0.05115  0.84619  1.0000
  C   C458      1.0  0.67835  0.87453  0.91408  1.0000
  H   H726      1.0  0.87705  0.93202  0.12369  1.0000
  H   H727      1.0  0.78933  0.95677  0.02180  1.0000
  H   H728      1.0  0.94610  0.83135  0.08394  1.0000
  N   N47       1.0  0.81845  0.95971  0.10633  1.0000
  Fe  Fe92      1.0  0.71550  0.04147  0.91885  1.0000
  C   C459      1.0  0.75628  0.92745  0.78538  1.0000
  H   H729      1.0  0.81054  0.98965  0.75042  1.0000
  C   C460      1.0  0.09009  0.04298  0.15608  1.0000
  H   H730      1.0  0.78286  0.00728  0.84621  1.0000
  H   H731      1.0  0.06987  0.99529  0.75210  1.0000
  H   H732      1.0  0.09808  0.01503  0.94199  1.0000
  H   H733      1.0  0.88046  0.96501  0.06969  1.0000
  H   H734      1.0  0.84554  0.86415  0.11057  1.0000
  H   H735      1.0  0.79623  0.99877  0.16627  1.0000
  H   H736      1.0  0.81449  0.99761  0.03826  1.0000
  C   C461      1.0  0.81006  0.01675  0.76330  1.0000
  C   C462      1.0  0.82644  0.98631  0.15141  1.0000
  S   S183      1.0  0.69063  0.94113  0.04877  1.0000
  H   H737      1.0  0.76471  0.98737  0.07000  1.0000
  H   H738      1.0  0.02937  0.80973  0.87143  1.0000
  H   H739      1.0  0.76078  0.94257  0.14514  1.0000
  H   H740      1.0  0.89055  0.84420  0.76976  1.0000
  H   H741      1.0  0.84678  0.00729  0.13474  1.0000
  H   H742      1.0  0.99172  0.96223  0.01106  1.0000
  C   C463      1.0  0.02516  0.97046  0.01797  1.0000
  H   H743      1.0  0.87395  0.80797  0.90208  1.0000
  H   H744      1.0  0.80804  0.91893  0.16749  1.0000
  Fe  Fe93      1.0  0.04002  0.88199  0.81853  1.0000
  S   S184      1.0  0.00088  0.87938  0.89839  1.0000
  H   H745      1.0  0.68145  0.02139  0.74170  1.0000
  C   C464      1.0  0.03959  0.96679  0.91591  1.0000
  C   C465      1.0  0.03409  0.00863  0.19764  1.0000
  H   H746      1.0  0.05914  0.94268  0.92201  1.0000
  C   C466      1.0  0.97367  0.84001  0.89373  1.0000
  S   S185      1.0  0.95023  0.01598  0.16673  1.0000
  S   S186      1.0  0.11106  0.87923  0.81558  1.0000
  C   C467      1.0  0.00417  0.02526  0.16180  1.0000
  H   H747      1.0  0.02467  0.03549  0.91934  1.0000
  C   C468      1.0  0.76735  0.86536  0.79207  1.0000
  C   C469      1.0  0.92991  0.83930  0.90342  1.0000
  C   C470      1.0  0.13406  0.00143  0.78318  1.0000
  C   C471      1.0  0.09093  0.01035  0.77913  1.0000
  C   C472      1.0  0.08530  0.00026  0.97895  1.0000
  H   H748      1.0  0.09999  0.00598  0.22453  1.0000
  H   H749      1.0  0.01543  0.03916  0.99525  1.0000
  C   C473      1.0  0.07703  0.01789  0.19537  1.0000
  H   H750      1.0  0.05181  0.98018  0.87724  1.0000
  Fe  Fe94      1.0  0.10429  0.92200  0.75076  1.0000
  H   H751      1.0  0.98545  0.80326  0.00416  1.0000
  H   H752      1.0  0.98023  0.01400  0.95034  1.0000
  H   H753      1.0  0.85480  0.92453  0.05285  1.0000
  S   S187      1.0  0.03372  0.92849  0.76129  1.0000
  H   H754      1.0  0.91278  0.86315  0.91364  1.0000
  H   H755      1.0  0.68730  0.88736  0.77313  1.0000
  C   C474      1.0  0.07489  0.03911  0.80994  1.0000
  N   N48       1.0  0.75335  0.89400  0.75377  1.0000
  S   S188      1.0  0.89616  0.87570  0.21368  1.0000
  H   H756      1.0  0.04458  0.94654  0.02630  1.0000
  H   H757      1.0  0.00658  0.95848  0.90571  1.0000
  H   H758      1.0  0.02610  0.98675  0.05793  1.0000
  H   H759      1.0  0.10673  0.97740  0.98615  1.0000
  H   H760      1.0  0.04134  0.04536  0.80756  1.0000
  H   H761      1.0  0.78940  0.93246  0.80015  1.0000
  C   C475      1.0  0.85794  0.81361  0.22930  1.0000
  C   C476      1.0  0.90794  0.80796  0.89747  1.0000
  C   C477      1.0  0.82063  0.81252  0.11940  1.0000
  H   H762      1.0  0.02397  0.98949  0.22842  1.0000
  S   S189      1.0  0.03043  0.84269  0.74774  1.0000
  H   H763      1.0  0.68274  0.03591  0.15117  1.0000
  H   H764      1.0  0.74549  0.94960  0.75796  1.0000
  H   H765      1.0  0.92851  0.80578  0.14309  1.0000
  S   S190      1.0  0.15356  0.96343  0.75003  1.0000
  H   H766      1.0  0.12617  0.91251  0.21511  1.0000
  H   H767      1.0  0.98422  0.81324  0.13414  1.0000
  S   S191      1.0  0.70440  0.80904  0.88632  1.0000
  C   C478      1.0  0.95393  0.80806  0.11047  1.0000
  Fe  Fe95      1.0  0.67453  0.98453  0.98779  1.0000
  S   S192      1.0  0.67841  0.04236  0.00109  1.0000
  C   C479      1.0  0.16148  0.02224  0.81588  1.0000
  C   C480      1.0  0.99550  0.80930  0.87880  1.0000
  Fe  Fe96      1.0  0.10110  0.84412  0.73903  1.0000
  H   H768      1.0  0.13415  0.84805  0.20627  1.0000
