data_image0
_chemical_formula_structural       FeH3CH3CFeCNC2FeH8C2HS2HCFeHCHSC2HCH2C4HSH5SFeH2CH2CFeHSC2H4CSH3CH3N2HSH6CH3C4NSCHSCHCH2CH3C2HSC2SHCHNH2CH2CS3HCHC3H2FeH2CHCHCHC2HCHC2SH2SH6C2H4FeSHSFeCSHSHFeSHNH2FeHC4HCSHCHCSH3FeCHC2H2SNC2H2SH2SCH2NH3CHSC3HFeH3SCSHSHFeH2SHSH2FeHCHSCH2NCFeSH2C2H3CFeCHCH3S2HFeCFeH3CH3C2H2CHC2HSHC3H2CHSC4HSHC2H2C2HCH4CH2FeHCH2CHCH2NHCHNHCHCHCHSC2FeC3H2CHCH2C2H3S2HSCH3FeCS2HFeH2C2SH7NH2FeHCHC2HCFeHCH6SH3C3SHNCSH2CHSNCNC2FeHNHCH2SH3C2H3FeHCSCH2C4H3CHFeH2CFeCHCSH2SHCS3HSH3NH5CH2NCSH2CSNS2HCSHFeH2CSHCH4SHCHSHCH2CSHFeCFeSHCFeHC2SFeCHCFeHC2H3CFeH4CHSH4NHSCH2CHSFe2NH2CHSHCHCH3C2NH2CH2FeH4C4H2C3H2C3FeH2C2HCHSH2SCSH2CHCH3CSNSH2C2H4CH3C3FeC2H4CH2CS2H2FeSH3CSH2CFeSHFeSH2C3H2CHSCSC2HCH2CHFeCHCSHSH2CH5SH2FeCHC2SHSHC2FeH4C2H4CSH4C5H3C5HNSCSH2CH2SH4C2H4CHCHC2HFeS2HCHNH4FeHC2SHCFeHCSHCHCFeHFeSH3CH2SCHCH4CH5SHCSH2NH3FeH2S2H3C3FeCS2HSHC2H3CH2FeHCSHCH2C2FeC5HC2HNCH2CH2C2HNHC2H2CH2CHSHNHCHC3HC2HSHCHCH2CH2CH2CFeH4CHCHCH2SCHCHFeH3CHC2S2C3HCHCH6C2H2SH2NC2H2SCH4SCNSCH2CNCHFeH3C2HC2H3C3H4FeSCSCHCFeHCHFe2CSHCFeHCHSH4CSHCFeHNCSCH3SCSCH2SH2SHCH6NSHSCSFeH2CHCHCHFeH3CHSH6CHFeSHCSHFeH4CHSH2FeC3H8SH2CHFeCH2CHNSC3FeHCHC3SFeSHCHNCSC2SH2CH5CS2FeH3C3SHFe2H2CHS2HC2H2SCH2CHCSH4CFeH4S2CSHSH3C2HCHSHCHCH2C2HC3H2CH4SH3SC2H4SCFe2H3NCSC2HC5HCSH2C2NCHCHCHC2H2CH3SHCHFeCSHFeCHFeH3CHSCH2CH2S2CHNCHC2FeHCFeC2S3H3SH2FeCNCFeH3CSH2SHNSCH3C2H6SHNCH4CH4CHS2CH3C2FeCH5NHCSHCH3CHC4FeS2CH5CHCH2NC3SCH6CHSFeCH4CSNH2CHFeC2S3C4H5SHSCNFeCFe2CHSHC2H5CH3C2HS2HSHFe2C2HCH3CFe2C2HCH2SH2CS2CSHCHCHC2Fe2H2S2HCHS2H2CSFeHCHSCHCSH2C2HNHCSHC3HCH2NH5CHC2H8FeCH3CH3SH2CNH2CH5S2HCSH3SCH2SHC2NCHSCHSCH2CHCH2CHFeHCS2CHC2HCH5C2H2CHFeNH2FeCFeCNS3H3CHCSH2C2H6CSH4FeCSC2H4SCHCHC3FeH2CH2C2SFeCHCHCH2C5H4FeHSCHC3HCHCH2NCHCH2CH2CH4CHCFeH2SCH2CSCH2SCH2CHSH3CHCH4CH2C2S2HCHFe2CFeH4NHCFeNHCHCHCSC2HSCHFeCFeNCH2CH2S2H2C3HS3CH3C2SH3CH4CH2CH4CFe2NCH3CFeHC2HSCH2FeSCHSH8C4HC4H2NH2SCSHCSCHFeC3S2CH6SC2SC2HNCHC3SCNCFeNHCHCH2CSH2SC2HCHCFeH3FeH2C3H2SNH3SFe2SCHCH3FeC2HCSHC2HSHSH2CHSCH3CSHS2H3SC2FeCHFeCH2CHCHFeC2H5SHCHCSC2HC2H3FeNC2H4SC2SC2HCHCHCHFeCH2FeCHC3H2SFeNHNSH3FeHSC2FeS2CSH2C2HC2SHSH2SCSHCHCFeCSFeH6SH3CH2NH4FeCHSH2SC4FeCH6NHCHC2HC4HC4H4CH2NC2NSCH7CHCSH3CH3CH3CNC2H3C3H2C2HCH3CFe2H6SH2SH2CH2SH3SC3SC2H2SHNH2SCSHNHCHCHCFeCH2CSH7FeC2H4S
_chemical_formula_sum              "Fe144 H1152 C720 N72 S288"
_cell_length_a       42.9867
_cell_length_b       41.111
_cell_length_c       29.6671
_cell_angle_alpha    61.8779
_cell_angle_beta     55.4797
_cell_angle_gamma    57.4373

_space_group_name_H-M_alt    "P 1"
_space_group_IT_number       1

loop_
  _space_group_symop_operation_xyz
  'x, y, z'

loop_
  _atom_site_type_symbol
  _atom_site_label
  _atom_site_symmetry_multiplicity
  _atom_site_fract_x
  _atom_site_fract_y
  _atom_site_fract_z
  _atom_site_occupancy
  Fe  Fe1       1.0  0.93437  0.19659  0.01946  1.0000
  H   H1        1.0  0.03552  0.23605  0.03760  1.0000
  H   H2        1.0  0.85907  0.42419  0.99352  1.0000
  H   H3        1.0  0.98938  0.44081  0.06841  1.0000
  C   C1        1.0  0.85636  0.39738  0.02879  1.0000
  H   H4        1.0  0.86082  0.39883  0.06104  1.0000
  H   H5        1.0  0.84648  0.10781  0.11361  1.0000
  H   H6        1.0  0.84530  0.56913  0.91744  1.0000
  C   C2        1.0  0.96905  0.52930  0.09204  1.0000
  Fe  Fe2       1.0  0.93920  0.27328  0.00551  1.0000
  C   C3        1.0  0.06924  0.36029  0.09298  1.0000
  N   N1        1.0  0.09219  0.24174  0.97002  1.0000
  C   C4        1.0  0.79990  0.50981  0.11468  1.0000
  C   C5        1.0  0.00519  0.50759  0.09956  1.0000
  Fe  Fe3       1.0  0.87176  0.24590  0.10773  1.0000
  H   H7        1.0  0.81767  0.31072  0.05818  1.0000
  H   H8        1.0  0.07747  0.37397  0.10739  1.0000
  H   H9        1.0  0.83823  0.33231  0.09149  1.0000
  H   H10       1.0  0.79507  0.13394  0.12178  1.0000
  H   H11       1.0  0.00999  0.54752  0.94933  1.0000
  H   H12       1.0  0.94069  0.11002  0.07194  1.0000
  H   H13       1.0  0.81534  0.36406  0.13565  1.0000
  H   H14       1.0  0.06353  0.28089  0.02276  1.0000
  C   C6        1.0  0.81383  0.38922  0.00969  1.0000
  C   C7        1.0  0.91367  0.07299  0.00461  1.0000
  H   H15       1.0  0.88192  0.37076  0.01275  1.0000
  S   S1        1.0  0.95833  0.32456  0.94282  1.0000
  S   S2        1.0  0.91165  0.18148  0.11343  1.0000
  H   H16       1.0  0.79080  0.32182  0.99584  1.0000
  C   C8        1.0  0.79234  0.30293  0.07573  1.0000
  Fe  Fe4       1.0  0.85182  0.42062  0.15487  1.0000
  H   H17       1.0  0.84769  0.54868  0.00677  1.0000
  C   C9        1.0  0.03067  0.20639  0.15327  1.0000
  H   H18       1.0  0.82336  0.20849  0.11365  1.0000
  S   S3        1.0  0.93666  0.16771  0.96848  1.0000
  C   C10       1.0  0.82719  0.23403  0.92225  1.0000
  C   C11       1.0  0.08169  0.28004  0.97747  1.0000
  H   H19       1.0  0.98867  0.40117  0.13110  1.0000
  C   C12       1.0  0.11221  0.09177  0.06431  1.0000
  H   H20       1.0  0.10361  0.08409  0.04279  1.0000
  H   H21       1.0  0.97381  0.39450  0.91722  1.0000
  C   C13       1.0  0.03795  0.07919  0.05637  1.0000
  C   C14       1.0  0.04301  0.50103  0.05283  1.0000
  C   C15       1.0  0.93282  0.09997  0.05333  1.0000
  C   C16       1.0  0.92020  0.10879  0.97783  1.0000
  H   H22       1.0  0.05429  0.43802  0.98308  1.0000
  S   S4        1.0  0.83385  0.46838  0.08568  1.0000
  H   H23       1.0  0.89580  0.55305  0.97464  1.0000
  H   H24       1.0  0.01354  0.43372  0.10709  1.0000
  H   H25       1.0  0.83984  0.21384  0.95421  1.0000
  H   H26       1.0  0.98096  0.11514  0.11009  1.0000
  H   H27       1.0  0.09992  0.39456  0.98194  1.0000
  S   S5        1.0  0.89171  0.25997  0.01476  1.0000
  Fe  Fe5       1.0  0.07891  0.43786  0.15003  1.0000
  H   H28       1.0  0.08837  0.12060  0.07526  1.0000
  H   H29       1.0  0.06061  0.18436  0.13677  1.0000
  C   C17       1.0  0.97078  0.54345  0.03785  1.0000
  H   H30       1.0  0.05813  0.07268  0.94121  1.0000
  H   H31       1.0  0.97971  0.43749  0.90876  1.0000
  C   C18       1.0  0.00164  0.08536  0.10561  1.0000
  Fe  Fe6       1.0  0.95898  0.20000  0.09555  1.0000
  H   H32       1.0  0.80487  0.19858  0.08230  1.0000
  S   S6        1.0  0.91680  0.26351  0.09758  1.0000
  C   C19       1.0  0.04458  0.51587  0.99868  1.0000
  C   C20       1.0  0.03714  0.37108  0.03914  1.0000
  H   H33       1.0  0.03526  0.25978  0.96918  1.0000
  H   H34       1.0  0.10960  0.28519  0.96138  1.0000
  H   H35       1.0  0.00850  0.08724  0.94885  1.0000
  H   H36       1.0  0.10081  0.20886  0.04624  1.0000
  C   C21       1.0  0.00774  0.41775  0.09282  1.0000
  S   S7        1.0  0.08859  0.47275  0.06128  1.0000
  H   H37       1.0  0.01702  0.35489  0.07527  1.0000
  H   H38       1.0  0.04467  0.10438  0.02288  1.0000
  H   H39       1.0  0.82891  0.26325  0.91037  1.0000
  C   C22       1.0  0.04130  0.07273  0.92342  1.0000
  H   H40       1.0  0.83967  0.36282  0.99319  1.0000
  H   H41       1.0  0.81413  0.41547  0.97312  1.0000
  H   H42       1.0  0.07366  0.51088  0.96233  1.0000
  N   N2        1.0  0.81665  0.39475  0.05282  1.0000
  N   N3        1.0  0.81166  0.15446  0.15681  1.0000
  H   H43       1.0  0.06115  0.20706  0.98796  1.0000
  S   S8        1.0  0.11027  0.14441  0.92120  1.0000
  H   H44       1.0  0.02141  0.39309  0.01107  1.0000
  H   H45       1.0  0.06331  0.30529  0.95414  1.0000
  H   H46       1.0  0.78628  0.45844  0.03486  1.0000
  H   H47       1.0  0.85651  0.17094  0.07483  1.0000
  H   H48       1.0  0.05130  0.34261  0.13122  1.0000
  H   H49       1.0  0.02479  0.53556  0.15168  1.0000
  C   C23       1.0  0.81327  0.36069  0.10251  1.0000
  H   H50       1.0  0.91866  0.12558  0.93768  1.0000
  H   H51       1.0  0.07955  0.42795  0.02251  1.0000
  H   H52       1.0  0.93984  0.53432  0.12816  1.0000
  C   C24       1.0  0.05442  0.23594  0.99212  1.0000
  C   C25       1.0  0.07101  0.41386  0.00926  1.0000
  C   C26       1.0  0.86232  0.56987  0.99050  1.0000
  C   C27       1.0  0.82464  0.18437  0.10458  1.0000
  N   N4        1.0  0.04628  0.39076  0.05858  1.0000
  S   S9        1.0  0.00344  0.16919  0.13424  1.0000
  C   C28       1.0  0.81497  0.12242  0.14269  1.0000
  H   H53       1.0  0.06545  0.34901  0.01574  1.0000
  S   S10       1.0  0.98439  0.21081  0.00189  1.0000
  C   C29       1.0  0.00855  0.53651  0.99130  1.0000
  H   H54       1.0  0.85898  0.15716  0.92216  1.0000
  C   C30       1.0  0.92895  0.12271  0.00273  1.0000
  H   H55       1.0  0.00373  0.49584  0.14154  1.0000
  H   H56       1.0  0.05209  0.24353  0.15318  1.0000
  C   C31       1.0  0.11689  0.20902  0.00091  1.0000
  H   H57       1.0  0.79440  0.23873  0.94299  1.0000
  H   H58       1.0  0.09832  0.33912  0.06858  1.0000
  H   H59       1.0  0.10850  0.09950  0.15181  1.0000
  C   C32       1.0  0.11590  0.24193  0.90951  1.0000
  C   C33       1.0  0.00980  0.56838  0.14373  1.0000
  H   H60       1.0  0.81420  0.18203  0.90979  1.0000
  S   S11       1.0  0.05999  0.46285  0.21813  1.0000
  C   C34       1.0  0.91315  0.46089  0.32776  1.0000
  C   C35       1.0  0.94366  0.56453  0.21111  1.0000
  S   S12       1.0  0.80586  0.30410  0.29079  1.0000
  H   H61       1.0  0.91705  0.17111  0.22808  1.0000
  C   C36       1.0  0.98683  0.26831  0.18342  1.0000
  H   H62       1.0  0.87029  0.12194  0.15938  1.0000
  N   N5        1.0  0.91546  0.12951  0.30734  1.0000
  H   H63       1.0  0.92263  0.28268  0.21754  1.0000
  H   H64       1.0  0.93139  0.22696  0.19566  1.0000
  C   C37       1.0  0.00591  0.13757  0.40618  1.0000
  H   H65       1.0  0.00409  0.15707  0.28234  1.0000
  H   H66       1.0  0.05283  0.08553  0.16897  1.0000
  C   C38       1.0  0.83791  0.13763  0.18575  1.0000
  S   S13       1.0  0.86731  0.34593  0.28835  1.0000
  S   S14       1.0  0.08699  0.29792  0.23044  1.0000
  S   S15       1.0  0.88166  0.35499  0.16188  1.0000
  H   H67       1.0  0.94938  0.35026  0.37481  1.0000
  C   C39       1.0  0.95941  0.10607  0.28127  1.0000
  H   H68       1.0  0.98797  0.34349  0.30544  1.0000
  C   C40       1.0  0.99520  0.15890  0.36059  1.0000
  C   C41       1.0  0.93201  0.31356  0.34346  1.0000
  C   C42       1.0  0.03954  0.10114  0.32102  1.0000
  H   H69       1.0  0.89849  0.08072  0.33341  1.0000
  H   H70       1.0  0.82825  0.11586  0.22617  1.0000
  Fe  Fe7       1.0  0.83275  0.35017  0.24990  1.0000
  H   H71       1.0  0.01142  0.28400  0.27752  1.0000
  H   H72       1.0  0.87615  0.17493  0.35390  1.0000
  C   C43       1.0  0.89267  0.43092  0.30009  1.0000
  H   H73       1.0  0.95743  0.53153  0.21945  1.0000
  C   C44       1.0  0.89961  0.15229  0.26373  1.0000
  H   H74       1.0  0.90513  0.08449  0.38493  1.0000
  C   C45       1.0  0.10855  0.23769  0.36996  1.0000
  H   H75       1.0  0.90227  0.13215  0.24556  1.0000
  C   C46       1.0  0.97637  0.32776  0.35069  1.0000
  C   C47       1.0  0.00168  0.26833  0.32304  1.0000
  H   H76       1.0  0.99618  0.53452  0.25421  1.0000
  C   C48       1.0  0.95291  0.26211  0.19838  1.0000
  H   H77       1.0  0.78691  0.54324  0.30494  1.0000
  C   C49       1.0  0.85176  0.45232  0.32983  1.0000
  C   C50       1.0  0.95790  0.23005  0.18661  1.0000
  S   S16       1.0  0.80614  0.26304  0.16974  1.0000
  H   H78       1.0  0.90074  0.41103  0.27792  1.0000
  H   H79       1.0  0.97696  0.12555  0.24900  1.0000
  S   S17       1.0  0.03075  0.41243  0.20042  1.0000
  H   H80       1.0  0.94033  0.33046  0.29859  1.0000
  H   H81       1.0  0.86057  0.11886  0.37197  1.0000
  H   H82       1.0  0.97332  0.18914  0.35885  1.0000
  H   H83       1.0  0.02812  0.25466  0.33312  1.0000
  H   H84       1.0  0.78941  0.56142  0.34687  1.0000
  H   H85       1.0  0.80588  0.09902  0.18092  1.0000
  C   C51       1.0  0.01268  0.14085  0.31728  1.0000
  C   C52       1.0  0.92326  0.43493  0.29957  1.0000
  H   H86       1.0  0.92323  0.29039  0.34925  1.0000
  H   H87       1.0  0.06906  0.29517  0.34162  1.0000
  H   H88       1.0  0.95449  0.41791  0.27735  1.0000
  H   H89       1.0  0.99487  0.24382  0.32850  1.0000
  Fe  Fe8       1.0  0.01440  0.43380  0.27058  1.0000
  S   S18       1.0  0.79993  0.41583  0.24028  1.0000
  H   H90       1.0  0.97214  0.08776  0.31310  1.0000
  S   S19       1.0  0.05645  0.07581  0.27314  1.0000
  Fe  Fe9       1.0  0.91505  0.35379  0.20011  1.0000
  C   C53       1.0  0.90910  0.15717  0.33293  1.0000
  S   S20       1.0  0.05579  0.37686  0.30487  1.0000
  H   H91       1.0  0.92140  0.14084  0.36537  1.0000
  S   S21       1.0  0.81308  0.44915  0.32881  1.0000
  H   H92       1.0  0.81029  0.49084  0.38677  1.0000
  Fe  Fe10      1.0  0.07597  0.35771  0.23010  1.0000
  S   S22       1.0  0.95116  0.46834  0.32426  1.0000
  H   H93       1.0  0.86385  0.50090  0.38186  1.0000
  N   N6        1.0  0.96599  0.29582  0.35902  1.0000
  H   H94       1.0  0.86703  0.17211  0.28102  1.0000
  H   H95       1.0  0.92459  0.17843  0.30064  1.0000
  Fe  Fe11      1.0  0.83955  0.41231  0.26997  1.0000
  H   H96       1.0  0.90438  0.33454  0.36964  1.0000
  C   C54       1.0  0.84167  0.47626  0.36096  1.0000
  C   C55       1.0  0.10679  0.26085  0.27927  1.0000
  C   C56       1.0  0.87220  0.48123  0.35905  1.0000
  C   C57       1.0  0.09257  0.26740  0.33109  1.0000
  H   H97       1.0  0.00029  0.31574  0.36501  1.0000
  C   C58       1.0  0.05006  0.08000  0.36663  1.0000
  S   S23       1.0  0.98022  0.31381  0.18507  1.0000
  H   H98       1.0  0.79819  0.31411  0.39055  1.0000
  C   C59       1.0  0.89387  0.10230  0.35135  1.0000
  H   H99       1.0  0.82277  0.48675  0.17654  1.0000
  C   C60       1.0  0.02579  0.23953  0.16304  1.0000
  S   S24       1.0  0.89020  0.42013  0.18402  1.0000
  H   H100      1.0  0.96550  0.08556  0.26031  1.0000
  H   H101      1.0  0.11352  0.11564  0.31722  1.0000
  H   H102      1.0  0.83678  0.16132  0.19570  1.0000
  Fe  Fe12      1.0  0.10300  0.40414  0.24641  1.0000
  C   C61       1.0  0.80132  0.51095  0.15974  1.0000
  H   H103      1.0  0.93677  0.50978  0.40681  1.0000
  C   C62       1.0  0.99683  0.20316  0.16168  1.0000
  C   C63       1.0  0.98373  0.56752  0.24089  1.0000
  H   H104      1.0  0.92337  0.49463  0.52881  1.0000
  H   H105      1.0  0.97177  0.48133  0.46987  1.0000
  S   S25       1.0  0.98879  0.29786  0.60868  1.0000
  N   N7        1.0  0.92835  0.46313  0.48266  1.0000
  C   C64       1.0  0.94635  0.47120  0.50464  1.0000
  C   C65       1.0  0.95977  0.43159  0.45156  1.0000
  H   H106      1.0  0.06925  0.12672  0.43843  1.0000
  H   H107      1.0  0.03274  0.09750  0.59434  1.0000
  S   S26       1.0  0.79329  0.50002  0.54447  1.0000
  H   H108      1.0  0.83403  0.29770  0.57049  1.0000
  H   H109      1.0  0.09142  0.26705  0.60597  1.0000
  S   S27       1.0  0.79906  0.23377  0.56350  1.0000
  C   C66       1.0  0.89486  0.44984  0.53006  1.0000
  H   H110      1.0  0.11185  0.34076  0.56692  1.0000
  H   H111      1.0  0.78919  0.42502  0.57763  1.0000
  N   N8        1.0  0.07425  0.11798  0.51168  1.0000
  H   H112      1.0  0.90596  0.42215  0.55942  1.0000
  H   H113      1.0  0.87903  0.30293  0.59146  1.0000
  H   H114      1.0  0.79646  0.27935  0.45624  1.0000
  C   C67       1.0  0.82372  0.39035  0.64722  1.0000
  H   H115      1.0  0.89225  0.43006  0.64298  1.0000
  S   S28       1.0  0.82493  0.32842  0.46821  1.0000
  C   C68       1.0  0.05002  0.16026  0.51330  1.0000
  C   C69       1.0  0.08810  0.27454  0.50285  1.0000
  C   C70       1.0  0.10659  0.10278  0.52935  1.0000
  H   H116      1.0  0.81745  0.12640  0.58604  1.0000
  Fe  Fe13      1.0  0.79398  0.51860  0.60322  1.0000
  H   H117      1.0  0.98490  0.44097  0.41395  1.0000
  H   H118      1.0  0.05831  0.28553  0.50474  1.0000
  H   H119      1.0  0.87049  0.47275  0.55446  1.0000
  S   S29       1.0  0.97046  0.23912  0.58768  1.0000
  C   C71       1.0  0.04772  0.09473  0.55038  1.0000
  S   S30       1.0  0.80043  0.17969  0.49055  1.0000
  H   H120      1.0  0.84599  0.36265  0.63238  1.0000
  S   S31       1.0  0.83164  0.55154  0.57679  1.0000
  H   H121      1.0  0.94663  0.42377  0.43642  1.0000
  Fe  Fe14      1.0  0.84114  0.19412  0.60562  1.0000
  H   H122      1.0  0.78855  0.27068  0.41027  1.0000
  H   H123      1.0  0.89708  0.49464  0.42927  1.0000
  S   S32       1.0  0.98428  0.15912  0.46091  1.0000
  H   H124      1.0  0.88899  0.52438  0.46626  1.0000
  S   S33       1.0  0.87700  0.14907  0.55443  1.0000
  H   H125      1.0  0.03674  0.16417  0.55608  1.0000
  H   H126      1.0  0.09110  0.12816  0.63963  1.0000
  Fe  Fe15      1.0  0.84435  0.26273  0.50174  1.0000
  H   H127      1.0  0.11055  0.08246  0.45138  1.0000
  C   C72       1.0  0.91216  0.49970  0.44460  1.0000
  H   H128      1.0  0.79498  0.37436  0.59952  1.0000
  S   S34       1.0  0.88417  0.22599  0.54819  1.0000
  C   C73       1.0  0.10794  0.23389  0.52151  1.0000
  H   H129      1.0  0.02470  0.17281  0.50132  1.0000
  H   H130      1.0  0.11391  0.13030  0.42393  1.0000
  N   N9        1.0  0.08083  0.30636  0.64575  1.0000
  C   C74       1.0  0.85700  0.37382  0.46032  1.0000
  Fe  Fe16      1.0  0.01693  0.23453  0.60506  1.0000
  S   S35       1.0  0.88017  0.22364  0.44227  1.0000
  H   H131      1.0  0.09120  0.33264  0.46845  1.0000
  H   H132      1.0  0.09392  0.10158  0.57446  1.0000
  C   C75       1.0  0.84842  0.31911  0.54232  1.0000
  C   C76       1.0  0.10680  0.30107  0.48194  1.0000
  H   H133      1.0  0.83239  0.41534  0.61239  1.0000
  H   H134      1.0  0.06835  0.34038  0.57245  1.0000
  H   H135      1.0  0.94018  0.07663  0.59451  1.0000
  C   C77       1.0  0.84264  0.34286  0.49325  1.0000
  Fe  Fe17      1.0  0.83748  0.19159  0.50763  1.0000
  C   C78       1.0  0.87291  0.32288  0.55492  1.0000
  H   H136      1.0  0.88064  0.44352  0.51475  1.0000
  C   C79       1.0  0.88002  0.37898  0.47419  1.0000
  H   H137      1.0  0.92705  0.29356  0.44701  1.0000
  H   H138      1.0  0.04149  0.08154  0.44444  1.0000
  H   H139      1.0  0.95858  0.44414  0.53380  1.0000
  S   S36       1.0  0.92137  0.35570  0.53441  1.0000
  S   S37       1.0  0.08219  0.20160  0.55748  1.0000
  H   H140      1.0  0.91054  0.13224  0.63671  1.0000
  Fe  Fe18      1.0  0.93971  0.30139  0.59781  1.0000
  C   C80       1.0  0.09281  0.11412  0.45374  1.0000
  Fe  Fe19      1.0  0.91656  0.18474  0.49349  1.0000
  H   H141      1.0  0.06929  0.17855  0.48394  1.0000
  H   H142      1.0  0.09748  0.24280  0.41010  1.0000
  H   H143      1.0  0.97318  0.40373  0.47874  1.0000
  C   C81       1.0  0.88920  0.35244  0.52026  1.0000
  H   H144      1.0  0.94547  0.24958  0.42643  1.0000
  H   H145      1.0  0.02333  0.10510  0.53764  1.0000
  H   H146      1.0  0.89209  0.40235  0.44780  1.0000
  C   C82       1.0  0.10507  0.26915  0.62661  1.0000
  C   C83       1.0  0.08057  0.34080  0.59664  1.0000
  H   H147      1.0  0.06154  0.36938  0.60976  1.0000
  H   H148      1.0  0.97885  0.25959  0.43189  1.0000
  C   C84       1.0  0.95381  0.27367  0.41874  1.0000
  H   H149      1.0  0.85192  0.39246  0.42283  1.0000
  C   C85       1.0  0.78643  0.13324  0.59699  1.0000
  C   C86       1.0  0.03384  0.09839  0.40867  1.0000
  H   H150      1.0  0.94529  0.35929  0.78889  1.0000
  S   S38       1.0  0.89604  0.48733  0.66710  1.0000
  H   H151      1.0  0.05915  0.07949  0.68397  1.0000
  C   C87       1.0  0.92457  0.41583  0.73439  1.0000
  C   C88       1.0  0.97653  0.41527  0.81486  1.0000
  C   C89       1.0  0.93395  0.37474  0.75676  1.0000
  H   H152      1.0  0.85597  0.08480  0.73880  1.0000
  H   H153      1.0  0.79084  0.47794  0.89767  1.0000
  C   C90       1.0  0.90909  0.43584  0.69373  1.0000
  H   H154      1.0  0.10087  0.28068  0.71114  1.0000
  S   S39       1.0  0.94318  0.30192  0.76229  1.0000
  C   C91       1.0  0.92918  0.35352  0.73697  1.0000
  C   C92       1.0  0.04800  0.53192  0.83925  1.0000
  C   C93       1.0  0.99656  0.12023  0.70280  1.0000
  C   C94       1.0  0.97585  0.28451  0.87588  1.0000
  H   H155      1.0  0.04751  0.41886  0.82938  1.0000
  S   S40       1.0  0.07869  0.20769  0.78738  1.0000
  H   H156      1.0  0.99235  0.41829  0.76851  1.0000
  C   C95       1.0  0.09026  0.56568  0.81220  1.0000
  C   C96       1.0  0.03181  0.29484  0.86058  1.0000
  H   H157      1.0  0.90690  0.19251  0.87675  1.0000
  H   H158      1.0  0.04269  0.30906  0.86847  1.0000
  C   C97       1.0  0.95574  0.12640  0.74122  1.0000
  C   C98       1.0  0.89281  0.21211  0.84631  1.0000
  H   H159      1.0  0.00111  0.47716  0.75697  1.0000
  C   C99       1.0  0.91929  0.11005  0.67180  1.0000
  H   H160      1.0  0.99525  0.48533  0.81616  1.0000
  H   H161      1.0  0.89638  0.24096  0.83079  1.0000
  H   H162      1.0  0.99044  0.56998  0.83383  1.0000
  H   H163      1.0  0.79895  0.25003  0.85035  1.0000
  C   C100      1.0  0.00321  0.25658  0.84316  1.0000
  H   H164      1.0  0.84746  0.23309  0.79407  1.0000
  H   H165      1.0  0.00407  0.14307  0.66493  1.0000
  Fe  Fe20      1.0  0.95302  0.27743  0.70045  1.0000
  H   H166      1.0  0.86314  0.16545  0.85407  1.0000
  C   C101      1.0  0.08367  0.53062  0.83203  1.0000
  H   H167      1.0  0.09400  0.10921  0.77213  1.0000
  H   H168      1.0  0.99197  0.24161  0.83696  1.0000
  C   C102      1.0  0.02771  0.08435  0.71342  1.0000
  H   H169      1.0  0.05323  0.40941  0.77136  1.0000
  C   C103      1.0  0.98446  0.47292  0.80358  1.0000
  H   H170      1.0  0.04167  0.37556  0.83920  1.0000
  H   H171      1.0  0.91476  0.10099  0.81937  1.0000
  N   N10       1.0  0.99134  0.43051  0.83248  1.0000
  H   H172      1.0  0.10610  0.50269  0.84236  1.0000
  C   C104      1.0  0.09914  0.30697  0.67494  1.0000
  H   H173      1.0  0.80687  0.53477  0.87596  1.0000
  N   N11       1.0  0.84956  0.21751  0.87266  1.0000
  H   H174      1.0  0.86658  0.09867  0.66610  1.0000
  C   C105      1.0  0.09583  0.10355  0.73746  1.0000
  H   H175      1.0  0.03767  0.28165  0.72060  1.0000
  C   C106      1.0  0.87817  0.07564  0.69819  1.0000
  H   H176      1.0  0.94327  0.43139  0.82640  1.0000
  C   C107      1.0  0.78709  0.21891  0.73097  1.0000
  H   H177      1.0  0.91093  0.19846  0.80987  1.0000
  S   S41       1.0  0.90155  0.28485  0.69055  1.0000
  C   C108      1.0  0.05941  0.26571  0.82953  1.0000
  C   C109      1.0  0.94619  0.09657  0.78977  1.0000
  Fe  Fe21      1.0  0.93802  0.22168  0.68161  1.0000
  C   C110      1.0  0.01832  0.56875  0.82772  1.0000
  C   C111      1.0  0.99026  0.30269  0.88592  1.0000
  C   C112      1.0  0.03533  0.40761  0.81745  1.0000
  H   H178      1.0  0.82737  0.38790  0.68309  1.0000
  H   H179      1.0  0.83380  0.27457  0.81653  1.0000
  C   C113      1.0  0.04493  0.24606  0.82202  1.0000
  H   H180      1.0  0.04866  0.09190  0.87993  1.0000
  C   C114      1.0  0.03867  0.30835  0.68476  1.0000
  H   H181      1.0  0.79398  0.33374  0.69104  1.0000
  H   H182      1.0  0.06420  0.11591  0.74188  1.0000
  C   C115      1.0  0.91443  0.37347  0.69554  1.0000
  C   C116      1.0  0.83167  0.24513  0.83155  1.0000
  H   H183      1.0  0.98172  0.38322  0.83542  1.0000
  H   H184      1.0  0.92832  0.43228  0.74947  1.0000
  H   H185      1.0  0.78677  0.18219  0.81217  1.0000
  S   S42       1.0  0.91629  0.17128  0.72967  1.0000
  S   S43       1.0  0.98664  0.21338  0.69837  1.0000
  H   H186      1.0  0.95159  0.49112  0.81376  1.0000
  S   S44       1.0  0.04096  0.48757  0.86131  1.0000
  C   C117      1.0  0.84642  0.17881  0.89053  1.0000
  H   H187      1.0  0.08112  0.33395  0.69172  1.0000
  H   H188      1.0  0.09181  0.25787  0.81240  1.0000
  H   H189      1.0  0.09909  0.26691  0.88443  1.0000
  Fe  Fe22      1.0  0.11653  0.15911  0.83375  1.0000
  C   C118      1.0  0.96919  0.42622  0.89415  1.0000
  S   S45       1.0  0.81722  0.17821  0.69974  1.0000
  S   S46       1.0  0.10272  0.37478  0.89203  1.0000
  H   H190      1.0  0.89684  0.12267  0.70966  1.0000
  Fe  Fe23      1.0  0.10122  0.43646  0.84214  1.0000
  H   H191      1.0  0.01992  0.33473  0.70295  1.0000
  H   H192      1.0  0.94366  0.29050  0.89543  1.0000
  C   C119      1.0  0.10566  0.16498  0.67576  1.0000
  C   C120      1.0  0.90390  0.41467  0.67453  1.0000
  S   S47       1.0  0.80488  0.47784  0.68046  1.0000
  H   H193      1.0  0.91072  0.35724  0.68007  1.0000
  H   H194      1.0  0.10676  0.24267  0.66261  1.0000
  H   H195      1.0  0.02323  0.31000  0.66335  1.0000
  H   H196      1.0  0.10193  0.56973  0.70092  1.0000
  H   H197      1.0  0.10534  0.17123  0.70852  1.0000
  H   H198      1.0  0.07403  0.17944  0.67946  1.0000
  H   H199      1.0  0.11816  0.56431  0.80638  1.0000
  N   N12       1.0  0.91950  0.07109  0.68213  1.0000
  H   H200      1.0  0.94955  0.10780  0.66125  1.0000
  H   H201      1.0  0.93584  0.44299  0.90724  1.0000
  Fe  Fe24      1.0  0.83797  0.51453  0.65812  1.0000
  H   H202      1.0  0.05941  0.00311  0.00112  1.0000
  C   C121      1.0  0.87312  0.88116  0.12873  1.0000
  H   H203      1.0  0.03269  0.58008  0.13020  1.0000
  C   C122      1.0  0.04569  0.90147  0.95145  1.0000
  C   C123      1.0  0.98889  0.64753  0.91305  1.0000
  H   H204      1.0  0.90560  0.70766  0.99975  1.0000
  C   C124      1.0  0.96859  0.63952  0.01063  1.0000
  Fe  Fe25      1.0  0.02193  0.74321  0.12036  1.0000
  H   H205      1.0  0.89124  0.96676  0.05252  1.0000
  C   C125      1.0  0.06564  0.04045  0.05155  1.0000
  H   H206      1.0  0.06480  0.04851  0.14024  1.0000
  H   H207      1.0  0.89587  0.86423  0.09547  1.0000
  H   H208      1.0  0.90581  0.92620  0.02793  1.0000
  H   H209      1.0  0.92464  0.87785  0.15709  1.0000
  H   H210      1.0  0.93116  0.04613  0.11789  1.0000
  H   H211      1.0  0.86737  0.80315  0.98711  1.0000
  S   S48       1.0  0.90697  0.00651  0.09020  1.0000
  H   H212      1.0  0.06730  0.61617  0.95284  1.0000
  H   H213      1.0  0.00772  0.02284  0.01110  1.0000
  H   H214      1.0  0.79667  0.65180  0.93774  1.0000
  C   C126      1.0  0.03993  0.00813  0.98346  1.0000
  C   C127      1.0  0.83059  0.87389  0.93177  1.0000
  C   C128      1.0  0.92730  0.06367  0.07944  1.0000
  S   S49       1.0  0.03457  0.74613  0.03434  1.0000
  H   H215      1.0  0.00944  0.82343  0.13158  1.0000
  N   N13       1.0  0.88302  0.91426  0.11776  1.0000
  C   C129      1.0  0.91697  0.05042  0.05568  1.0000
  S   S50       1.0  0.08098  0.91925  0.93413  1.0000
  H   H216      1.0  0.09399  0.64686  0.04392  1.0000
  H   H217      1.0  0.01755  0.82222  0.03260  1.0000
  C   C130      1.0  0.01939  0.92276  0.92478  1.0000
  H   H218      1.0  0.85296  0.95485  0.06263  1.0000
  S   S51       1.0  0.11268  0.03081  0.99315  1.0000
  N   N14       1.0  0.96655  0.66872  0.95775  1.0000
  C   C131      1.0  0.08886  0.61692  0.95994  1.0000
  N   N15       1.0  0.11615  0.06022  0.11495  1.0000
  C   C132      1.0  0.99231  0.87059  0.97475  1.0000
  C   C133      1.0  0.99262  0.90731  0.93648  1.0000
  Fe  Fe26      1.0  0.97148  0.79257  0.05334  1.0000
  H   H219      1.0  0.85272  0.57959  0.02716  1.0000
  N   N16       1.0  0.05119  0.03199  0.92457  1.0000
  H   H220      1.0  0.06322  0.84976  0.01326  1.0000
  C   C134      1.0  0.92350  0.89852  0.11645  1.0000
  H   H221      1.0  0.93210  0.92287  0.10724  1.0000
  H   H222      1.0  0.00266  0.57905  0.10731  1.0000
  S   S52       1.0  0.94131  0.74949  0.09169  1.0000
  H   H223      1.0  0.86017  0.79507  0.93982  1.0000
  H   H224      1.0  0.97040  0.71106  0.97581  1.0000
  H   H225      1.0  0.81026  0.86590  0.93029  1.0000
  C   C135      1.0  0.87816  0.80584  0.94183  1.0000
  C   C136      1.0  0.92354  0.69129  0.96622  1.0000
  H   H226      1.0  0.81444  0.73198  0.91377  1.0000
  H   H227      1.0  0.89159  0.85749  0.95348  1.0000
  H   H228      1.0  0.85592  0.96326  0.15354  1.0000
  Fe  Fe27      1.0  0.87291  0.60417  0.09389  1.0000
  H   H229      1.0  0.07958  0.91003  0.12422  1.0000
  C   C137      1.0  0.07556  0.63387  0.00210  1.0000
  S   S53       1.0  0.06525  0.74082  0.14197  1.0000
  C   C138      1.0  0.87359  0.62972  0.92259  1.0000
  H   H230      1.0  0.86581  0.64231  0.95520  1.0000
  H   H231      1.0  0.95468  0.65444  0.04426  1.0000
  C   C139      1.0  0.99207  0.05297  0.14854  1.0000
  C   C140      1.0  0.02001  0.01445  0.14356  1.0000
  C   C141      1.0  0.01799  0.85002  0.00211  1.0000
  C   C142      1.0  0.05673  0.00814  0.09530  1.0000
  H   H232      1.0  0.07344  0.81349  0.91107  1.0000
  H   H233      1.0  0.92081  0.71338  0.92694  1.0000
  H   H234      1.0  0.79778  0.64040  0.00321  1.0000
  C   C143      1.0  0.98520  0.69628  0.94154  1.0000
  H   H235      1.0  0.84292  0.89232  0.12916  1.0000
  Fe  Fe28      1.0  0.81836  0.69086  0.09974  1.0000
  H   H236      1.0  0.81975  0.87254  0.97651  1.0000
  H   H237      1.0  0.04347  0.97842  0.98671  1.0000
  C   C144      1.0  0.88325  0.94170  0.06285  1.0000
  Fe  Fe29      1.0  0.00394  0.70276  0.07879  1.0000
  C   C145      1.0  0.07622  0.05692  0.15681  1.0000
  H   H238      1.0  0.90851  0.67127  0.97890  1.0000
  C   C146      1.0  0.04437  0.86549  0.99077  1.0000
  S   S54       1.0  0.96008  0.84998  0.98906  1.0000
  H   H239      1.0  0.90620  0.06272  0.98565  1.0000
  H   H240      1.0  0.79085  0.81351  0.95190  1.0000
  S   S55       1.0  0.02314  0.65413  0.04322  1.0000
  H   H241      1.0  0.94736  0.88199  0.08311  1.0000
  C   C147      1.0  0.80676  0.62712  0.97055  1.0000
  S   S56       1.0  0.87337  0.64833  0.11734  1.0000
  S   S57       1.0  0.82070  0.64789  0.07119  1.0000
  S   S58       1.0  0.96088  0.79233  0.13664  1.0000
  H   H242      1.0  0.07843  0.97822  0.09183  1.0000
  S   S59       1.0  0.81113  0.75213  0.04343  1.0000
  H   H243      1.0  0.00049  0.61978  0.00476  1.0000
  H   H244      1.0  0.01809  0.68042  0.93246  1.0000
  H   H245      1.0  0.97604  0.62582  0.92484  1.0000
  N   N17       1.0  0.85100  0.60402  0.94616  1.0000
  H   H246      1.0  0.99474  0.04565  0.92640  1.0000
  H   H247      1.0  0.95234  0.62014  0.02636  1.0000
  H   H248      1.0  0.78901  0.60802  0.99108  1.0000
  H   H249      1.0  0.97271  0.92353  0.91533  1.0000
  H   H250      1.0  0.91042  0.78520  0.92596  1.0000
  C   C148      1.0  0.10409  0.63405  0.01114  1.0000
  H   H251      1.0  0.94381  0.63686  0.14672  1.0000
  H   H252      1.0  0.09724  0.85707  0.13721  1.0000
  N   N18       1.0  0.87361  0.84714  0.90823  1.0000
  C   C149      1.0  0.89944  0.85972  0.90958  1.0000
  S   S60       1.0  0.92626  0.57147  0.02693  1.0000
  H   H253      1.0  0.11374  0.01173  0.90790  1.0000
  H   H254      1.0  0.89214  0.84684  0.34928  1.0000
  C   C150      1.0  0.84452  0.68598  0.23270  1.0000
  S   S61       1.0  0.83207  0.61628  0.28330  1.0000
  N   N19       1.0  0.09399  0.87655  0.19609  1.0000
  S   S62       1.0  0.90847  0.96596  0.31363  1.0000
  S   S63       1.0  0.03198  0.98183  0.31528  1.0000
  H   H255      1.0  0.87230  0.85989  0.16991  1.0000
  C   C151      1.0  0.85536  0.64725  0.31780  1.0000
  S   S64       1.0  0.94516  0.06004  0.20794  1.0000
  H   H256      1.0  0.07798  0.03392  0.19598  1.0000
  Fe  Fe30      1.0  0.92537  0.01111  0.23252  1.0000
  H   H257      1.0  0.83480  0.69086  0.20276  1.0000
  H   H258      1.0  0.07742  0.90526  0.25536  1.0000
  C   C152      1.0  0.82324  0.83357  0.40039  1.0000
  S   S65       1.0  0.88384  0.74297  0.25772  1.0000
  H   H259      1.0  0.92839  0.88203  0.39649  1.0000
  C   C153      1.0  0.86689  0.67550  0.31213  1.0000
  H   H260      1.0  0.11219  0.81299  0.21970  1.0000
  H   H261      1.0  0.83213  0.84404  0.29804  1.0000
  H   H262      1.0  0.95659  0.57833  0.27858  1.0000
  H   H263      1.0  0.85247  0.87414  0.29424  1.0000
  S   S66       1.0  0.83271  0.58102  0.18154  1.0000
  H   H264      1.0  0.84250  0.77626  0.35836  1.0000
  C   C154      1.0  0.09318  0.83880  0.23925  1.0000
  H   H265      1.0  0.88620  0.83189  0.26290  1.0000
  S   S67       1.0  0.86832  0.03068  0.22553  1.0000
  H   H266      1.0  0.79647  0.96663  0.29230  1.0000
  C   C155      1.0  0.95397  0.62517  0.18040  1.0000
  H   H267      1.0  0.06993  0.93836  0.19332  1.0000
  H   H268      1.0  0.89655  0.76383  0.32409  1.0000
  C   C156      1.0  0.00386  0.82889  0.24720  1.0000
  S   S68       1.0  0.98029  0.86132  0.28975  1.0000
  H   H269      1.0  0.87046  0.75650  0.39881  1.0000
  Fe  Fe31      1.0  0.04485  0.02027  0.33158  1.0000
  C   C157      1.0  0.85795  0.84314  0.29947  1.0000
  Fe  Fe32      1.0  0.93669  0.74497  0.17346  1.0000
  S   S69       1.0  0.79422  0.98754  0.37502  1.0000
  H   H270      1.0  0.03785  0.78135  0.29522  1.0000
  C   C158      1.0  0.03144  0.79066  0.25966  1.0000
  Fe  Fe33      1.0  0.94134  0.92316  0.26014  1.0000
  H   H271      1.0  0.89942  0.79722  0.39341  1.0000
  C   C159      1.0  0.04222  0.77552  0.18095  1.0000
  C   C160      1.0  0.89602  0.81665  0.35345  1.0000
  S   S70       1.0  0.08341  0.96943  0.37618  1.0000
  Fe  Fe34      1.0  0.85491  0.98147  0.30109  1.0000
  C   C161      1.0  0.86789  0.77683  0.35889  1.0000
  H   H272      1.0  0.85341  0.91699  0.20409  1.0000
  C   C162      1.0  0.99586  0.84080  0.20096  1.0000
  Fe  Fe35      1.0  0.90550  0.98504  0.17562  1.0000
  H   H273      1.0  0.92526  0.80483  0.31819  1.0000
  C   C163      1.0  0.84430  0.65250  0.27791  1.0000
  C   C164      1.0  0.05093  0.76422  0.22622  1.0000
  H   H274      1.0  0.81697  0.86453  0.39675  1.0000
  H   H275      1.0  0.04674  0.88391  0.18135  1.0000
  H   H276      1.0  0.97526  0.87063  0.19041  1.0000
  C   C165      1.0  0.85665  0.71386  0.22658  1.0000
  Fe  Fe36      1.0  0.97752  0.98818  0.39795  1.0000
  H   H277      1.0  0.87582  0.67136  0.34260  1.0000
  H   H278      1.0  0.85649  0.73991  0.19175  1.0000
  H   H279      1.0  0.06179  0.83893  0.26488  1.0000
  H   H280      1.0  0.00689  0.57835  0.22879  1.0000
  C   C166      1.0  0.85212  0.93570  0.16304  1.0000
  H   H281      1.0  0.07024  0.04911  0.37014  1.0000
  S   S71       1.0  0.10386  0.87180  0.34488  1.0000
  H   H282      1.0  0.99649  0.83757  0.39610  1.0000
  H   H283      1.0  0.79610  0.73112  0.37005  1.0000
  H   H284      1.0  0.85535  0.62122  0.35266  1.0000
  H   H285      1.0  0.82112  0.94451  0.16870  1.0000
  N   N20       1.0  0.86128  0.81754  0.35312  1.0000
  H   H286      1.0  0.92714  0.63619  0.21776  1.0000
  S   S72       1.0  0.88706  0.93674  0.25083  1.0000
  C   C167      1.0  0.86759  0.70875  0.26641  1.0000
  H   H287      1.0  0.03542  0.91296  0.24715  1.0000
  H   H288      1.0  0.10411  0.83377  0.26901  1.0000
  C   C168      1.0  0.06793  0.90979  0.22419  1.0000
  H   H289      1.0  0.07223  0.73467  0.23611  1.0000
  S   S73       1.0  0.96302  0.96664  0.18000  1.0000
  Fe  Fe37      1.0  0.82888  0.62869  0.20372  1.0000
  Fe  Fe38      1.0  0.06574  0.93125  0.36687  1.0000
  N   N21       1.0  0.97281  0.58133  0.19400  1.0000
  H   H290      1.0  0.79643  0.83392  0.40225  1.0000
  H   H291      1.0  0.01349  0.98960  0.17775  1.0000
  C   C169      1.0  0.07872  0.88223  0.15802  1.0000
  H   H292      1.0  0.91641  0.57205  0.25064  1.0000
  S   S74       1.0  0.99716  0.69512  0.16348  1.0000
  H   H293      1.0  0.97570  0.63864  0.16548  1.0000
  C   C170      1.0  0.01494  0.81402  0.16795  1.0000
  H   H294      1.0  0.93286  0.57597  0.17821  1.0000
  C   C171      1.0  0.11362  0.72360  0.48344  1.0000
  H   H295      1.0  0.00363  0.82129  0.45860  1.0000
  H   H296      1.0  0.08993  0.87589  0.45319  1.0000
  H   H297      1.0  0.06543  0.06254  0.55079  1.0000
  C   C172      1.0  0.05069  0.96355  0.59924  1.0000
  C   C173      1.0  0.08280  0.70623  0.45488  1.0000
  N   N22       1.0  0.94190  0.85703  0.46820  1.0000
  H   H298      1.0  0.07530  0.88174  0.58724  1.0000
  H   H299      1.0  0.04097  0.82857  0.60486  1.0000
  C   C174      1.0  0.92952  0.86922  0.51739  1.0000
  H   H300      1.0  0.94072  0.81224  0.45147  1.0000
  H   H301      1.0  0.99510  0.87208  0.41878  1.0000
  Fe  Fe39      1.0  0.02484  0.97730  0.45479  1.0000
  H   H302      1.0  0.89643  0.87628  0.54504  1.0000
  H   H303      1.0  0.87891  0.65930  0.53880  1.0000
  H   H304      1.0  0.03879  0.84722  0.53800  1.0000
  H   H305      1.0  0.02472  0.88082  0.57489  1.0000
  C   C175      1.0  0.11716  0.80932  0.52201  1.0000
  C   C176      1.0  0.83621  0.95411  0.54835  1.0000
  C   C177      1.0  0.83678  0.71728  0.51600  1.0000
  C   C178      1.0  0.98626  0.84652  0.43389  1.0000
  H   H306      1.0  0.98002  0.05159  0.61749  1.0000
  H   H307      1.0  0.82491  0.81553  0.44152  1.0000
  C   C179      1.0  0.04417  0.72578  0.49271  1.0000
  C   C180      1.0  0.82272  0.65682  0.56109  1.0000
  C   C181      1.0  0.84220  0.95238  0.59121  1.0000
  H   H308      1.0  0.11411  0.78473  0.56080  1.0000
  H   H309      1.0  0.91653  0.99053  0.51088  1.0000
  C   C182      1.0  0.84952  0.67599  0.53729  1.0000
  C   C183      1.0  0.87052  0.96627  0.57794  1.0000
  C   C184      1.0  0.09462  0.88005  0.48298  1.0000
  Fe  Fe40      1.0  0.81256  0.77817  0.56927  1.0000
  H   H310      1.0  0.07587  0.66857  0.60424  1.0000
  H   H311      1.0  0.94729  0.79661  0.51408  1.0000
  C   C185      1.0  0.05578  0.96612  0.54679  1.0000
  C   C186      1.0  0.93158  0.82227  0.48763  1.0000
  H   H312      1.0  0.79691  0.68925  0.43011  1.0000
  C   C187      1.0  0.94843  0.05591  0.63050  1.0000
  H   H313      1.0  0.83191  0.62521  0.57970  1.0000
  S   S75       1.0  0.01298  0.98106  0.53689  1.0000
  H   H314      1.0  0.09942  0.95725  0.46322  1.0000
  H   H315      1.0  0.07220  0.75752  0.54648  1.0000
  S   S76       1.0  0.81640  0.80459  0.61619  1.0000
  C   C188      1.0  0.04047  0.74319  0.52705  1.0000
  S   S77       1.0  0.00987  0.93517  0.44893  1.0000
  H   H316      1.0  0.93583  0.89608  0.50415  1.0000
  H   H317      1.0  0.88657  0.89930  0.45830  1.0000
  C   C189      1.0  0.89374  0.98085  0.52135  1.0000
  H   H318      1.0  0.85269  0.97243  0.45917  1.0000
  C   C190      1.0  0.79817  0.73894  0.51605  1.0000
  H   H319      1.0  0.09697  0.82902  0.61093  1.0000
  H   H320      1.0  0.89831  0.82918  0.51353  1.0000
  H   H321      1.0  0.08079  0.94534  0.65049  1.0000
  C   C191      1.0  0.85779  0.97061  0.49224  1.0000
  S   S78       1.0  0.99249  0.76504  0.57688  1.0000
  N   N23       1.0  0.08914  0.84855  0.53557  1.0000
  S   S79       1.0  0.86291  0.74353  0.50435  1.0000
  H   H322      1.0  0.01732  0.72639  0.49646  1.0000
  H   H323      1.0  0.94601  0.84530  0.54377  1.0000
  C   C192      1.0  0.08473  0.64511  0.63874  1.0000
  C   C193      1.0  0.88731  0.98297  0.47859  1.0000
  H   H324      1.0  0.94894  0.02666  0.63682  1.0000
  H   H325      1.0  0.81477  0.94278  0.55850  1.0000
  H   H326      1.0  0.07223  0.90970  0.49163  1.0000
  H   H327      1.0  0.87546  0.96464  0.61101  1.0000
  C   C194      1.0  0.04657  0.85133  0.56446  1.0000
  H   H328      1.0  0.78784  0.77080  0.50026  1.0000
  H   H329      1.0  0.02045  0.97220  0.63252  1.0000
  H   H330      1.0  0.10179  0.61716  0.55842  1.0000
  C   C195      1.0  0.08479  0.94805  0.60959  1.0000
  C   C196      1.0  0.10859  0.59439  0.59497  1.0000
  C   C197      1.0  0.09804  0.85385  0.57253  1.0000
  Fe  Fe41      1.0  0.99431  0.75877  0.65458  1.0000
  C   C198      1.0  0.07511  0.74273  0.52169  1.0000
  C   C199      1.0  0.92015  0.89025  0.43367  1.0000
  H   H331      1.0  0.11095  0.80439  0.49450  1.0000
  H   H332      1.0  0.09262  0.65811  0.65466  1.0000
  H   H333      1.0  0.08130  0.58650  0.62679  1.0000
  H   H334      1.0  0.92766  0.91685  0.41758  1.0000
  C   C200      1.0  0.09500  0.95424  0.50434  1.0000
  H   H335      1.0  0.08572  0.69182  0.42942  1.0000
  H   H336      1.0  0.79081  0.04157  0.54901  1.0000
  C   C201      1.0  0.11764  0.70445  0.45100  1.0000
  S   S80       1.0  0.98754  0.03050  0.41053  1.0000
  S   S81       1.0  0.91773  0.99832  0.40780  1.0000
  H   H337      1.0  0.93231  0.84118  0.89033  1.0000
  H   H338      1.0  0.87762  0.04745  0.70296  1.0000
  Fe  Fe42      1.0  0.00545  0.79281  0.71316  1.0000
  S   S82       1.0  0.86430  0.98287  0.79342  1.0000
  H   H339      1.0  0.85181  0.61420  0.86753  1.0000
  H   H340      1.0  0.05475  0.85691  0.86293  1.0000
  H   H341      1.0  0.00235  0.63222  0.79787  1.0000
  C   C202      1.0  0.02511  0.60398  0.80718  1.0000
  S   S83       1.0  0.97760  0.71076  0.73106  1.0000
  H   H342      1.0  0.89454  0.57247  0.88053  1.0000
  H   H343      1.0  0.93211  0.01312  0.73753  1.0000
  C   C203      1.0  0.88625  0.84923  0.84941  1.0000
  Fe  Fe43      1.0  0.02833  0.70318  0.74259  1.0000
  S   S84       1.0  0.95211  0.80746  0.70064  1.0000
  H   H344      1.0  0.91063  0.05320  0.76810  1.0000
  Fe  Fe44      1.0  0.11802  0.99099  0.71177  1.0000
  S   S85       1.0  0.80718  0.93158  0.80159  1.0000
  H   H345      1.0  0.85421  0.75713  0.71070  1.0000
  H   H346      1.0  0.10764  0.07081  0.74374  1.0000
  C   C204      1.0  0.80220  0.73159  0.85300  1.0000
  C   C205      1.0  0.94965  0.89542  0.71066  1.0000
  C   C206      1.0  0.91452  0.92840  0.72866  1.0000
  H   H347      1.0  0.05747  0.63808  0.67381  1.0000
  H   H348      1.0  0.98761  0.66845  0.87256  1.0000
  C   C207      1.0  0.09532  0.01364  0.89083  1.0000
  H   H349      1.0  0.79366  0.87070  0.68595  1.0000
  S   S86       1.0  0.07233  0.64515  0.77044  1.0000
  C   C208      1.0  0.06135  0.60235  0.79889  1.0000
  S   S87       1.0  0.02294  0.83663  0.70969  1.0000
  C   C209      1.0  0.86660  0.75749  0.77153  1.0000
  C   C210      1.0  0.02805  0.03357  0.90069  1.0000
  H   H350      1.0  0.79276  0.63766  0.76332  1.0000
  C   C211      1.0  0.82309  0.73759  0.86949  1.0000
  H   H351      1.0  0.96295  0.03850  0.71809  1.0000
  H   H352      1.0  0.86652  0.65513  0.88797  1.0000
  C   C212      1.0  0.97749  0.89884  0.75926  1.0000
  H   H353      1.0  0.03596  0.00343  0.89891  1.0000
  Fe  Fe45      1.0  0.79495  0.96147  0.72465  1.0000
  C   C213      1.0  0.94212  0.93133  0.77808  1.0000
  H   H354      1.0  0.89580  0.89117  0.88572  1.0000
  C   C214      1.0  0.98081  0.88020  0.72682  1.0000
  S   S88       1.0  0.88000  0.75967  0.84986  1.0000
  H   H355      1.0  0.02031  0.95077  0.89425  1.0000
  S   S89       1.0  0.04882  0.74714  0.66189  1.0000
  H   H356      1.0  0.79596  0.82761  0.80368  1.0000
  H   H357      1.0  0.10481  0.03069  0.84617  1.0000
  C   C215      1.0  0.91027  0.94560  0.76377  1.0000
  H   H358      1.0  0.96973  0.03892  0.83973  1.0000
  H   H359      1.0  0.79258  0.82191  0.72365  1.0000
  H   H360      1.0  0.86806  0.83906  0.84682  1.0000
  H   H361      1.0  0.95263  0.88201  0.68402  1.0000
  H   H362      1.0  0.07115  0.80835  0.85632  1.0000
  S   S90       1.0  0.98947  0.74793  0.79429  1.0000
  H   H363      1.0  0.00165  0.88729  0.77152  1.0000
  H   H364      1.0  0.10529  0.88135  0.83944  1.0000
  Fe  Fe46      1.0  0.93991  0.75851  0.77772  1.0000
  C   C216      1.0  0.86129  0.58924  0.90079  1.0000
  H   H365      1.0  0.98280  0.71986  0.90337  1.0000
  C   C217      1.0  0.85501  0.75090  0.82886  1.0000
  C   C218      1.0  0.01806  0.05522  0.76320  1.0000
  S   S91       1.0  0.80650  0.01504  0.70250  1.0000
  H   H366      1.0  0.93896  0.94455  0.80523  1.0000
  S   S92       1.0  0.05610  0.01169  0.78076  1.0000
  H   H367      1.0  0.89130  0.76781  0.73984  1.0000
  C   C219      1.0  0.93194  0.04271  0.72844  1.0000
  C   C220      1.0  0.84546  0.75173  0.75497  1.0000
  Fe  Fe47      1.0  0.81428  0.98736  0.78301  1.0000
  H   H368      1.0  0.02166  0.63065  0.90475  1.0000
  H   H369      1.0  0.10229  0.87442  0.76357  1.0000
  H   H370      1.0  0.88202  0.88013  0.82344  1.0000
  H   H371      1.0  0.03453  0.05249  0.85704  1.0000
  C   C221      1.0  0.81287  0.73929  0.79582  1.0000
  C   C222      1.0  0.97729  0.06142  0.80122  1.0000
  H   H372      1.0  0.91890  0.83047  0.82944  1.0000
  H   H373      1.0  0.10393  0.98289  0.89069  1.0000
  H   H374      1.0  0.89039  0.93988  0.71640  1.0000
  H   H375      1.0  0.79945  0.87464  0.75928  1.0000
  C   C223      1.0  0.07790  0.82616  0.86629  1.0000
  S   S93       1.0  0.81394  0.93250  0.66086  1.0000
  H   H376      1.0  0.11826  0.82602  0.75674  1.0000
  H   H377      1.0  0.90708  0.61289  0.90543  1.0000
  H   H378      1.0  0.82629  0.90542  0.90769  1.0000
  H   H379      1.0  0.12427  0.17961  0.99748  1.0000
  C   C224      1.0  0.23903  0.08153  0.04433  1.0000
  C   C225      1.0  0.31735  0.16749  0.92759  1.0000
  C   C226      1.0  0.40289  0.14900  0.04343  1.0000
  C   C227      1.0  0.41327  0.36184  0.03207  1.0000
  C   C228      1.0  0.32925  0.21839  0.92836  1.0000
  H   H380      1.0  0.28614  0.31794  0.99000  1.0000
  H   H381      1.0  0.44797  0.56193  0.96643  1.0000
  H   H382      1.0  0.35819  0.32428  0.01009  1.0000
  C   C229      1.0  0.35096  0.13436  0.05424  1.0000
  C   C230      1.0  0.38181  0.38914  0.01479  1.0000
  C   C231      1.0  0.27616  0.32555  0.95878  1.0000
  C   C232      1.0  0.20723  0.43034  0.00586  1.0000
  C   C233      1.0  0.22372  0.14414  0.97709  1.0000
  H   H383      1.0  0.34016  0.12605  0.03766  1.0000
  N   N24       1.0  0.21090  0.45485  0.94850  1.0000
  S   S94       1.0  0.20642  0.53841  0.14578  1.0000
  C   C234      1.0  0.21818  0.12678  0.95275  1.0000
  S   S95       1.0  0.37903  0.07495  0.91009  1.0000
  H   H384      1.0  0.35614  0.39198  0.13239  1.0000
  H   H385      1.0  0.26419  0.46194  0.92680  1.0000
  C   C235      1.0  0.22608  0.33382  0.93548  1.0000
  H   H386      1.0  0.21973  0.17518  0.96065  1.0000
  H   H387      1.0  0.33566  0.20032  0.96621  1.0000
  S   S96       1.0  0.17988  0.33144  0.95673  1.0000
  H   H388      1.0  0.22065  0.07262  0.95400  1.0000
  H   H389      1.0  0.44872  0.10266  0.12297  1.0000
  H   H390      1.0  0.26754  0.19739  0.01927  1.0000
  H   H391      1.0  0.22633  0.39837  0.00585  1.0000
  C   C236      1.0  0.22408  0.08637  0.97336  1.0000
  C   C237      1.0  0.42487  0.32105  0.04135  1.0000
  H   H392      1.0  0.42874  0.37229  0.03804  1.0000
  H   H393      1.0  0.40672  0.13430  0.97922  1.0000
  H   H394      1.0  0.19230  0.50821  0.96874  1.0000
  H   H395      1.0  0.23894  0.21063  0.98253  1.0000
  C   C238      1.0  0.26190  0.21668  0.98081  1.0000
  H   H396      1.0  0.17521  0.43279  0.03529  1.0000
  C   C239      1.0  0.34235  0.14948  0.13094  1.0000
  H   H397      1.0  0.22004  0.31596  0.02017  1.0000
  C   C240      1.0  0.40532  0.30750  0.03292  1.0000
  C   C241      1.0  0.23888  0.32431  0.97579  1.0000
  H   H398      1.0  0.16841  0.51201  0.12178  1.0000
  Fe  Fe48      1.0  0.24443  0.53229  0.05670  1.0000
  S   S97       1.0  0.23610  0.50380  0.01829  1.0000
  S   S98       1.0  0.31136  0.49705  0.02829  1.0000
  H   H399      1.0  0.23738  0.13542  0.04242  1.0000
  C   C242      1.0  0.37350  0.33480  0.01634  1.0000
  H   H400      1.0  0.32360  0.14676  0.96496  1.0000
  N   N25       1.0  0.29993  0.20948  0.92895  1.0000
  H   H401      1.0  0.29997  0.41242  0.10782  1.0000
  H   H402      1.0  0.37336  0.42059  0.00689  1.0000
  H   H403      1.0  0.41437  0.27597  0.03975  1.0000
  H   H404      1.0  0.21738  0.43966  0.02351  1.0000
  Fe  Fe49      1.0  0.13048  0.08098  0.92288  1.0000
  H   H405      1.0  0.39003  0.16327  0.11487  1.0000
  C   C243      1.0  0.38852  0.13899  0.02141  1.0000
  C   C244      1.0  0.23384  0.12166  0.02304  1.0000
  S   S99       1.0  0.28334  0.12899  0.15223  1.0000
  H   H406      1.0  0.14134  0.09632  0.03310  1.0000
  C   C245      1.0  0.36163  0.37558  0.00755  1.0000
  Fe  Fe50      1.0  0.31765  0.54692  0.95036  1.0000
  H   H407      1.0  0.40596  0.55992  0.12544  1.0000
  C   C246      1.0  0.19794  0.44096  0.92632  1.0000
  S   S100      1.0  0.32151  0.40922  0.98759  1.0000
  H   H408      1.0  0.14629  0.21174  0.98366  1.0000
  C   C247      1.0  0.32809  0.13904  0.10932  1.0000
  H   H409      1.0  0.33991  0.34151  0.13584  1.0000
  C   C248      1.0  0.37938  0.15506  0.09781  1.0000
  Fe  Fe51      1.0  0.30342  0.47231  0.98380  1.0000
  H   H410      1.0  0.24799  0.24808  0.98325  1.0000
  Fe  Fe52      1.0  0.24803  0.55245  0.94102  1.0000
  S   S101      1.0  0.44675  0.18738  0.11783  1.0000
  H   H411      1.0  0.16600  0.44245  0.95420  1.0000
  H   H412      1.0  0.31766  0.25020  0.92727  1.0000
  H   H413      1.0  0.15195  0.50113  0.97631  1.0000
  C   C249      1.0  0.18465  0.49689  0.95034  1.0000
  H   H414      1.0  0.16056  0.07276  0.11022  1.0000
  H   H415      1.0  0.21760  0.40969  0.92319  1.0000
  S   S102      1.0  0.45201  0.14958  0.00452  1.0000
  C   C250      1.0  0.25375  0.45121  0.91141  1.0000
  H   H416      1.0  0.29683  0.15994  0.92595  1.0000
  C   C251      1.0  0.27916  0.41236  0.15304  1.0000
  H   H417      1.0  0.27450  0.41968  0.90971  1.0000
  H   H418      1.0  0.26718  0.44282  0.15769  1.0000
  H   H419      1.0  0.17825  0.16772  0.29357  1.0000
  H   H420      1.0  0.41409  0.47075  0.27474  1.0000
  C   C252      1.0  0.37982  0.30130  0.36693  1.0000
  H   H421      1.0  0.32502  0.15335  0.17320  1.0000
  H   H422      1.0  0.40950  0.08907  0.18864  1.0000
  H   H423      1.0  0.20757  0.32942  0.29473  1.0000
  H   H424      1.0  0.34991  0.36917  0.20412  1.0000
  H   H425      1.0  0.16615  0.24841  0.39245  1.0000
  S   S103      1.0  0.23240  0.08469  0.31789  1.0000
  H   H426      1.0  0.21726  0.29426  0.35476  1.0000
  C   C253      1.0  0.15403  0.19526  0.30445  1.0000
  S   S104      1.0  0.14293  0.39817  0.27747  1.0000
  H   H427      1.0  0.21730  0.22808  0.38514  1.0000
  H   H428      1.0  0.25283  0.40702  0.16309  1.0000
  N   N26       1.0  0.20726  0.27250  0.31267  1.0000
  H   H429      1.0  0.36446  0.54361  0.17755  1.0000
  H   H430      1.0  0.18508  0.26375  0.27147  1.0000
  H   H431      1.0  0.32162  0.42124  0.18396  1.0000
  Fe  Fe53      1.0  0.27559  0.11238  0.24030  1.0000
  H   H432      1.0  0.37814  0.52078  0.27885  1.0000
  H   H433      1.0  0.37024  0.49003  0.26214  1.0000
  S   S105      1.0  0.27253  0.08100  0.38779  1.0000
  S   S106      1.0  0.35809  0.29821  0.29918  1.0000
  H   H434      1.0  0.14778  0.29880  0.31477  1.0000
  H   H435      1.0  0.14826  0.21942  0.22618  1.0000
  H   H436      1.0  0.25705  0.23449  0.25647  1.0000
  C   C254      1.0  0.43758  0.31688  0.33253  1.0000
  C   C255      1.0  0.13708  0.22450  0.26634  1.0000
  C   C256      1.0  0.18391  0.11412  0.22228  1.0000
  Fe  Fe54      1.0  0.31767  0.27124  0.38398  1.0000
  C   C257      1.0  0.14113  0.08817  0.31717  1.0000
  S   S107      1.0  0.27827  0.24360  0.39983  1.0000
  S   S108      1.0  0.26381  0.15533  0.27895  1.0000
  H   H437      1.0  0.20120  0.11652  0.23686  1.0000
  S   S109      1.0  0.16137  0.16615  0.40339  1.0000
  H   H438      1.0  0.14599  0.45522  0.17167  1.0000
  C   C258      1.0  0.39399  0.49774  0.25532  1.0000
  C   C259      1.0  0.19945  0.30485  0.33109  1.0000
  H   H439      1.0  0.16672  0.31792  0.35913  1.0000
  H   H440      1.0  0.20490  0.10979  0.17865  1.0000
  H   H441      1.0  0.17129  0.43077  0.30775  1.0000
  C   C260      1.0  0.33342  0.39159  0.17700  1.0000
  H   H442      1.0  0.18591  0.31267  0.24795  1.0000
  H   H443      1.0  0.19518  0.48700  0.25653  1.0000
  Fe  Fe55      1.0  0.22337  0.12540  0.35782  1.0000
  H   H444      1.0  0.20596  0.21388  0.34935  1.0000
  C   C261      1.0  0.18046  0.28752  0.28533  1.0000
  S   S110      1.0  0.36677  0.11196  0.29469  1.0000
  H   H445      1.0  0.27125  0.24579  0.29220  1.0000
  C   C262      1.0  0.17105  0.44829  0.26688  1.0000
  H   H446      1.0  0.29318  0.33441  0.18909  1.0000
  H   H447      1.0  0.33334  0.31890  0.20762  1.0000
  C   C263      1.0  0.13970  0.20188  0.35626  1.0000
  C   C264      1.0  0.19879  0.23938  0.36206  1.0000
  Fe  Fe56      1.0  0.31387  0.10722  0.30483  1.0000
  C   C265      1.0  0.38968  0.54873  0.17145  1.0000
  C   C266      1.0  0.14725  0.07887  0.23774  1.0000
  C   C267      1.0  0.25031  0.25830  0.27228  1.0000
  C   C268      1.0  0.40642  0.30357  0.37723  1.0000
  C   C269      1.0  0.38511  0.31084  0.31181  1.0000
  H   H448      1.0  0.41852  0.33484  0.22434  1.0000
  C   C270      1.0  0.15749  0.43912  0.24277  1.0000
  C   C271      1.0  0.18422  0.48020  0.23820  1.0000
  H   H449      1.0  0.25796  0.28268  0.23493  1.0000
  N   N27       1.0  0.30015  0.38206  0.18995  1.0000
  C   C272      1.0  0.31732  0.34245  0.18028  1.0000
  H   H450      1.0  0.16748  0.07367  0.19465  1.0000
  H   H451      1.0  0.15834  0.14323  0.21982  1.0000
  C   C273      1.0  0.41449  0.32696  0.26713  1.0000
  H   H452      1.0  0.24507  0.37503  0.26083  1.0000
  H   H453      1.0  0.25758  0.41113  0.25842  1.0000
  C   C274      1.0  0.27083  0.38178  0.24957  1.0000
  C   C275      1.0  0.40711  0.55702  0.33173  1.0000
  H   H454      1.0  0.28560  0.35910  0.27866  1.0000
  N   N28       1.0  0.41744  0.51227  0.19479  1.0000
  H   H455      1.0  0.43065  0.50364  0.30742  1.0000
  C   C276      1.0  0.15646  0.46217  0.19048  1.0000
  C   C277      1.0  0.44068  0.33024  0.27757  1.0000
  H   H456      1.0  0.41365  0.47460  0.16806  1.0000
  H   H457      1.0  0.43894  0.20839  0.31151  1.0000
  C   C278      1.0  0.43656  0.52045  0.31876  1.0000
  H   H458      1.0  0.44689  0.08061  0.28585  1.0000
  H   H459      1.0  0.42915  0.11464  0.36928  1.0000
  C   C279      1.0  0.43672  0.48133  0.16494  1.0000
  H   H460      1.0  0.43575  0.54466  0.20939  1.0000
  S   S111      1.0  0.12617  0.38119  0.17364  1.0000
  H   H461      1.0  0.44625  0.26244  0.22534  1.0000
  N   N29       1.0  0.16908  0.08113  0.25997  1.0000
  H   H462      1.0  0.15607  0.09158  0.33447  1.0000
  C   C280      1.0  0.18442  0.50248  0.18505  1.0000
  H   H463      1.0  0.12044  0.10678  0.23561  1.0000
  C   C281      1.0  0.16986  0.49388  0.16173  1.0000
  C   C282      1.0  0.44284  0.07858  0.16173  1.0000
  C   C283      1.0  0.44926  0.52129  0.18749  1.0000
  H   H464      1.0  0.35609  0.29082  0.40187  1.0000
  C   C284      1.0  0.45105  0.56204  0.35274  1.0000
  C   C285      1.0  0.45040  0.08560  0.38412  1.0000
  H   H465      1.0  0.39195  0.07246  0.52509  1.0000
  S   S112      1.0  0.28821  0.28149  0.56637  1.0000
  H   H466      1.0  0.37624  0.44085  0.58033  1.0000
  C   C286      1.0  0.22606  0.08678  0.52772  1.0000
  H   H467      1.0  0.38371  0.50384  0.43710  1.0000
  C   C287      1.0  0.25619  0.52338  0.58259  1.0000
  H   H468      1.0  0.30136  0.19621  0.61217  1.0000
  H   H469      1.0  0.22450  0.24921  0.63734  1.0000
  C   C288      1.0  0.41075  0.08639  0.48244  1.0000
  H   H470      1.0  0.13069  0.30638  0.64614  1.0000
  H   H471      1.0  0.31986  0.32952  0.57379  1.0000
  C   C289      1.0  0.25672  0.48498  0.60052  1.0000
  H   H472      1.0  0.25270  0.16792  0.45775  1.0000
  H   H473      1.0  0.37527  0.09047  0.42517  1.0000
  C   C290      1.0  0.27532  0.11760  0.51666  1.0000
  Fe  Fe57      1.0  0.28300  0.26642  0.50832  1.0000
  H   H474      1.0  0.12445  0.12216  0.50540  1.0000
  H   H475      1.0  0.20941  0.14067  0.46732  1.0000
  H   H476      1.0  0.38660  0.45505  0.48254  1.0000
  H   H477      1.0  0.39510  0.31418  0.61488  1.0000
  C   C291      1.0  0.41786  0.16476  0.64453  1.0000
  H   H478      1.0  0.37376  0.30535  0.54024  1.0000
  C   C292      1.0  0.34341  0.26135  0.64483  1.0000
  H   H479      1.0  0.13679  0.26721  0.59581  1.0000
  C   C293      1.0  0.25842  0.15175  0.65336  1.0000
  H   H480      1.0  0.36616  0.24426  0.61166  1.0000
  H   H481      1.0  0.12868  0.07263  0.52222  1.0000
  S   S113      1.0  0.23982  0.23985  0.53457  1.0000
  C   C294      1.0  0.38937  0.28726  0.62652  1.0000
  H   H482      1.0  0.43045  0.48789  0.52324  1.0000
  C   C295      1.0  0.44167  0.18227  0.63567  1.0000
  H   H483      1.0  0.13439  0.08276  0.64006  1.0000
  Fe  Fe58      1.0  0.29232  0.20138  0.47458  1.0000
  H   H484      1.0  0.25038  0.34167  0.62330  1.0000
  H   H485      1.0  0.40355  0.29372  0.41984  1.0000
  H   H486      1.0  0.35444  0.08709  0.63830  1.0000
  C   C296      1.0  0.31932  0.16532  0.60636  1.0000
  H   H487      1.0  0.27033  0.46866  0.56982  1.0000
  C   C297      1.0  0.34896  0.32189  0.57370  1.0000
  C   C298      1.0  0.14534  0.28673  0.47958  1.0000
  S   S114      1.0  0.26693  0.31406  0.43798  1.0000
  S   S115      1.0  0.16693  0.31978  0.45958  1.0000
  C   C299      1.0  0.35981  0.53852  0.51435  1.0000
  C   C300      1.0  0.22716  0.12398  0.49173  1.0000
  C   C301      1.0  0.12221  0.11490  0.63719  1.0000
  H   H488      1.0  0.15451  0.55090  0.65351  1.0000
  C   C302      1.0  0.23150  0.32447  0.64544  1.0000
  H   H489      1.0  0.16251  0.18813  0.53074  1.0000
  C   C303      1.0  0.27376  0.08065  0.55349  1.0000
  H   H490      1.0  0.18430  0.11726  0.63512  1.0000
  H   H491      1.0  0.26155  0.15380  0.61241  1.0000
  H   H492      1.0  0.36472  0.54563  0.54118  1.0000
  H   H493      1.0  0.14139  0.12850  0.59453  1.0000
  H   H494      1.0  0.35248  0.35023  0.56127  1.0000
  H   H495      1.0  0.33871  0.49620  0.49607  1.0000
  C   C304      1.0  0.37173  0.48725  0.48172  1.0000
  C   C305      1.0  0.24199  0.29394  0.62502  1.0000
  H   H496      1.0  0.43733  0.49891  0.45296  1.0000
  H   H497      1.0  0.19604  0.23453  0.49280  1.0000
  S   S116      1.0  0.41831  0.16266  0.58662  1.0000
  H   H498      1.0  0.36782  0.47892  0.60426  1.0000
  H   H499      1.0  0.32454  0.16607  0.56472  1.0000
  N   N30       1.0  0.37929  0.49546  0.51740  1.0000
  C   C306      1.0  0.36233  0.47349  0.57643  1.0000
  C   C307      1.0  0.32328  0.09755  0.64246  1.0000
  H   H500      1.0  0.12439  0.17961  0.63395  1.0000
  H   H501      1.0  0.39078  0.11763  0.47073  1.0000
  S   S117      1.0  0.43842  0.35767  0.60315  1.0000
  C   C308      1.0  0.23975  0.54416  0.62196  1.0000
  H   H502      1.0  0.43946  0.45036  0.49761  1.0000
  H   H503      1.0  0.37235  0.55586  0.47045  1.0000
  H   H504      1.0  0.32889  0.48271  0.59360  1.0000
  H   H505      1.0  0.32637  0.54946  0.52905  1.0000
  S   S118      1.0  0.30787  0.13550  0.50795  1.0000
  C   C309      1.0  0.42356  0.48255  0.49697  1.0000
  N   N31       1.0  0.29838  0.13804  0.65225  1.0000
  S   S119      1.0  0.33662  0.22503  0.45331  1.0000
  C   C310      1.0  0.25151  0.13952  0.48643  1.0000
  H   H506      1.0  0.41486  0.26947  0.59483  1.0000
  H   H507      1.0  0.26972  0.53627  0.53833  1.0000
  C   C311      1.0  0.16600  0.24590  0.49539  1.0000
  N   N32       1.0  0.34963  0.29793  0.62933  1.0000
  C   C312      1.0  0.14723  0.21951  0.51639  1.0000
  H   H508      1.0  0.34948  0.15598  0.60456  1.0000
  Fe  Fe59      1.0  0.22872  0.28380  0.45872  1.0000
  H   H509      1.0  0.31286  0.26829  0.65002  1.0000
  H   H510      1.0  0.13407  0.56739  0.57965  1.0000
  H   H511      1.0  0.32590  0.09621  0.60389  1.0000
  C   C313      1.0  0.44697  0.39331  0.60698  1.0000
  C   C314      1.0  0.21639  0.27289  0.65291  1.0000
  H   H512      1.0  0.43470  0.08729  0.48580  1.0000
  C   C315      1.0  0.42036  0.41099  0.65282  1.0000
  C   C316      1.0  0.42677  0.43994  0.65558  1.0000
  H   H513      1.0  0.43856  0.42047  0.85797  1.0000
  H   H514      1.0  0.12310  0.21418  0.90187  1.0000
  H   H515      1.0  0.28636  0.33044  0.67499  1.0000
  C   C317      1.0  0.32744  0.07438  0.83162  1.0000
  C   C318      1.0  0.41146  0.43152  0.85044  1.0000
  C   C319      1.0  0.38004  0.42070  0.81491  1.0000
  H   H516      1.0  0.24057  0.35302  0.84674  1.0000
  H   H517      1.0  0.34667  0.16062  0.88992  1.0000
  H   H518      1.0  0.31621  0.30380  0.71482  1.0000
  H   H519      1.0  0.14535  0.24486  0.89164  1.0000
  Fe  Fe60      1.0  0.17719  0.13238  0.87834  1.0000
  S   S120      1.0  0.34877  0.33446  0.88047  1.0000
  C   C320      1.0  0.42176  0.36482  0.86166  1.0000
  S   S121      1.0  0.12814  0.32251  0.78608  1.0000
  C   C321      1.0  0.33297  0.08138  0.86804  1.0000
  H   H520      1.0  0.40711  0.46231  0.82346  1.0000
  C   C322      1.0  0.39252  0.15067  0.69950  1.0000
  Fe  Fe61      1.0  0.13841  0.35965  0.80859  1.0000
  H   H521      1.0  0.37435  0.45149  0.78798  1.0000
  C   C323      1.0  0.41261  0.17494  0.73580  1.0000
  H   H522      1.0  0.39435  0.40286  0.68566  1.0000
  Fe  Fe62      1.0  0.43618  0.31177  0.68429  1.0000
  Fe  Fe63      1.0  0.39730  0.30261  0.81086  1.0000
  C   C324      1.0  0.29251  0.13748  0.70672  1.0000
  S   S122      1.0  0.20245  0.15700  0.89815  1.0000
  H   H523      1.0  0.29757  0.08791  0.83222  1.0000
  C   C325      1.0  0.23966  0.46764  0.65802  1.0000
  Fe  Fe64      1.0  0.16273  0.36326  0.88406  1.0000
  H   H524      1.0  0.37011  0.14518  0.78784  1.0000
  C   C326      1.0  0.28807  0.34539  0.86119  1.0000
  H   H525      1.0  0.44808  0.56224  0.86333  1.0000
  S   S123      1.0  0.40636  0.18498  0.79196  1.0000
  H   H526      1.0  0.44473  0.35453  0.87681  1.0000
  H   H527      1.0  0.35240  0.42124  0.85566  1.0000
  H   H528      1.0  0.30759  0.10058  0.89608  1.0000
  H   H529      1.0  0.16491  0.10890  0.70982  1.0000
  C   C327      1.0  0.25040  0.34507  0.87819  1.0000
  S   S124      1.0  0.43847  0.23863  0.82626  1.0000
  H   H530      1.0  0.37449  0.13643  0.70682  1.0000
  C   C328      1.0  0.16392  0.10412  0.67680  1.0000
  Fe  Fe65      1.0  0.42631  0.23395  0.76576  1.0000
  H   H531      1.0  0.27770  0.11632  0.74212  1.0000
  N   N33       1.0  0.12196  0.12179  0.68189  1.0000
  C   C329      1.0  0.22251  0.52691  0.67960  1.0000
  S   S125      1.0  0.15916  0.42599  0.83971  1.0000
  C   C330      1.0  0.19603  0.33358  0.69400  1.0000
  H   H532      1.0  0.18832  0.35759  0.70850  1.0000
  H   H533      1.0  0.32214  0.12770  0.70689  1.0000
  H   H534      1.0  0.38326  0.40155  0.79450  1.0000
  S   S126      1.0  0.19871  0.34248  0.80493  1.0000
  C   C331      1.0  0.29124  0.23534  0.87895  1.0000
  S   S127      1.0  0.13252  0.42213  0.75906  1.0000
  C   C332      1.0  0.30117  0.33532  0.90142  1.0000
  H   H535      1.0  0.25780  0.46906  0.86762  1.0000
  H   H536      1.0  0.31955  0.23061  0.83930  1.0000
  S   S128      1.0  0.24234  0.41897  0.67907  1.0000
  H   H537      1.0  0.26949  0.22920  0.87775  1.0000
  H   H538      1.0  0.44985  0.43371  0.74006  1.0000
  S   S129      1.0  0.44872  0.32176  0.73934  1.0000
  H   H539      1.0  0.27329  0.16737  0.71608  1.0000
  C   C333      1.0  0.22194  0.48884  0.69765  1.0000
  H   H540      1.0  0.39089  0.26924  0.66783  1.0000
  H   H541      1.0  0.35888  0.21199  0.89093  1.0000
  H   H542      1.0  0.30670  0.35410  0.81689  1.0000
  H   H543      1.0  0.19960  0.45926  0.88350  1.0000
  H   H544      1.0  0.16200  0.26439  0.72519  1.0000
  H   H545      1.0  0.20893  0.47548  0.74216  1.0000
  N   N34       1.0  0.41654  0.40518  0.82405  1.0000
  S   S130      1.0  0.13009  0.09694  0.83992  1.0000
  H   H546      1.0  0.32078  0.34885  0.66223  1.0000
  S   S131      1.0  0.18147  0.15202  0.79134  1.0000
  C   C334      1.0  0.43878  0.18774  0.68108  1.0000
  S   S132      1.0  0.38186  0.29686  0.75519  1.0000
  Fe  Fe66      1.0  0.19069  0.40628  0.76039  1.0000
  H   H547      1.0  0.20963  0.54297  0.71027  1.0000
  H   H548      1.0  0.38466  0.43310  0.89187  1.0000
  C   C335      1.0  0.18097  0.28163  0.70240  1.0000
  H   H549      1.0  0.27786  0.26724  0.87854  1.0000
  C   C336      1.0  0.17095  0.31195  0.72310  1.0000
  H   H550      1.0  0.24289  0.13070  0.68545  1.0000
  C   C337      1.0  0.39008  0.15558  0.74528  1.0000
  H   H551      1.0  0.39291  0.36385  0.89964  1.0000
  Fe  Fe67      1.0  0.19480  0.08893  0.80227  1.0000
  H   H552      1.0  0.40539  0.45459  0.68987  1.0000
  H   H553      1.0  0.30958  0.07568  0.67805  1.0000
  H   H554      1.0  0.43123  0.34275  0.84039  1.0000
  C   C338      1.0  0.31684  0.32120  0.67225  1.0000
  H   H555      1.0  0.34599  0.24136  0.68505  1.0000
  S   S133      1.0  0.31534  0.51922  0.90314  1.0000
  H   H556      1.0  0.23808  0.18135  0.66319  1.0000
  H   H557      1.0  0.17766  0.07151  0.68092  1.0000
  H   H558      1.0  0.18796  0.51641  0.90743  1.0000
  H   H559      1.0  0.43830  0.76341  0.06504  1.0000
  H   H560      1.0  0.27221  0.93606  0.97085  1.0000
  H   H561      1.0  0.44285  0.79246  0.13855  1.0000
  C   C339      1.0  0.16722  0.65560  0.05755  1.0000
  H   H562      1.0  0.27114  0.84042  0.98041  1.0000
  Fe  Fe68      1.0  0.20443  0.79441  0.92015  1.0000
  S   S134      1.0  0.28923  0.94497  0.09242  1.0000
  H   H563      1.0  0.40041  0.04658  0.06290  1.0000
  C   C340      1.0  0.28644  0.70764  0.07391  1.0000
  S   S135      1.0  0.16429  0.87749  0.99010  1.0000
  H   H564      1.0  0.13801  0.90326  0.12984  1.0000
  Fe  Fe69      1.0  0.41276  0.68269  0.10434  1.0000
  H   H565      1.0  0.14929  0.99727  0.13653  1.0000
  H   H566      1.0  0.38373  0.98944  0.01681  1.0000
  H   H567      1.0  0.18175  0.66239  0.01064  1.0000
  H   H568      1.0  0.44048  0.74613  0.15324  1.0000
  C   C341      1.0  0.13027  0.07054  0.13986  1.0000
  H   H569      1.0  0.14764  0.72588  0.07047  1.0000
  S   S136      1.0  0.14443  0.80869  0.99433  1.0000
  H   H570      1.0  0.24564  0.64467  0.01400  1.0000
  H   H571      1.0  0.16801  0.61645  0.98561  1.0000
  Fe  Fe70      1.0  0.37494  0.65662  0.07248  1.0000
  C   C342      1.0  0.15899  0.60089  0.93506  1.0000
  C   C343      1.0  0.35628  0.00588  0.04910  1.0000
  C   C344      1.0  0.42908  0.58928  0.94558  1.0000
  H   H572      1.0  0.27812  0.71885  0.93042  1.0000
  H   H573      1.0  0.13408  0.67411  0.07095  1.0000
  H   H574      1.0  0.21995  0.78445  0.15386  1.0000
  H   H575      1.0  0.26790  0.78208  0.13784  1.0000
  H   H576      1.0  0.23953  0.03237  0.03492  1.0000
  H   H577      1.0  0.41567  0.95668  0.08449  1.0000
  H   H578      1.0  0.42487  0.01738  0.01409  1.0000
  H   H579      1.0  0.29205  0.96915  0.96038  1.0000
  S   S137      1.0  0.23773  0.79297  0.95766  1.0000
  H   H580      1.0  0.31897  0.91610  0.97639  1.0000
  H   H581      1.0  0.17622  0.02306  0.06774  1.0000
  C   C345      1.0  0.31379  0.82466  0.01075  1.0000
  H   H582      1.0  0.31546  0.70981  0.04179  1.0000
  Fe  Fe71      1.0  0.22295  0.85778  0.91618  1.0000
  C   C346      1.0  0.22938  0.63891  0.06070  1.0000
  H   H583      1.0  0.44169  0.06899  0.07810  1.0000
  H   H584      1.0  0.39664  0.98097  0.13707  1.0000
  C   C347      1.0  0.39488  0.03605  0.04080  1.0000
  H   H585      1.0  0.33902  0.03398  0.02655  1.0000
  N   N35       1.0  0.36729  0.01400  0.08076  1.0000
  S   S138      1.0  0.25085  0.58371  0.98207  1.0000
  C   C348      1.0  0.38774  0.97600  0.11285  1.0000
  C   C349      1.0  0.18033  0.70610  0.05638  1.0000
  C   C350      1.0  0.27576  0.84473  0.00915  1.0000
  Fe  Fe72      1.0  0.23736  0.92381  0.15453  1.0000
  H   H586      1.0  0.25331  0.76984  0.04913  1.0000
  C   C351      1.0  0.13035  0.60140  0.92564  1.0000
  H   H587      1.0  0.19466  0.71412  0.00944  1.0000
  C   C352      1.0  0.23488  0.06358  0.01898  1.0000
  C   C353      1.0  0.14593  0.61680  0.97827  1.0000
  C   C354      1.0  0.28785  0.85634  0.08281  1.0000
  S   S139      1.0  0.35320  0.71039  0.09962  1.0000
  Fe  Fe73      1.0  0.38560  0.73535  0.00838  1.0000
  S   S140      1.0  0.44350  0.71286  0.01496  1.0000
  H   H588      1.0  0.43918  0.81106  0.04749  1.0000
  C   C355      1.0  0.24992  0.87680  0.08063  1.0000
  H   H589      1.0  0.17050  0.62385  0.07374  1.0000
  N   N36       1.0  0.18550  0.66375  0.07897  1.0000
  C   C356      1.0  0.33011  0.03826  0.12017  1.0000
  S   S141      1.0  0.24816  0.05546  0.10477  1.0000
  C   C357      1.0  0.16510  0.65439  0.14120  1.0000
  C   C358      1.0  0.25104  0.74164  0.07729  1.0000
  S   S142      1.0  0.38066  0.87520  0.13601  1.0000
  H   H590      1.0  0.38196  0.06275  0.01205  1.0000
  H   H591      1.0  0.33711  0.04520  0.14472  1.0000
  C   C359      1.0  0.28600  0.69664  0.91230  1.0000
  H   H592      1.0  0.36754  0.95877  0.14360  1.0000
  H   H593      1.0  0.41460  0.61278  0.96755  1.0000
  H   H594      1.0  0.40411  0.58302  0.95311  1.0000
  H   H595      1.0  0.24405  0.64505  0.07541  1.0000
  H   H596      1.0  0.31385  0.06709  0.09729  1.0000
  C   C360      1.0  0.31970  0.82990  0.04826  1.0000
  S   S143      1.0  0.40399  0.68332  0.98045  1.0000
  S   S144      1.0  0.21016  0.90967  0.12380  1.0000
  Fe  Fe74      1.0  0.17703  0.81221  0.02901  1.0000
  H   H597      1.0  0.34913  0.81432  0.04953  1.0000
  H   H598      1.0  0.13578  0.01320  0.08038  1.0000
  H   H599      1.0  0.33667  0.98808  0.07758  1.0000
  C   C361      1.0  0.14570  0.02181  0.09924  1.0000
  C   C362      1.0  0.24368  0.87051  0.04447  1.0000
  C   C363      1.0  0.28429  0.67125  0.11170  1.0000
  S   S145      1.0  0.32948  0.62986  0.10907  1.0000
  H   H600      1.0  0.23455  0.60668  0.07781  1.0000
  Fe  Fe75      1.0  0.25329  0.99217  0.13954  1.0000
  Fe  Fe76      1.0  0.13620  0.87248  0.94976  1.0000
  H   H601      1.0  0.21442  0.88618  0.04267  1.0000
  H   H602      1.0  0.44151  0.87542  0.15009  1.0000
  C   C364      1.0  0.21313  0.73949  0.11805  1.0000
  H   H603      1.0  0.19427  0.71340  0.07063  1.0000
  S   S146      1.0  0.35430  0.79476  0.96376  1.0000
  S   S147      1.0  0.16886  0.78168  0.11893  1.0000
  H   H604      1.0  0.29268  0.86075  0.11119  1.0000
  C   C365      1.0  0.43509  0.04705  0.11951  1.0000
  C   C366      1.0  0.30075  0.94081  0.95257  1.0000
  H   H605      1.0  0.44439  0.01884  0.11080  1.0000
  H   H606      1.0  0.33147  0.65240  0.94411  1.0000
  S   S148      1.0  0.43240  0.62671  0.08376  1.0000
  C   C367      1.0  0.24637  0.66904  0.15332  1.0000
  H   H607      1.0  0.15679  0.85048  0.14149  1.0000
  H   H608      1.0  0.40161  0.05822  0.14520  1.0000
  C   C368      1.0  0.21078  0.70341  0.15703  1.0000
  H   H609      1.0  0.30838  0.02286  0.15084  1.0000
  C   C369      1.0  0.31651  0.65909  0.91957  1.0000
  S   S149      1.0  0.35702  0.58030  0.91666  1.0000
  H   H610      1.0  0.13211  0.67319  0.15672  1.0000
  H   H611      1.0  0.28212  0.76983  0.21622  1.0000
  H   H612      1.0  0.28140  0.90421  0.30980  1.0000
  H   H613      1.0  0.24463  0.64110  0.18337  1.0000
  C   C370      1.0  0.39931  0.06307  0.31161  1.0000
  Fe  Fe77      1.0  0.23040  0.93392  0.25469  1.0000
  H   H614      1.0  0.19383  0.01745  0.28703  1.0000
  H   H615      1.0  0.24388  0.71451  0.20359  1.0000
  H   H616      1.0  0.39187  0.60626  0.35762  1.0000
  H   H617      1.0  0.34172  0.83268  0.33893  1.0000
  S   S150      1.0  0.28157  0.95586  0.20041  1.0000
  S   S151      1.0  0.27038  0.67780  0.35427  1.0000
  C   C371      1.0  0.42371  0.85771  0.23973  1.0000
  S   S152      1.0  0.30567  0.97675  0.36974  1.0000
  H   H618      1.0  0.22370  0.84616  0.36070  1.0000
  S   S153      1.0  0.19577  0.93560  0.34574  1.0000
  H   H619      1.0  0.24542  0.70205  0.26867  1.0000
  H   H620      1.0  0.23322  0.80590  0.24840  1.0000
  H   H621      1.0  0.24838  0.75558  0.28771  1.0000
  C   C372      1.0  0.37293  0.73465  0.29176  1.0000
  C   C373      1.0  0.29230  0.93506  0.33808  1.0000
  H   H622      1.0  0.44832  0.86106  0.23594  1.0000
  C   C374      1.0  0.14662  0.84221  0.36021  1.0000
  H   H623      1.0  0.22145  0.82107  0.16799  1.0000
  S   S154      1.0  0.40157  0.83378  0.35375  1.0000
  H   H624      1.0  0.28627  0.71290  0.20381  1.0000
  C   C375      1.0  0.41972  0.86590  0.19126  1.0000
  H   H625      1.0  0.36102  0.76772  0.28010  1.0000
  C   C376      1.0  0.35860  0.85107  0.24975  1.0000
  H   H626      1.0  0.13892  0.78834  0.38234  1.0000
  H   H627      1.0  0.18398  0.75285  0.30792  1.0000
  C   C377      1.0  0.17028  0.85852  0.35486  1.0000
  C   C378      1.0  0.36337  0.84192  0.29794  1.0000
  H   H628      1.0  0.34685  0.72551  0.31158  1.0000
  C   C379      1.0  0.41457  0.99190  0.34382  1.0000
  C   C380      1.0  0.23545  0.78899  0.16893  1.0000
  C   C381      1.0  0.20515  0.83343  0.36582  1.0000
  H   H629      1.0  0.21964  0.04203  0.28279  1.0000
  H   H630      1.0  0.20045  0.74463  0.39909  1.0000
  C   C382      1.0  0.39582  0.84536  0.29311  1.0000
  H   H631      1.0  0.32510  0.92105  0.31803  1.0000
  H   H632      1.0  0.14840  0.87164  0.19046  1.0000
  H   H633      1.0  0.35777  0.03599  0.34086  1.0000
  H   H634      1.0  0.42854  0.66197  0.30638  1.0000
  S   S155      1.0  0.32897  0.06670  0.25937  1.0000
  H   H635      1.0  0.38157  0.66386  0.36799  1.0000
  H   H636      1.0  0.13269  0.04776  0.17881  1.0000
  H   H637      1.0  0.18144  0.70200  0.18955  1.0000
  S   S156      1.0  0.36009  0.57450  0.33135  1.0000
  C   C383      1.0  0.19215  0.77621  0.38781  1.0000
  C   C384      1.0  0.18800  0.77205  0.26462  1.0000
  H   H638      1.0  0.17345  0.76553  0.25014  1.0000
  H   H639      1.0  0.17110  0.80356  0.26777  1.0000
  H   H640      1.0  0.41703  0.76349  0.28903  1.0000
  H   H641      1.0  0.33304  0.84890  0.25397  1.0000
  S   S157      1.0  0.19955  0.97416  0.19672  1.0000
  C   C385      1.0  0.20749  0.97195  0.38895  1.0000
  Fe  Fe78      1.0  0.28503  0.04279  0.34109  1.0000
  Fe  Fe79      1.0  0.30917  0.61721  0.38619  1.0000
  H   H642      1.0  0.13090  0.06287  0.34689  1.0000
  H   H643      1.0  0.39471  0.72413  0.25230  1.0000
  H   H644      1.0  0.37543  0.57311  0.19203  1.0000
  N   N37       1.0  0.23150  0.76418  0.22615  1.0000
  C   C386      1.0  0.41447  0.57794  0.34828  1.0000
  S   S158      1.0  0.26452  0.88161  0.21704  1.0000
  C   C387      1.0  0.25276  0.72165  0.22541  1.0000
  C   C388      1.0  0.24960  0.77431  0.24547  1.0000
  H   H645      1.0  0.13596  0.05402  0.26485  1.0000
  C   C389      1.0  0.42689  0.73056  0.30222  1.0000
  C   C390      1.0  0.27455  0.96342  0.36742  1.0000
  C   C391      1.0  0.26768  0.92563  0.33336  1.0000
  C   C392      1.0  0.20385  0.04311  0.26253  1.0000
  C   C393      1.0  0.40720  0.67412  0.34459  1.0000
  H   H646      1.0  0.33629  0.72247  0.40500  1.0000
  C   C394      1.0  0.13617  0.87531  0.16312  1.0000
  S   S159      1.0  0.41851  0.68596  0.17267  1.0000
  H   H647      1.0  0.40585  0.96727  0.35842  1.0000
  H   H648      1.0  0.16218  0.89040  0.34126  1.0000
  C   C395      1.0  0.23217  0.98194  0.39294  1.0000
  C   C396      1.0  0.22541  0.94418  0.35839  1.0000
  N   N38       1.0  0.39236  0.71797  0.33009  1.0000
  C   C397      1.0  0.21632  0.79205  0.38204  1.0000
  H   H649      1.0  0.41805  0.01717  0.22979  1.0000
  C   C398      1.0  0.38691  0.86293  0.19631  1.0000
  H   H650      1.0  0.44108  0.71981  0.33099  1.0000
  C   C399      1.0  0.15747  0.80109  0.37722  1.0000
  H   H651      1.0  0.22680  0.03816  0.21985  1.0000
  C   C400      1.0  0.36213  0.73248  0.38207  1.0000
  C   C401      1.0  0.38756  0.03100  0.33283  1.0000
  H   H652      1.0  0.42350  0.66027  0.37161  1.0000
  H   H653      1.0  0.34937  0.76543  0.37248  1.0000
  C   C402      1.0  0.43769  0.05589  0.30290  1.0000
  H   H654      1.0  0.27603  0.84742  0.39752  1.0000
  H   H655      1.0  0.38535  0.91081  0.39729  1.0000
  H   H656      1.0  0.16787  0.62275  0.15911  1.0000
  S   S160      1.0  0.26046  0.75986  0.39452  1.0000
  H   H657      1.0  0.17850  0.65936  0.15904  1.0000
  C   C403      1.0  0.45233  0.98498  0.33707  1.0000
  H   H658      1.0  0.45111  0.71861  0.26431  1.0000
  Fe  Fe80      1.0  0.31370  0.90678  0.15810  1.0000
  C   C404      1.0  0.45084  0.00946  0.20034  1.0000
  S   S161      1.0  0.16579  0.67702  0.40703  1.0000
  H   H659      1.0  0.12563  0.88072  0.46104  1.0000
  Fe  Fe81      1.0  0.16542  0.94487  0.62246  1.0000
  C   C405      1.0  0.26077  0.87351  0.47787  1.0000
  H   H660      1.0  0.23181  0.89770  0.47579  1.0000
  Fe  Fe82      1.0  0.25502  0.62115  0.50826  1.0000
  H   H661      1.0  0.37590  0.72132  0.41145  1.0000
  H   H662      1.0  0.32014  0.99176  0.57483  1.0000
  H   H663      1.0  0.23632  0.82208  0.57471  1.0000
  C   C406      1.0  0.33823  0.88059  0.53961  1.0000
  H   H664      1.0  0.26328  0.96769  0.63144  1.0000
  S   S162      1.0  0.25590  0.59902  0.45141  1.0000
  C   C407      1.0  0.39515  0.90148  0.48509  1.0000
  H   H665      1.0  0.34399  0.96755  0.44250  1.0000
  H   H666      1.0  0.26231  0.87393  0.51378  1.0000
  C   C408      1.0  0.45021  0.69822  0.46003  1.0000
  H   H667      1.0  0.18229  0.59308  0.56085  1.0000
  H   H668      1.0  0.32934  0.88940  0.57666  1.0000
  S   S163      1.0  0.40024  0.95594  0.56910  1.0000
  S   S164      1.0  0.19598  0.06799  0.53178  1.0000
  C   C409      1.0  0.32997  0.94773  0.48228  1.0000
  H   H669      1.0  0.31149  0.80171  0.51119  1.0000
  N   N39       1.0  0.42838  0.06431  0.44076  1.0000
  C   C410      1.0  0.12894  0.93696  0.51556  1.0000
  H   H670      1.0  0.23537  0.79181  0.54743  1.0000
  C   C411      1.0  0.39526  0.06111  0.44178  1.0000
  C   C412      1.0  0.23279  0.82211  0.54029  1.0000
  Fe  Fe83      1.0  0.21705  0.66151  0.42471  1.0000
  H   H671      1.0  0.32825  0.81312  0.43680  1.0000
  C   C413      1.0  0.42278  0.73728  0.46306  1.0000
  Fe  Fe84      1.0  0.42219  0.95078  0.62549  1.0000
  C   C414      1.0  0.15533  0.61966  0.57537  1.0000
  C   C415      1.0  0.36984  0.89279  0.43831  1.0000
  S   S165      1.0  0.31008  0.63720  0.44416  1.0000
  S   S166      1.0  0.12677  0.00885  0.62291  1.0000
  S   S167      1.0  0.21158  0.68219  0.48730  1.0000
  H   H672      1.0  0.39079  0.86111  0.44025  1.0000
  H   H673      1.0  0.39271  0.88376  0.65312  1.0000
  H   H674      1.0  0.14946  0.80673  0.49919  1.0000
  S   S168      1.0  0.22278  0.95226  0.59121  1.0000
  H   H675      1.0  0.22352  0.85949  0.44402  1.0000
  H   H676      1.0  0.31010  0.88320  0.54242  1.0000
  Fe  Fe85      1.0  0.26612  0.69684  0.41752  1.0000
  C   C416      1.0  0.30442  0.80462  0.47838  1.0000
  N   N40       1.0  0.11923  0.60934  0.61903  1.0000
  C   C417      1.0  0.29140  0.94939  0.63619  1.0000
  Fe  Fe86      1.0  0.18340  0.01483  0.59983  1.0000
  H   H677      1.0  0.32040  0.95865  0.51769  1.0000
  H   H678      1.0  0.30768  0.77475  0.48242  1.0000
  H   H679      1.0  0.15912  0.92611  0.48335  1.0000
  C   C418      1.0  0.42659  0.75958  0.48243  1.0000
  S   S169      1.0  0.24140  0.59123  0.59965  1.0000
  H   H680      1.0  0.24764  0.03700  0.58782  1.0000
  H   H681      1.0  0.40502  0.78961  0.48510  1.0000
  S   S170      1.0  0.43241  0.00399  0.60864  1.0000
  H   H682      1.0  0.12863  0.85536  0.55056  1.0000
  N   N41       1.0  0.35829  0.90570  0.48630  1.0000
  S   S171      1.0  0.16644  0.90985  0.58249  1.0000
  C   C419      1.0  0.36444  0.90216  0.64846  1.0000
  H   H683      1.0  0.16358  0.63192  0.59187  1.0000
  H   H684      1.0  0.28608  0.88155  0.43866  1.0000
  H   H685      1.0  0.21852  0.00383  0.41586  1.0000
  C   C420      1.0  0.25458  0.83738  0.44041  1.0000
  C   C421      1.0  0.35986  0.93946  0.61067  1.0000
  H   H686      1.0  0.35890  0.84868  0.54390  1.0000
  H   H687      1.0  0.39837  0.75039  0.45067  1.0000
  H   H688      1.0  0.34277  0.89608  0.43736  1.0000
  H   H689      1.0  0.44175  0.00777  0.49829  1.0000
  H   H690      1.0  0.41163  0.91939  0.44520  1.0000
  H   H691      1.0  0.15000  0.64221  0.53786  1.0000
  S   S172      1.0  0.44310  0.67079  0.43781  1.0000
  H   H692      1.0  0.25664  0.80837  0.44330  1.0000
  N   N42       1.0  0.26317  0.83442  0.48421  1.0000
  C   C422      1.0  0.24885  0.06540  0.55937  1.0000
  H   H693      1.0  0.20128  0.84276  0.54479  1.0000
  H   H694      1.0  0.30190  0.95196  0.48292  1.0000
  H   H695      1.0  0.38746  0.91158  0.52019  1.0000
  H   H696      1.0  0.37551  0.04899  0.48532  1.0000
  C   C423      1.0  0.32351  0.96298  0.60427  1.0000
  H   H697      1.0  0.13998  0.72423  0.47866  1.0000
  H   H698      1.0  0.41679  0.86993  0.48918  1.0000
  H   H699      1.0  0.29173  0.06377  0.57762  1.0000
  H   H700      1.0  0.40719  0.04078  0.41633  1.0000
  C   C424      1.0  0.12386  0.93384  0.56813  1.0000
  H   H701      1.0  0.17473  0.98660  0.40795  1.0000
  S   S173      1.0  0.19698  0.06826  0.88515  1.0000
  S   S174      1.0  0.23915  0.05664  0.73407  1.0000
  C   C425      1.0  0.39877  0.03250  0.79438  1.0000
  H   H702      1.0  0.14471  0.76553  0.82309  1.0000
  H   H703      1.0  0.15834  0.85007  0.81580  1.0000
  H   H704      1.0  0.30864  0.98591  0.70582  1.0000
  C   C426      1.0  0.29326  0.93782  0.77605  1.0000
  C   C427      1.0  0.37532  0.80789  0.77899  1.0000
  Fe  Fe87      1.0  0.44910  0.90507  0.72180  1.0000
  C   C428      1.0  0.24706  0.00650  0.76743  1.0000
  H   H705      1.0  0.31375  0.97578  0.81628  1.0000
  H   H706      1.0  0.12365  0.83789  0.88765  1.0000
  H   H707      1.0  0.28875  0.00373  0.86674  1.0000
  H   H708      1.0  0.40113  0.79877  0.78783  1.0000
  H   H709      1.0  0.37218  0.75864  0.87974  1.0000
  N   N43       1.0  0.32363  0.94188  0.89176  1.0000
  H   H710      1.0  0.35020  0.90359  0.83842  1.0000
  C   C429      1.0  0.26285  0.92689  0.82705  1.0000
  S   S175      1.0  0.17204  0.00106  0.68941  1.0000
  H   H711      1.0  0.38146  0.92490  0.88884  1.0000
  C   C430      1.0  0.38459  0.74107  0.79276  1.0000
  H   H712      1.0  0.41270  0.72861  0.79851  1.0000
  H   H713      1.0  0.18111  0.78333  0.80634  1.0000
  H   H714      1.0  0.26945  0.96949  0.87861  1.0000
  C   C431      1.0  0.12407  0.84308  0.76942  1.0000
  H   H715      1.0  0.32608  0.79851  0.75948  1.0000
  C   C432      1.0  0.30461  0.63776  0.86908  1.0000
  C   C433      1.0  0.28508  0.97751  0.74544  1.0000
  C   C434      1.0  0.27460  0.67525  0.86134  1.0000
  C   C435      1.0  0.34496  0.77016  0.87232  1.0000
  Fe  Fe88      1.0  0.44564  0.05983  0.87542  1.0000
  S   S176      1.0  0.27490  0.87798  0.86669  1.0000
  S   S177      1.0  0.25752  0.89321  0.71009  1.0000
  C   C436      1.0  0.33533  0.90331  0.88374  1.0000
  H   H716      1.0  0.25813  0.68111  0.83943  1.0000
  H   H717      1.0  0.42430  0.01392  0.76587  1.0000
  H   H718      1.0  0.43372  0.02505  0.83141  1.0000
  H   H719      1.0  0.37795  0.95123  0.82261  1.0000
  H   H720      1.0  0.32377  0.79771  0.88812  1.0000
  C   C437      1.0  0.40421  0.03933  0.83100  1.0000
  H   H721      1.0  0.43561  0.78271  0.87242  1.0000
  C   C438      1.0  0.36065  0.94925  0.86869  1.0000
  H   H722      1.0  0.35348  0.83733  0.78931  1.0000
  H   H723      1.0  0.15530  0.84313  0.73951  1.0000
  N   N44       1.0  0.35584  0.77826  0.81204  1.0000
  C   C439      1.0  0.12701  0.84984  0.84339  1.0000
  C   C440      1.0  0.22417  0.95557  0.84797  1.0000
  C   C441      1.0  0.42754  0.63783  0.85861  1.0000
  S   S178      1.0  0.22442  0.74981  0.87703  1.0000
  C   C442      1.0  0.36042  0.05011  0.79453  1.0000
  H   H724      1.0  0.35297  0.97772  0.87511  1.0000
  H   H725      1.0  0.39409  0.74625  0.74711  1.0000
  H   H726      1.0  0.20074  0.94717  0.88779  1.0000
  H   H727      1.0  0.30232  0.77280  0.83041  1.0000
  H   H728      1.0  0.37057  0.71835  0.81629  1.0000
  H   H729      1.0  0.32319  0.91557  0.76024  1.0000
  C   C443      1.0  0.33260  0.88830  0.67928  1.0000
  H   H730      1.0  0.41181  0.66221  0.87977  1.0000
  S   S179      1.0  0.35270  0.04128  0.75003  1.0000
  Fe  Fe89      1.0  0.40376  0.99443  0.70237  1.0000
  C   C444      1.0  0.14925  0.78461  0.83409  1.0000
  H   H731      1.0  0.14027  0.58929  0.89221  1.0000
  H   H732      1.0  0.29700  0.82264  0.81557  1.0000
  H   H733      1.0  0.18717  0.01780  0.83599  1.0000
  H   H734      1.0  0.40382  0.63220  0.86147  1.0000
  C   C445      1.0  0.26471  0.70453  0.88370  1.0000
  S   S180      1.0  0.19414  0.85786  0.87292  1.0000
  N   N45       1.0  0.11956  0.82593  0.82827  1.0000
  H   H735      1.0  0.32996  0.74817  0.89899  1.0000
  H   H736      1.0  0.38765  0.81204  0.73292  1.0000
  C   C446      1.0  0.29769  0.97411  0.86226  1.0000
  H   H737      1.0  0.33596  0.85939  0.70753  1.0000
  Fe  Fe90      1.0  0.20759  0.93765  0.68248  1.0000
  C   C447      1.0  0.21654  0.99556  0.81862  1.0000
  C   C448      1.0  0.29601  0.91195  0.67365  1.0000
  S   S181      1.0  0.38868  0.94471  0.71846  1.0000
  S   S182      1.0  0.15267  0.92602  0.71323  1.0000
  S   S183      1.0  0.21088  0.57924  0.89327  1.0000
  C   C449      1.0  0.32523  0.62942  0.89875  1.0000
  C   C450      1.0  0.37149  0.06429  0.86718  1.0000
  C   C451      1.0  0.12848  0.57830  0.66686  1.0000
  C   C452      1.0  0.31880  0.79360  0.80409  1.0000
  H   H738      1.0  0.13679  0.58880  0.68569  1.0000
  H   H739      1.0  0.14666  0.77087  0.87807  1.0000
  H   H740      1.0  0.31088  0.61482  0.85348  1.0000
  H   H741      1.0  0.44569  0.64873  0.81317  1.0000
  H   H742      1.0  0.35687  0.87847  0.90248  1.0000
  S   S184      1.0  0.45062  0.85474  0.79860  1.0000
  H   H743      1.0  0.30835  0.89563  0.90400  1.0000
  S   S185      1.0  0.61983  0.13833  0.93395  1.0000
  C   C453      1.0  0.75319  0.55783  0.94647  1.0000
  N   N46       1.0  0.57236  0.30286  0.96225  1.0000
  Fe  Fe91      1.0  0.55835  0.15967  0.00275  1.0000
  C   C454      1.0  0.59651  0.31669  0.96499  1.0000
  Fe  Fe92      1.0  0.63667  0.23346  0.10091  1.0000
  Fe  Fe93      1.0  0.71362  0.24524  0.05416  1.0000
  C   C455      1.0  0.71310  0.39446  0.94090  1.0000
  H   H744      1.0  0.59391  0.24543  0.01391  1.0000
  S   S186      1.0  0.74945  0.15953  0.94356  1.0000
  H   H745      1.0  0.60063  0.34375  0.93134  1.0000
  C   C456      1.0  0.77669  0.30962  0.04065  1.0000
  C   C457      1.0  0.53271  0.33526  0.96519  1.0000
  H   H746      1.0  0.62748  0.29375  0.95914  1.0000
  H   H747      1.0  0.75316  0.43146  0.08455  1.0000
  H   H748      1.0  0.66163  0.47060  0.92902  1.0000
  H   H749      1.0  0.66824  0.35169  0.97984  1.0000
  H   H750      1.0  0.45591  0.49068  0.11945  1.0000
  C   C458      1.0  0.57727  0.36298  0.13520  1.0000
  H   H751      1.0  0.46766  0.53215  0.14219  1.0000
  H   H752      1.0  0.58755  0.09091  0.92186  1.0000
  H   H753      1.0  0.58178  0.32364  0.00622  1.0000
  C   C459      1.0  0.64355  0.17289  0.96202  1.0000
  C   C460      1.0  0.72649  0.28240  0.12100  1.0000
  H   H754      1.0  0.54416  0.27785  0.05083  1.0000
  S   S187      1.0  0.54193  0.44465  0.11015  1.0000
  S   S188      1.0  0.66392  0.45292  0.14693  1.0000
  H   H755      1.0  0.53641  0.36197  0.93041  1.0000
  S   S189      1.0  0.72489  0.45249  0.98745  1.0000
  H   H756      1.0  0.61168  0.18851  0.98450  1.0000
  Fe  Fe94      1.0  0.50378  0.14226  0.12957  1.0000
  Fe  Fe95      1.0  0.70595  0.16598  0.13318  1.0000
  C   C461      1.0  0.56522  0.26870  0.01021  1.0000
  C   C462      1.0  0.59490  0.29048  0.90898  1.0000
  H   H757      1.0  0.73264  0.36627  0.92679  1.0000
  C   C463      1.0  0.71805  0.55249  0.99340  1.0000
  H   H758      1.0  0.60607  0.29953  0.15150  1.0000
  H   H759      1.0  0.61960  0.39209  0.99797  1.0000
  H   H760      1.0  0.55082  0.25524  0.00587  1.0000
  C   C464      1.0  0.77672  0.28432  0.13266  1.0000
  Fe  Fe96      1.0  0.47442  0.16424  0.04241  1.0000
  Fe  Fe97      1.0  0.48319  0.22619  0.05873  1.0000
  C   C465      1.0  0.58384  0.32508  0.13731  1.0000
  C   C466      1.0  0.65596  0.14751  0.93140  1.0000
  H   H761      1.0  0.72797  0.41647  0.91017  1.0000
  C   C467      1.0  0.67252  0.17752  0.96425  1.0000
  H   H762      1.0  0.51446  0.34435  0.00570  1.0000
  H   H763      1.0  0.59766  0.08756  0.11586  1.0000
  S   S190      1.0  0.67993  0.25192  0.01300  1.0000
  H   H764      1.0  0.64648  0.44541  0.00174  1.0000
  H   H765      1.0  0.54029  0.13223  0.94039  1.0000
  C   C468      1.0  0.62704  0.08991  0.08057  1.0000
  S   S191      1.0  0.53877  0.18206  0.07380  1.0000
  S   S192      1.0  0.64900  0.40048  0.11094  1.0000
  C   C469      1.0  0.77177  0.54172  0.09334  1.0000
  S   S193      1.0  0.66911  0.16881  0.09928  1.0000
  H   H766      1.0  0.51419  0.32591  0.96197  1.0000
  C   C470      1.0  0.52474  0.39211  0.10365  1.0000
  H   H767      1.0  0.51245  0.35070  0.09638  1.0000
  C   C471      1.0  0.78323  0.43167  0.07023  1.0000
  H   H768      1.0  0.75568  0.10094  0.08873  1.0000
  C   C472      1.0  0.56095  0.32042  0.12269  1.0000
  C   C473      1.0  0.53068  0.35402  0.10705  1.0000
  Fe  Fe98      1.0  0.58612  0.44685  0.12625  1.0000
  Fe  Fe99      1.0  0.71596  0.18741  0.01523  1.0000
  H   H769      1.0  0.68170  0.51655  0.04193  1.0000
  H   H770      1.0  0.78380  0.35733  0.12196  1.0000
  S   S194      1.0  0.52838  0.11558  0.05979  1.0000
  S   S195      1.0  0.75392  0.18213  0.04882  1.0000
  H   H771      1.0  0.62672  0.11884  0.07487  1.0000
  C   C474      1.0  0.73531  0.49338  0.97132  1.0000
  H   H772      1.0  0.71295  0.38831  0.98185  1.0000
  S   S196      1.0  0.46322  0.28731  0.06462  1.0000
  S   S197      1.0  0.57088  0.27312  0.12163  1.0000
  H   H773      1.0  0.50210  0.41801  0.09002  1.0000
  H   H774      1.0  0.62798  0.09092  0.04167  1.0000
  C   C475      1.0  0.54835  0.39667  0.11721  1.0000
  S   S198      1.0  0.60729  0.49808  0.07787  1.0000
  Fe  Fe100     1.0  0.66923  0.45160  0.06846  1.0000
  H   H775      1.0  0.65137  0.37488  0.03174  1.0000
  C   C476      1.0  0.70911  0.52027  0.00584  1.0000
  H   H776      1.0  0.66296  0.19642  0.98904  1.0000
  S   S199      1.0  0.73450  0.29507  0.01622  1.0000
  C   C477      1.0  0.74535  0.29715  0.06280  1.0000
  H   H777      1.0  0.78260  0.43552  0.10542  1.0000
  C   C478      1.0  0.65171  0.38088  0.99082  1.0000
  S   S200      1.0  0.50589  0.20738  0.98233  1.0000
  H   H778      1.0  0.54219  0.09124  0.93079  1.0000
  H   H779      1.0  0.70073  0.27480  0.13870  1.0000
  C   C479      1.0  0.71391  0.15718  0.93506  1.0000
  C   C480      1.0  0.64766  0.44822  0.96177  1.0000
  H   H780      1.0  0.61573  0.46043  0.96755  1.0000
  N   N47       1.0  0.67143  0.40954  0.94647  1.0000
  H   H781      1.0  0.77029  0.54090  0.05866  1.0000
  C   C481      1.0  0.55944  0.11004  0.91451  1.0000
  S   S201      1.0  0.66946  0.22868  0.14253  1.0000
  H   H782      1.0  0.59463  0.36593  0.14771  1.0000
  C   C482      1.0  0.74181  0.27667  0.15631  1.0000
  C   C483      1.0  0.77972  0.53063  0.91241  1.0000
  C   C484      1.0  0.77064  0.49857  0.92460  1.0000
  H   H783      1.0  0.70259  0.08838  0.03876  1.0000
  C   C485      1.0  0.75308  0.07360  0.11975  1.0000
  H   H784      1.0  0.66239  0.08269  0.13938  1.0000
  H   H785      1.0  0.78502  0.38526  0.02701  1.0000
  N   N48       1.0  0.55095  0.32834  0.37309  1.0000
  H   H786      1.0  0.61886  0.09782  0.36516  1.0000
  H   H787      1.0  0.71140  0.50645  0.16254  1.0000
  H   H788      1.0  0.61470  0.55607  0.27025  1.0000
  H   H789      1.0  0.71659  0.10470  0.31102  1.0000
  H   H790      1.0  0.57701  0.36515  0.36261  1.0000
  C   C486      1.0  0.47753  0.24261  0.20292  1.0000
  H   H791      1.0  0.53499  0.17198  0.18738  1.0000
  C   C487      1.0  0.56648  0.33490  0.31169  1.0000
  C   C488      1.0  0.48014  0.52508  0.34072  1.0000
  H   H792      1.0  0.66105  0.45444  0.25404  1.0000
  H   H793      1.0  0.52100  0.55047  0.16923  1.0000
  H   H794      1.0  0.48305  0.16437  0.31575  1.0000
  H   H795      1.0  0.46421  0.17560  0.26724  1.0000
  H   H796      1.0  0.65123  0.12539  0.31339  1.0000
  H   H797      1.0  0.76604  0.19597  0.20893  1.0000
  H   H798      1.0  0.51724  0.20749  0.29603  1.0000
  H   H799      1.0  0.74164  0.51152  0.38971  1.0000
  Fe  Fe101     1.0  0.49121  0.24723  0.39852  1.0000
  C   C489      1.0  0.47309  0.50454  0.32310  1.0000
  H   H800      1.0  0.49538  0.47577  0.31449  1.0000
  H   H801      1.0  0.60856  0.31341  0.36901  1.0000
  H   H802      1.0  0.46516  0.34016  0.24276  1.0000
  C   C490      1.0  0.53660  0.18468  0.21134  1.0000
  H   H803      1.0  0.70931  0.47812  0.39622  1.0000
  H   H804      1.0  0.75703  0.26152  0.32916  1.0000
  H   H805      1.0  0.47096  0.49444  0.20442  1.0000
  S   S202      1.0  0.47643  0.30940  0.34481  1.0000
  H   H806      1.0  0.67181  0.44710  0.30908  1.0000
  H   H807      1.0  0.67057  0.55310  0.17665  1.0000
  C   C491      1.0  0.65109  0.09506  0.33875  1.0000
  N   N49       1.0  0.66837  0.50379  0.24950  1.0000
  H   H808      1.0  0.74856  0.18881  0.17286  1.0000
  H   H809      1.0  0.60567  0.51655  0.27530  1.0000
  C   C492      1.0  0.76455  0.31743  0.27879  1.0000
  H   H810      1.0  0.75741  0.15133  0.23254  1.0000
  H   H811      1.0  0.59827  0.31373  0.29374  1.0000
  H   H812      1.0  0.55030  0.15941  0.24034  1.0000
  H   H813      1.0  0.70473  0.39385  0.21271  1.0000
  H   H814      1.0  0.68409  0.54313  0.25470  1.0000
  S   S203      1.0  0.72249  0.11222  0.19898  1.0000
  S   S204      1.0  0.58165  0.54884  0.18639  1.0000
  H   H815      1.0  0.45701  0.45308  0.18275  1.0000
  C   C493      1.0  0.50853  0.35658  0.39509  1.0000
  S   S205      1.0  0.55589  0.20462  0.36718  1.0000
  H   H816      1.0  0.77835  0.54507  0.21608  1.0000
  H   H817      1.0  0.71169  0.44498  0.23908  1.0000
  H   H818      1.0  0.72517  0.49707  0.23893  1.0000
  S   S206      1.0  0.50870  0.11515  0.21175  1.0000
  C   C494      1.0  0.69185  0.51080  0.26366  1.0000
  H   H819      1.0  0.76392  0.37589  0.22753  1.0000
  H   H820      1.0  0.69693  0.28009  0.31616  1.0000
  S   S207      1.0  0.65378  0.35058  0.25597  1.0000
  H   H821      1.0  0.72808  0.26438  0.20112  1.0000
  C   C495      1.0  0.71144  0.30108  0.29677  1.0000
  C   C496      1.0  0.67844  0.52045  0.18862  1.0000
  N   N50       1.0  0.49598  0.21163  0.24249  1.0000
  C   C497      1.0  0.67881  0.46061  0.26348  1.0000
  H   H822      1.0  0.72439  0.31555  0.39563  1.0000
  S   S208      1.0  0.52270  0.50178  0.35487  1.0000
  C   C498      1.0  0.71591  0.36520  0.23819  1.0000
  H   H823      1.0  0.73629  0.35729  0.37588  1.0000
  S   S209      1.0  0.63046  0.53765  0.40118  1.0000
  C   C499      1.0  0.74951  0.35497  0.24641  1.0000
  H   H824      1.0  0.66125  0.51572  0.17647  1.0000
  H   H825      1.0  0.51709  0.25058  0.23819  1.0000
  C   C500      1.0  0.74542  0.29058  0.30411  1.0000
  H   H826      1.0  0.48851  0.35264  0.38706  1.0000
  C   C501      1.0  0.77616  0.54430  0.18208  1.0000
  H   H827      1.0  0.71976  0.55950  0.31240  1.0000
  H   H828      1.0  0.49573  0.26150  0.17052  1.0000
  C   C502      1.0  0.46942  0.18891  0.28627  1.0000
  H   H829      1.0  0.61613  0.51285  0.32839  1.0000
  Fe  Fe102     1.0  0.63824  0.40567  0.19081  1.0000
  H   H830      1.0  0.68570  0.49791  0.30907  1.0000
  C   C503      1.0  0.76899  0.17352  0.19446  1.0000
  S   S210      1.0  0.57362  0.44861  0.20973  1.0000
  S   S211      1.0  0.55271  0.11568  0.35104  1.0000
  C   C504      1.0  0.69682  0.33826  0.26344  1.0000
  H   H831      1.0  0.50666  0.38791  0.37462  1.0000
  C   C505      1.0  0.50032  0.23026  0.26972  1.0000
  C   C506      1.0  0.77183  0.56824  0.32476  1.0000
  H   H832      1.0  0.55794  0.20056  0.18060  1.0000
  C   C507      1.0  0.62436  0.52319  0.28235  1.0000
  H   H833      1.0  0.56683  0.36540  0.28882  1.0000
  H   H834      1.0  0.47017  0.24799  0.29757  1.0000
  H   H835      1.0  0.54751  0.33099  0.30163  1.0000
  H   H836      1.0  0.47511  0.22935  0.18036  1.0000
  H   H837      1.0  0.58395  0.26506  0.38599  1.0000
  C   C508      1.0  0.57644  0.33464  0.38441  1.0000
  C   C509      1.0  0.71569  0.07484  0.33778  1.0000
  H   H838      1.0  0.45791  0.07494  0.18520  1.0000
  H   H839      1.0  0.65269  0.13131  0.39205  1.0000
  C   C510      1.0  0.55228  0.28717  0.40119  1.0000
  H   H840      1.0  0.53384  0.28143  0.39263  1.0000
  Fe  Fe103     1.0  0.60022  0.49590  0.16001  1.0000
  N   N51       1.0  0.67341  0.07648  0.37384  1.0000
  H   H841      1.0  0.66456  0.07732  0.30870  1.0000
  H   H842      1.0  0.47311  0.09138  0.38363  1.0000
  Fe  Fe104     1.0  0.52896  0.16053  0.39644  1.0000
  C   C511      1.0  0.54975  0.07185  0.40352  1.0000
  Fe  Fe105     1.0  0.51582  0.53255  0.40660  1.0000
  C   C512      1.0  0.74588  0.53008  0.54130  1.0000
  N   N52       1.0  0.73811  0.31630  0.45416  1.0000
  S   S212      1.0  0.52731  0.13923  0.48206  1.0000
  S   S213      1.0  0.59593  0.17812  0.47513  1.0000
  S   S214      1.0  0.55088  0.49462  0.45911  1.0000
  H   H843      1.0  0.67530  0.15477  0.63724  1.0000
  H   H844      1.0  0.58489  0.50882  0.51792  1.0000
  H   H845      1.0  0.50152  0.38988  0.52962  1.0000
  C   C513      1.0  0.51599  0.07383  0.45570  1.0000
  H   H846      1.0  0.69003  0.09135  0.54297  1.0000
  C   C514      1.0  0.65304  0.10052  0.41432  1.0000
  S   S215      1.0  0.46677  0.48845  0.61569  1.0000
  H   H847      1.0  0.58411  0.55768  0.63315  1.0000
  H   H848      1.0  0.70993  0.11439  0.55398  1.0000
  C   C515      1.0  0.59971  0.14829  0.62315  1.0000
  C   C516      1.0  0.64577  0.49801  0.45277  1.0000
  H   H849      1.0  0.68770  0.35519  0.43128  1.0000
  H   H850      1.0  0.68531  0.08172  0.65584  1.0000
  H   H851      1.0  0.56514  0.33052  0.43028  1.0000
  H   H852      1.0  0.48524  0.54925  0.64321  1.0000
  H   H853      1.0  0.68471  0.30409  0.52187  1.0000
  H   H854      1.0  0.54037  0.28106  0.44771  1.0000
  C   C517      1.0  0.69855  0.44171  0.48086  1.0000
  S   S216      1.0  0.46473  0.20392  0.42180  1.0000
  H   H855      1.0  0.69868  0.36408  0.49649  1.0000
  H   H856      1.0  0.75835  0.45904  0.65476  1.0000
  H   H857      1.0  0.74204  0.52955  0.43336  1.0000
  H   H858      1.0  0.53650  0.51800  0.60810  1.0000
  Fe  Fe106     1.0  0.56612  0.54693  0.43138  1.0000
  C   C518      1.0  0.73152  0.34573  0.47686  1.0000
  S   S217      1.0  0.68399  0.39272  0.58656  1.0000
  C   C519      1.0  0.72643  0.53723  0.40809  1.0000
  C   C520      1.0  0.51596  0.53324  0.64319  1.0000
  H   H859      1.0  0.49087  0.10199  0.46218  1.0000
  H   H860      1.0  0.66872  0.08750  0.44197  1.0000
  H   H861      1.0  0.46198  0.19217  0.59383  1.0000
  H   H862      1.0  0.50742  0.10107  0.62394  1.0000
  S   S218      1.0  0.48473  0.23295  0.48543  1.0000
  C   C521      1.0  0.54264  0.13665  0.64473  1.0000
  H   H863      1.0  0.71767  0.18466  0.54058  1.0000
  C   C522      1.0  0.77769  0.40206  0.61396  1.0000
  H   H864      1.0  0.72334  0.26523  0.48467  1.0000
  C   C523      1.0  0.62826  0.45874  0.54949  1.0000
  C   C524      1.0  0.68542  0.53653  0.54391  1.0000
  C   C525      1.0  0.70641  0.14867  0.62586  1.0000
  Fe  Fe107     1.0  0.54782  0.18745  0.45590  1.0000
  H   H865      1.0  0.66884  0.52309  0.54563  1.0000
  H   H866      1.0  0.73659  0.48158  0.54667  1.0000
  C   C526      1.0  0.46010  0.45087  0.61304  1.0000
  H   H867      1.0  0.73038  0.27239  0.53280  1.0000
  H   H868      1.0  0.61800  0.14854  0.63709  1.0000
  C   C527      1.0  0.77050  0.15753  0.55691  1.0000
  C   C528      1.0  0.73035  0.16536  0.57126  1.0000
  S   S219      1.0  0.45763  0.55833  0.47645  1.0000
  Fe  Fe108     1.0  0.46447  0.18529  0.50618  1.0000
  C   C529      1.0  0.48048  0.40395  0.56465  1.0000
  H   H869      1.0  0.49573  0.35231  0.44141  1.0000
  C   C530      1.0  0.71708  0.08708  0.54510  1.0000
  H   H870      1.0  0.63390  0.17066  0.53538  1.0000
  C   C531      1.0  0.61657  0.49045  0.50776  1.0000
  H   H871      1.0  0.53218  0.15146  0.57289  1.0000
  H   H872      1.0  0.74319  0.33123  0.50969  1.0000
  C   C532      1.0  0.72391  0.51297  0.54434  1.0000
  C   C533      1.0  0.60867  0.16086  0.56564  1.0000
  C   C534      1.0  0.66928  0.43425  0.53599  1.0000
  C   C535      1.0  0.68674  0.47333  0.43912  1.0000
  C   C536      1.0  0.58428  0.16200  0.54748  1.0000
  H   H873      1.0  0.73043  0.42298  0.47033  1.0000
  H   H874      1.0  0.62088  0.10302  0.44193  1.0000
  H   H875      1.0  0.74556  0.41122  0.62308  1.0000
  H   H876      1.0  0.60548  0.45249  0.59158  1.0000
  Fe  Fe109     1.0  0.49399  0.52297  0.52757  1.0000
  H   H877      1.0  0.51326  0.44021  0.53530  1.0000
  S   S220      1.0  0.73570  0.56153  0.65030  1.0000
  C   C537      1.0  0.55124  0.14997  0.58700  1.0000
  H   H878      1.0  0.75888  0.07328  0.59680  1.0000
  C   C538      1.0  0.48706  0.43261  0.56777  1.0000
  C   C539      1.0  0.71812  0.28833  0.50048  1.0000
  C   C540      1.0  0.72072  0.33709  0.41247  1.0000
  H   H879      1.0  0.48283  0.07742  0.62367  1.0000
  C   C541      1.0  0.78222  0.29407  0.42659  1.0000
  H   H880      1.0  0.69428  0.54006  0.43737  1.0000
  C   C542      1.0  0.76276  0.11659  0.65110  1.0000
  H   H881      1.0  0.59469  0.52644  0.59590  1.0000
  H   H882      1.0  0.74774  0.36620  0.44322  1.0000
  N   N53       1.0  0.53107  0.56057  0.63735  1.0000
  C   C543      1.0  0.50258  0.07295  0.64074  1.0000
  H   H883      1.0  0.74293  0.08509  0.50266  1.0000
  C   C544      1.0  0.57277  0.53844  0.63423  1.0000
  H   H884      1.0  0.78129  0.26332  0.65608  1.0000
  H   H885      1.0  0.49827  0.29324  0.89334  1.0000
  C   C545      1.0  0.77254  0.25770  0.70038  1.0000
  H   H886      1.0  0.57402  0.51324  0.67145  1.0000
  H   H887      1.0  0.74141  0.36505  0.71981  1.0000
  C   C546      1.0  0.77271  0.36129  0.70697  1.0000
  H   H888      1.0  0.45792  0.38410  0.74802  1.0000
  H   H889      1.0  0.72706  0.17803  0.77906  1.0000
  H   H890      1.0  0.72105  0.43702  0.70090  1.0000
  H   H891      1.0  0.51254  0.13751  0.86282  1.0000
  C   C547      1.0  0.69736  0.12828  0.90040  1.0000
  H   H892      1.0  0.62236  0.07836  0.82926  1.0000
  C   C548      1.0  0.71737  0.17621  0.75280  1.0000
  Fe  Fe110     1.0  0.59562  0.45142  0.75656  1.0000
  H   H893      1.0  0.58598  0.29882  0.68950  1.0000
  H   H894      1.0  0.66220  0.18202  0.72993  1.0000
  S   S221      1.0  0.47954  0.24830  0.68915  1.0000
  C   C549      1.0  0.64169  0.50818  0.74045  1.0000
  H   H895      1.0  0.60592  0.11400  0.77487  1.0000
  H   H896      1.0  0.74057  0.23788  0.85947  1.0000
  C   C550      1.0  0.64744  0.21643  0.80133  1.0000
  S   S222      1.0  0.52624  0.35696  0.84424  1.0000
  C   C551      1.0  0.67336  0.41468  0.89227  1.0000
  H   H897      1.0  0.53701  0.16922  0.80149  1.0000
  H   H898      1.0  0.73283  0.31864  0.70420  1.0000
  S   S223      1.0  0.57626  0.43478  0.71677  1.0000
  C   C552      1.0  0.60214  0.51414  0.78284  1.0000
  H   H899      1.0  0.49224  0.54146  0.87583  1.0000
  H   H900      1.0  0.57780  0.08320  0.82987  1.0000
  C   C553      1.0  0.53651  0.32199  0.81546  1.0000
  H   H901      1.0  0.61285  0.52515  0.87966  1.0000
  S   S224      1.0  0.55175  0.24054  0.73612  1.0000
  H   H902      1.0  0.65535  0.21889  0.82914  1.0000
  H   H903      1.0  0.57581  0.34500  0.73202  1.0000
  H   H904      1.0  0.64983  0.50363  0.70142  1.0000
  C   C554      1.0  0.69285  0.24752  0.71782  1.0000
  H   H905      1.0  0.48078  0.39203  0.77506  1.0000
  C   C555      1.0  0.62095  0.52039  0.84081  1.0000
  H   H906      1.0  0.77528  0.09851  0.68198  1.0000
  H   H907      1.0  0.57329  0.17769  0.85952  1.0000
  H   H908      1.0  0.50309  0.55481  0.72653  1.0000
  H   H909      1.0  0.70701  0.10862  0.87654  1.0000
  C   C556      1.0  0.74509  0.28911  0.72777  1.0000
  H   H910      1.0  0.71030  0.14884  0.77340  1.0000
  H   H911      1.0  0.69857  0.25287  0.74541  1.0000
  C   C557      1.0  0.72646  0.13325  0.90207  1.0000
  C   C558      1.0  0.47192  0.56930  0.85768  1.0000
  S   S225      1.0  0.69905  0.32087  0.82071  1.0000
  S   S226      1.0  0.69781  0.51242  0.80875  1.0000
  H   H912      1.0  0.56127  0.52452  0.86612  1.0000
  C   C559      1.0  0.56192  0.32304  0.75829  1.0000
  H   H913      1.0  0.51681  0.12784  0.67546  1.0000
  Fe  Fe111     1.0  0.57539  0.38132  0.78929  1.0000
  Fe  Fe112     1.0  0.65543  0.36642  0.78156  1.0000
  C   C560      1.0  0.73362  0.28211  0.78525  1.0000
  Fe  Fe113     1.0  0.74902  0.52393  0.72562  1.0000
  H   H914      1.0  0.63856  0.19022  0.82330  1.0000
  H   H915      1.0  0.70117  0.50382  0.71546  1.0000
  H   H916      1.0  0.66803  0.27464  0.70773  1.0000
  H   H917      1.0  0.51138  0.17916  0.86967  1.0000
  N   N54       1.0  0.68204  0.21212  0.74560  1.0000
  H   H918      1.0  0.59817  0.17088  0.78969  1.0000
  C   C561      1.0  0.67049  0.20845  0.71035  1.0000
  Fe  Fe114     1.0  0.64296  0.39915  0.67520  1.0000
  N   N55       1.0  0.56905  0.12997  0.85429  1.0000
  H   H919      1.0  0.74419  0.17213  0.71156  1.0000
  C   C562      1.0  0.59491  0.09985  0.82088  1.0000
  H   H920      1.0  0.64367  0.23469  0.70445  1.0000
  C   C563      1.0  0.56755  0.29706  0.73419  1.0000
  H   H921      1.0  0.68983  0.43462  0.85754  1.0000
  C   C564      1.0  0.66064  0.51408  0.79848  1.0000
  S   S227      1.0  0.66231  0.41964  0.70995  1.0000
  C   C565      1.0  0.59163  0.52060  0.83287  1.0000
  C   C566      1.0  0.51762  0.29434  0.84891  1.0000
  H   H922      1.0  0.62092  0.13657  0.83801  1.0000
  S   S228      1.0  0.63997  0.34402  0.74443  1.0000
  C   C567      1.0  0.52251  0.26899  0.82453  1.0000
  H   H923      1.0  0.62022  0.24323  0.79759  1.0000
  Fe  Fe115     1.0  0.48875  0.25735  0.74885  1.0000
  C   C568      1.0  0.54744  0.27043  0.76720  1.0000
  Fe  Fe116     1.0  0.52070  0.08187  0.79932  1.0000
  N   N56       1.0  0.78182  0.39639  0.66370  1.0000
  C   C569      1.0  0.72306  0.12371  0.66536  1.0000
  H   H924      1.0  0.50665  0.24862  0.84997  1.0000
  H   H925      1.0  0.75557  0.42910  0.72399  1.0000
  C   C570      1.0  0.74945  0.24363  0.81506  1.0000
  H   H926      1.0  0.68961  0.38573  0.88068  1.0000
  H   H927      1.0  0.60134  0.31536  0.87192  1.0000
  S   S229      1.0  0.55698  0.12057  0.73436  1.0000
  S   S230      1.0  0.59054  0.40008  0.83158  1.0000
  H   H928      1.0  0.64238  0.42800  0.89403  1.0000
  H   H929      1.0  0.75858  0.11762  0.87932  1.0000
  C   C571      1.0  0.53086  0.15509  0.84677  1.0000
  C   C572      1.0  0.59130  0.15498  0.83469  1.0000
  C   C573      1.0  0.67076  0.50845  0.74821  1.0000
  H   H930      1.0  0.51361  0.50973  0.68307  1.0000
  S   S231      1.0  0.47277  0.08726  0.88758  1.0000
  S   S232      1.0  0.69536  0.09981  0.73181  1.0000
  S   S233      1.0  0.56679  0.51089  0.77459  1.0000
  C   C574      1.0  0.56681  0.13601  0.66282  1.0000
  H   H931      1.0  0.77486  0.35628  0.74553  1.0000
  H   H932      1.0  0.72088  0.24401  0.67769  1.0000
  H   H933      1.0  0.69590  0.20550  0.66785  1.0000
  C   C575      1.0  0.75301  0.43189  0.68694  1.0000
  C   C576      1.0  0.77561  0.21207  0.78825  1.0000
  S   S234      1.0  0.78251  0.55809  0.70896  1.0000
  H   H934      1.0  0.45699  0.20176  0.67365  1.0000
  H   H935      1.0  0.57707  0.28074  0.90495  1.0000
  H   H936      1.0  0.62463  0.26552  0.90616  1.0000
  C   C577      1.0  0.45281  0.40371  0.76944  1.0000
  H   H937      1.0  0.51946  0.02428  0.12998  1.0000
  H   H938      1.0  0.77534  0.04348  0.05832  1.0000
  H   H939      1.0  0.63360  0.79591  0.08865  1.0000
  H   H940      1.0  0.60838  0.89746  0.99359  1.0000
  C   C578      1.0  0.75960  0.00587  0.14243  1.0000
  H   H941      1.0  0.64950  0.87160  0.93961  1.0000
  H   H942      1.0  0.64221  0.72856  0.09940  1.0000
  C   C579      1.0  0.54679  0.66007  0.91824  1.0000
  H   H943      1.0  0.50746  0.05216  0.06966  1.0000
  H   H944      1.0  0.52531  0.90193  0.98270  1.0000
  H   H945      1.0  0.47644  0.77888  0.99926  1.0000
  H   H946      1.0  0.48136  0.74630  0.15520  1.0000
  C   C580      1.0  0.77720  0.76338  0.01825  1.0000
  Fe  Fe117     1.0  0.51060  0.02448  0.91587  1.0000
  Fe  Fe118     1.0  0.63463  0.71408  0.94289  1.0000
  N   N57       1.0  0.66210  0.05635  0.09178  1.0000
  C   C581      1.0  0.58353  0.96130  0.02264  1.0000
  H   H947      1.0  0.60048  0.82482  0.96623  1.0000
  H   H948      1.0  0.68350  0.02938  0.15606  1.0000
  H   H949      1.0  0.74428  0.82760  0.91551  1.0000
  C   C582      1.0  0.65203  0.95883  0.95455  1.0000
  Fe  Fe119     1.0  0.45970  0.65841  0.99387  1.0000
  H   H950      1.0  0.51251  0.00126  0.10002  1.0000
  C   C583      1.0  0.59553  0.00249  0.92806  1.0000
  C   C584      1.0  0.70029  0.06097  0.04394  1.0000
  H   H951      1.0  0.71123  0.72906  0.04256  1.0000
  S   S235      1.0  0.58438  0.69326  0.14644  1.0000
  C   C585      1.0  0.46166  0.76159  0.13257  1.0000
  H   H952      1.0  0.54621  0.86653  0.03351  1.0000
  H   H953      1.0  0.75393  0.71775  0.08284  1.0000
  Fe  Fe120     1.0  0.68346  0.73429  0.96516  1.0000
  S   S236      1.0  0.56106  0.86320  0.12922  1.0000
  C   C586      1.0  0.63702  0.98772  0.91448  1.0000
  H   H954      1.0  0.49411  0.70198  0.08416  1.0000
  S   S237      1.0  0.70456  0.93497  0.93582  1.0000
  H   H955      1.0  0.62044  0.84622  0.00598  1.0000
  H   H956      1.0  0.69788  0.57290  0.02054  1.0000
  H   H957      1.0  0.53868  0.91754  0.01469  1.0000
  H   H958      1.0  0.53205  0.78384  0.00055  1.0000
  H   H959      1.0  0.72740  0.03525  0.04987  1.0000
  H   H960      1.0  0.56370  0.94912  0.06372  1.0000
  H   H961      1.0  0.70256  0.06295  0.00349  1.0000
  H   H962      1.0  0.69395  0.81613  0.06024  1.0000
  C   C587      1.0  0.72603  0.77822  0.97496  1.0000
  C   C588      1.0  0.74611  0.57524  0.11628  1.0000
  C   C589      1.0  0.75361  0.74047  0.04466  1.0000
  C   C590      1.0  0.50122  0.02936  0.11026  1.0000
  H   H963      1.0  0.67114  0.77668  0.15581  1.0000
  C   C591      1.0  0.60710  0.78874  0.10852  1.0000
  C   C592      1.0  0.51251  0.71998  0.06624  1.0000
  C   C593      1.0  0.57801  0.74016  0.14270  1.0000
  C   C594      1.0  0.65927  0.05594  0.14408  1.0000
  H   H964      1.0  0.66340  0.01791  0.06010  1.0000
  H   H965      1.0  0.68812  0.99262  0.10662  1.0000
  N   N58       1.0  0.45743  0.04119  0.14807  1.0000
  H   H966      1.0  0.63367  0.01379  0.13470  1.0000
  H   H967      1.0  0.73109  0.83670  0.09938  1.0000
  S   S238      1.0  0.64362  0.65468  0.00380  1.0000
  C   C595      1.0  0.67685  0.84337  0.07572  1.0000
  S   S239      1.0  0.76391  0.59891  0.92869  1.0000
  H   H968      1.0  0.62432  0.65744  0.92522  1.0000
  C   C596      1.0  0.72879  0.74728  0.02232  1.0000
  S   S240      1.0  0.69576  0.78696  0.94565  1.0000
  C   C597      1.0  0.58200  0.64425  0.92587  1.0000
  H   H969      1.0  0.59632  0.61239  0.93958  1.0000
  Fe  Fe121     1.0  0.63242  0.68513  0.06035  1.0000
  C   C598      1.0  0.76412  0.04102  0.10248  1.0000
  C   C599      1.0  0.62493  0.94692  0.00927  1.0000
  C   C600      1.0  0.66176  0.01853  0.09853  1.0000
  S   S241      1.0  0.69784  0.67564  0.02562  1.0000
  S   S242      1.0  0.51847  0.00200  0.99552  1.0000
  C   C601      1.0  0.56891  0.98850  0.98156  1.0000
  H   H970      1.0  0.58160  0.94675  0.91862  1.0000
  H   H971      1.0  0.64658  0.85698  0.07519  1.0000
  H   H972      1.0  0.53239  0.71878  0.02124  1.0000
  H   H973      1.0  0.72523  0.60046  0.09889  1.0000
  H   H974      1.0  0.63604  0.92565  0.04094  1.0000
  H   H975      1.0  0.53178  0.77201  0.06742  1.0000
  S   S243      1.0  0.52350  0.62943  0.93481  1.0000
  C   C602      1.0  0.60146  0.85193  0.93140  1.0000
  C   C603      1.0  0.51198  0.78444  0.04577  1.0000
  S   S244      1.0  0.76854  0.96661  0.12225  1.0000
  C   C604      1.0  0.74717  0.80306  0.95111  1.0000
  C   C605      1.0  0.56805  0.81704  0.12921  1.0000
  H   H976      1.0  0.66239  0.89301  0.12676  1.0000
  N   N59       1.0  0.67283  0.83398  0.13290  1.0000
  C   C606      1.0  0.71355  0.81718  0.13149  1.0000
  H   H977      1.0  0.49313  0.81602  0.04841  1.0000
  C   C607      1.0  0.61830  0.87475  0.97340  1.0000
  C   C608      1.0  0.53422  0.80699  0.15548  1.0000
  C   C609      1.0  0.61200  0.75045  0.11495  1.0000
  S   S245      1.0  0.61824  0.74473  0.00204  1.0000
  C   C610      1.0  0.54806  0.89314  0.99749  1.0000
  N   N60       1.0  0.48629  0.76137  0.07224  1.0000
  C   C611      1.0  0.59750  0.66981  0.91849  1.0000
  Fe  Fe122     1.0  0.70832  0.65001  0.96379  1.0000
  N   N61       1.0  0.58966  0.88525  0.95165  1.0000
  H   H978      1.0  0.69328  0.86407  0.04492  1.0000
  C   C612      1.0  0.45893  0.77959  0.04457  1.0000
  H   H979      1.0  0.53274  0.70476  0.08821  1.0000
  C   C613      1.0  0.77327  0.79529  0.97212  1.0000
  H   H980      1.0  0.73184  0.78749  0.12174  1.0000
  H   H981      1.0  0.61715  0.88472  0.15382  1.0000
  C   C614      1.0  0.64776  0.87067  0.15356  1.0000
  S   S246      1.0  0.48092  0.99728  0.90848  1.0000
  H   H982      1.0  0.58088  0.85881  0.91403  1.0000
  H   H983      1.0  0.56249  0.98302  0.18680  1.0000
  S   S247      1.0  0.67916  0.86188  0.32973  1.0000
  C   C615      1.0  0.57595  0.00461  0.27070  1.0000
  C   C616      1.0  0.74637  0.00268  0.19905  1.0000
  H   H984      1.0  0.59156  0.72850  0.26987  1.0000
  C   C617      1.0  0.51076  0.57866  0.17673  1.0000
  H   H985      1.0  0.61622  0.70241  0.21697  1.0000
  C   C618      1.0  0.71065  0.60690  0.38963  1.0000
  Fe  Fe123     1.0  0.52783  0.86139  0.22165  1.0000
  H   H986      1.0  0.59514  0.85258  0.40308  1.0000
  H   H987      1.0  0.74396  0.97533  0.22983  1.0000
  H   H988      1.0  0.65018  0.79619  0.21391  1.0000
  Fe  Fe124     1.0  0.70971  0.89465  0.32352  1.0000
  H   H989      1.0  0.61889  0.63588  0.24216  1.0000
  H   H990      1.0  0.62217  0.81631  0.17351  1.0000
  C   C619      1.0  0.55435  0.04575  0.26067  1.0000
  C   C620      1.0  0.63648  0.75726  0.32509  1.0000
  C   C621      1.0  0.70707  0.77158  0.28020  1.0000
  H   H991      1.0  0.45669  0.57811  0.36584  1.0000
  H   H992      1.0  0.71433  0.63452  0.35709  1.0000
  S   S248      1.0  0.51851  0.80432  0.27707  1.0000
  N   N62       1.0  0.59108  0.66966  0.30186  1.0000
  H   H993      1.0  0.64298  0.86455  0.19743  1.0000
  H   H994      1.0  0.58954  0.92189  0.37576  1.0000
  H   H995      1.0  0.61703  0.65515  0.35640  1.0000
  S   S249      1.0  0.48085  0.83657  0.38495  1.0000
  Fe  Fe125     1.0  0.45744  0.84237  0.32909  1.0000
  Fe  Fe126     1.0  0.77987  0.62907  0.16074  1.0000
  S   S250      1.0  0.48521  0.93685  0.35482  1.0000
  C   C622      1.0  0.66883  0.80256  0.29188  1.0000
  H   H996      1.0  0.64072  0.68933  0.25901  1.0000
  C   C623      1.0  0.58264  0.03566  0.39564  1.0000
  H   H997      1.0  0.72628  0.03160  0.26001  1.0000
  H   H998      1.0  0.51265  0.76081  0.18510  1.0000
  H   H999      1.0  0.50427  0.82885  0.17101  1.0000
  Fe  Fe127     1.0  0.65822  0.91445  0.26693  1.0000
  C   C624      1.0  0.73274  0.91702  0.39393  1.0000
  C   C625      1.0  0.61623  0.63186  0.28396  1.0000
  H   H1000     1.0  0.67702  0.69711  0.31905  1.0000
  C   C626      1.0  0.54068  0.04198  0.19483  1.0000
  S   S251      1.0  0.70763  0.89076  0.40289  1.0000
  H   H1001     1.0  0.60318  0.60868  0.31478  1.0000
  C   C627      1.0  0.70985  0.73329  0.29115  1.0000
  C   C628      1.0  0.63357  0.79520  0.31593  1.0000
  H   H1002     1.0  0.73327  0.77517  0.35888  1.0000
  S   S252      1.0  0.60284  0.93066  0.25934  1.0000
  H   H1003     1.0  0.71146  0.81312  0.17274  1.0000
  S   S253      1.0  0.55601  0.85903  0.26774  1.0000
  H   H1004     1.0  0.73246  0.06337  0.36340  1.0000
  H   H1005     1.0  0.72471  0.69537  0.39148  1.0000
  C   C629      1.0  0.47418  0.60910  0.17438  1.0000
  H   H1006     1.0  0.53389  0.66437  0.33721  1.0000
  S   S254      1.0  0.72571  0.62100  0.17951  1.0000
  C   C630      1.0  0.75205  0.69569  0.38703  1.0000
  H   H1007     1.0  0.53065  0.71410  0.31721  1.0000
  H   H1008     1.0  0.68947  0.01668  0.37530  1.0000
  H   H1009     1.0  0.55151  0.68972  0.26392  1.0000
  C   C631      1.0  0.58738  0.66299  0.35797  1.0000
  S   S255      1.0  0.59352  0.74891  0.34625  1.0000
  H   H1010     1.0  0.64762  0.62007  0.27984  1.0000
  S   S256      1.0  0.77369  0.67512  0.18808  1.0000
  S   S257      1.0  0.75142  0.78070  0.25071  1.0000
  H   H1011     1.0  0.47428  0.67961  0.20351  1.0000
  H   H1012     1.0  0.55144  0.06315  0.28209  1.0000
  H   H1013     1.0  0.66623  0.83263  0.28058  1.0000
  S   S258      1.0  0.71311  0.89348  0.19167  1.0000
  C   C632      1.0  0.56064  0.00065  0.20675  1.0000
  C   C633      1.0  0.57816  0.98204  0.24476  1.0000
  Fe  Fe128     1.0  0.54313  0.80414  0.32636  1.0000
  C   C634      1.0  0.75811  0.93252  0.34013  1.0000
  H   H1014     1.0  0.57602  0.63865  0.38926  1.0000
  Fe  Fe129     1.0  0.49279  0.89174  0.32373  1.0000
  C   C635      1.0  0.65318  0.80452  0.17068  1.0000
  H   H1015     1.0  0.62969  0.05496  0.18023  1.0000
  H   H1016     1.0  0.58970  0.99026  0.29987  1.0000
  C   C636      1.0  0.46363  0.01696  0.31742  1.0000
  H   H1017     1.0  0.60898  0.03406  0.35543  1.0000
  C   C637      1.0  0.73898  0.07063  0.17672  1.0000
  H   H1018     1.0  0.73930  0.70924  0.28197  1.0000
  Fe  Fe130     1.0  0.73504  0.84160  0.25424  1.0000
  C   C638      1.0  0.61071  0.69879  0.26016  1.0000
  C   C639      1.0  0.55002  0.68509  0.30508  1.0000
  H   H1019     1.0  0.53874  0.62606  0.20781  1.0000
  H   H1020     1.0  0.46177  0.98076  0.19152  1.0000
  H   H1021     1.0  0.46748  0.00427  0.22275  1.0000
  H   H1022     1.0  0.49259  0.01148  0.31312  1.0000
  H   H1023     1.0  0.54103  0.94065  0.37604  1.0000
  S   S259      1.0  0.46542  0.90008  0.27145  1.0000
  H   H1024     1.0  0.52699  0.05660  0.16579  1.0000
  C   C640      1.0  0.67466  0.72624  0.31300  1.0000
  H   H1025     1.0  0.56573  0.69019  0.37471  1.0000
  C   C641      1.0  0.46121  0.64583  0.18309  1.0000
  S   S260      1.0  0.68203  0.95036  0.26879  1.0000
  C   C642      1.0  0.52051  0.62116  0.19907  1.0000
  C   C643      1.0  0.53666  0.06425  0.22285  1.0000
  H   H1026     1.0  0.45594  0.60397  0.16632  1.0000
  C   C644      1.0  0.73662  0.03470  0.21609  1.0000
  C   C645      1.0  0.70666  0.58387  0.33228  1.0000
  H   H1027     1.0  0.70801  0.61151  0.29816  1.0000
  H   H1028     1.0  0.60423  0.81916  0.32620  1.0000
  H   H1029     1.0  0.68853  0.76318  0.40329  1.0000
  Fe  Fe131     1.0  0.73937  0.92483  0.19782  1.0000
  N   N63       1.0  0.72883  0.57409  0.36372  1.0000
  C   C646      1.0  0.48395  0.65146  0.19677  1.0000
  C   C647      1.0  0.53426  0.58500  0.18809  1.0000
  H   H1030     1.0  0.76909  0.70754  0.34146  1.0000
  H   H1031     1.0  0.76241  0.92821  0.30350  1.0000
  H   H1032     1.0  0.73315  0.05488  0.30906  1.0000
  H   H1033     1.0  0.77454  0.59552  0.29071  1.0000
  S   S261      1.0  0.53551  0.58295  0.37309  1.0000
  C   C648      1.0  0.74925  0.57679  0.15963  1.0000
  C   C649      1.0  0.77208  0.95921  0.38165  1.0000
  S   S262      1.0  0.76819  0.87023  0.25263  1.0000
  C   C650      1.0  0.77782  0.95368  0.33394  1.0000
  C   C651      1.0  0.71549  0.76157  0.40259  1.0000
  H   H1034     1.0  0.77161  0.66438  0.39931  1.0000
  C   C652      1.0  0.67359  0.03581  0.40476  1.0000
  H   H1035     1.0  0.67413  0.58812  0.36073  1.0000
  C   C653      1.0  0.53906  0.76844  0.16342  1.0000
  H   H1036     1.0  0.54716  0.87189  0.40109  1.0000
  C   C654      1.0  0.55632  0.93048  0.40318  1.0000
  H   H1037     1.0  0.46752  0.06802  0.35247  1.0000
  Fe  Fe132     1.0  0.77368  0.59198  0.62936  1.0000
  C   C655      1.0  0.54897  0.00410  0.49345  1.0000
  H   H1038     1.0  0.68831  0.70546  0.48816  1.0000
  H   H1039     1.0  0.60888  0.97438  0.43558  1.0000
  Fe  Fe133     1.0  0.72286  0.78982  0.64533  1.0000
  C   C656      1.0  0.62938  0.75963  0.64790  1.0000
  H   H1040     1.0  0.56009  0.86040  0.52343  1.0000
  C   C657      1.0  0.53160  0.59244  0.58537  1.0000
  C   C658      1.0  0.56786  0.88454  0.48561  1.0000
  C   C659      1.0  0.63166  0.78331  0.55459  1.0000
  H   H1041     1.0  0.67817  0.62616  0.53350  1.0000
  H   H1042     1.0  0.54375  0.05242  0.54501  1.0000
  S   S263      1.0  0.62226  0.60637  0.53459  1.0000
  Fe  Fe134     1.0  0.51314  0.74020  0.54866  1.0000
  N   N64       1.0  0.54716  0.89676  0.45075  1.0000
  H   H1043     1.0  0.68963  0.02118  0.43239  1.0000
  N   N65       1.0  0.72717  0.05126  0.58875  1.0000
  S   S264      1.0  0.61949  0.78390  0.50655  1.0000
  H   H1044     1.0  0.74104  0.73717  0.54244  1.0000
  H   H1045     1.0  0.76130  0.01222  0.53345  1.0000
  H   H1046     1.0  0.70897  0.01756  0.57627  1.0000
  Fe  Fe135     1.0  0.58387  0.74596  0.54212  1.0000
  H   H1047     1.0  0.70426  0.78062  0.42955  1.0000
  S   S265      1.0  0.48168  0.90647  0.62951  1.0000
  C   C660      1.0  0.69062  0.59456  0.53726  1.0000
  C   C661      1.0  0.61760  0.76215  0.61060  1.0000
  Fe  Fe136     1.0  0.75593  0.85072  0.61562  1.0000
  S   S266      1.0  0.59728  0.68664  0.60254  1.0000
  S   S267      1.0  0.52077  0.68140  0.61114  1.0000
  C   C662      1.0  0.45813  0.74317  0.49833  1.0000
  S   S268      1.0  0.46095  0.77150  0.52456  1.0000
  H   H1048     1.0  0.48316  0.02504  0.45327  1.0000
  H   H1049     1.0  0.68876  0.81471  0.55932  1.0000
  C   C663      1.0  0.66899  0.79996  0.57378  1.0000
  C   C664      1.0  0.76348  0.04655  0.58957  1.0000
  H   H1050     1.0  0.55466  0.83737  0.46333  1.0000
  C   C665      1.0  0.48236  0.68190  0.47483  1.0000
  C   C666      1.0  0.73586  0.01583  0.57583  1.0000
  S   S269      1.0  0.57963  0.72367  0.49031  1.0000
  H   H1051     1.0  0.74495  0.98808  0.60694  1.0000
  S   S270      1.0  0.75441  0.82657  0.56326  1.0000
  H   H1052     1.0  0.70830  0.90973  0.48315  1.0000
  H   H1053     1.0  0.59765  0.74769  0.62518  1.0000
  S   S271      1.0  0.55124  0.96343  0.55155  1.0000
  C   C667      1.0  0.65597  0.77753  0.62932  1.0000
  S   S272      1.0  0.51656  0.76760  0.59457  1.0000
  H   H1054     1.0  0.57257  0.06218  0.63241  1.0000
  C   C668      1.0  0.50277  0.90897  0.48551  1.0000
  H   H1055     1.0  0.48967  0.04208  0.54099  1.0000
  C   C669      1.0  0.74712  0.94324  0.43535  1.0000
  Fe  Fe137     1.0  0.52962  0.70706  0.65287  1.0000
  C   C670      1.0  0.51517  0.03980  0.50025  1.0000
  S   S273      1.0  0.51242  0.57226  0.50487  1.0000
  Fe  Fe138     1.0  0.49050  0.95957  0.61699  1.0000
  H   H1056     1.0  0.56132  0.97577  0.63865  1.0000
  H   H1057     1.0  0.49469  0.88396  0.52120  1.0000
  H   H1058     1.0  0.51300  0.00504  0.63494  1.0000
  H   H1059     1.0  0.73491  0.67292  0.49696  1.0000
  H   H1060     1.0  0.60159  0.87324  0.46158  1.0000
  H   H1061     1.0  0.46966  0.00609  0.42570  1.0000
  S   S274      1.0  0.74748  0.65742  0.59849  1.0000
  H   H1062     1.0  0.54639  0.95620  0.41805  1.0000
  H   H1063     1.0  0.59773  0.01033  0.63340  1.0000
  H   H1064     1.0  0.74289  0.94713  0.47239  1.0000
  C   C671      1.0  0.58256  0.00195  0.44095  1.0000
  H   H1065     1.0  0.55365  0.58034  0.54712  1.0000
  H   H1066     1.0  0.48599  0.91911  0.46043  1.0000
  N   N66       1.0  0.54154  0.03875  0.62557  1.0000
  H   H1067     1.0  0.67776  0.89424  0.62295  1.0000
  H   H1068     1.0  0.76960  0.73918  0.43912  1.0000
  H   H1069     1.0  0.77091  0.02084  0.62368  1.0000
  H   H1070     1.0  0.59065  0.01809  0.55086  1.0000
  Fe  Fe139     1.0  0.58765  0.66596  0.55535  1.0000
  C   C672      1.0  0.56352  0.04515  0.56367  1.0000
  H   H1071     1.0  0.64215  0.03585  0.43147  1.0000
  S   S275      1.0  0.78081  0.74013  0.64755  1.0000
  H   H1072     1.0  0.74646  0.58448  0.53411  1.0000
  H   H1073     1.0  0.66665  0.82064  0.49374  1.0000
  S   S276      1.0  0.73809  0.91538  0.60495  1.0000
  C   C673      1.0  0.56162  0.86320  0.42864  1.0000
  C   C674      1.0  0.77149  0.71995  0.54012  1.0000
  C   C675      1.0  0.48637  0.70439  0.49394  1.0000
  C   C676      1.0  0.65658  0.80308  0.53656  1.0000
  Fe  Fe140     1.0  0.48076  0.60555  0.44805  1.0000
  C   C677      1.0  0.71708  0.70430  0.48149  1.0000
  H   H1074     1.0  0.54137  0.61427  0.58083  1.0000
  H   H1075     1.0  0.49087  0.93367  0.50380  1.0000
  H   H1076     1.0  0.67759  0.61360  0.41719  1.0000
  H   H1077     1.0  0.55909  0.90967  0.50078  1.0000
  H   H1078     1.0  0.51123  0.69185  0.50522  1.0000
  H   H1079     1.0  0.70859  0.72171  0.50893  1.0000
  N   N67       1.0  0.74053  0.72026  0.42162  1.0000
  H   H1080     1.0  0.50425  0.65220  0.47129  1.0000
  C   C678      1.0  0.72760  0.92206  0.44147  1.0000
  H   H1081     1.0  0.50103  0.60915  0.58491  1.0000
  C   C679      1.0  0.66884  0.57733  0.54005  1.0000
  C   C680      1.0  0.56739  0.03442  0.64736  1.0000
  H   H1082     1.0  0.66422  0.05978  0.64524  1.0000
  C   C681      1.0  0.69237  0.05555  0.64445  1.0000
  C   C682      1.0  0.68566  0.93134  0.64523  1.0000
  C   C683      1.0  0.77752  0.71978  0.41497  1.0000
  C   C684      1.0  0.66348  0.91389  0.64960  1.0000
  H   H1083     1.0  0.72551  0.59940  0.41597  1.0000
  C   C685      1.0  0.53292  0.00226  0.65019  1.0000
  C   C686      1.0  0.45713  0.02401  0.45515  1.0000
  C   C687      1.0  0.78335  0.67915  0.56359  1.0000
  C   C688      1.0  0.72925  0.57094  0.53759  1.0000
  H   H1084     1.0  0.57386  0.07022  0.54447  1.0000
  H   H1085     1.0  0.72036  0.61114  0.86060  1.0000
  H   H1086     1.0  0.73967  0.68729  0.69499  1.0000
  H   H1087     1.0  0.50699  0.61669  0.83105  1.0000
  C   C689      1.0  0.63195  0.61998  0.80020  1.0000
  H   H1088     1.0  0.50437  0.82624  0.69755  1.0000
  H   H1089     1.0  0.55547  0.67079  0.80700  1.0000
  N   N68       1.0  0.74965  0.86559  0.77260  1.0000
  C   C690      1.0  0.50493  0.76802  0.72050  1.0000
  C   C691      1.0  0.60931  0.61966  0.74243  1.0000
  N   N69       1.0  0.55954  0.84027  0.78068  1.0000
  S   S277      1.0  0.74855  0.01801  0.83598  1.0000
  C   C692      1.0  0.72969  0.61384  0.81582  1.0000
  H   H1090     1.0  0.52179  0.87125  0.84666  1.0000
  H   H1091     1.0  0.60894  0.60785  0.83855  1.0000
  H   H1092     1.0  0.45514  0.72031  0.85246  1.0000
  H   H1093     1.0  0.60618  0.90764  0.69197  1.0000
  H   H1094     1.0  0.49858  0.84684  0.84439  1.0000
  H   H1095     1.0  0.74478  0.80882  0.82375  1.0000
  H   H1096     1.0  0.69115  0.71497  0.77800  1.0000
  C   C693      1.0  0.52784  0.84427  0.83819  1.0000
  H   H1097     1.0  0.68381  0.97117  0.67522  1.0000
  C   C694      1.0  0.57759  0.71104  0.90388  1.0000
  S   S278      1.0  0.69924  0.70846  0.90014  1.0000
  H   H1098     1.0  0.50079  0.71341  0.89549  1.0000
  H   H1099     1.0  0.56994  0.87460  0.69532  1.0000
  H   H1100     1.0  0.70778  0.60767  0.81513  1.0000
  C   C695      1.0  0.56620  0.80469  0.77043  1.0000
  H   H1101     1.0  0.67969  0.63112  0.68955  1.0000
  H   H1102     1.0  0.77463  0.63676  0.70109  1.0000
  H   H1103     1.0  0.61295  0.98273  0.74619  1.0000
  C   C696      1.0  0.62308  0.92092  0.68944  1.0000
  H   H1104     1.0  0.76008  0.58983  0.80153  1.0000
  H   H1105     1.0  0.62192  0.91626  0.86965  1.0000
  H   H1106     1.0  0.65736  0.99820  0.87278  1.0000
  C   C697      1.0  0.59789  0.83648  0.77456  1.0000
  N   N70       1.0  0.61855  0.64392  0.75417  1.0000
  C   C698      1.0  0.48632  0.60976  0.87647  1.0000
  C   C699      1.0  0.77760  0.85968  0.79226  1.0000
  H   H1107     1.0  0.69884  0.02897  0.67835  1.0000
  H   H1108     1.0  0.61793  0.74366  0.69129  1.0000
  H   H1109     1.0  0.63703  0.63786  0.81240  1.0000
  C   C700      1.0  0.65121  0.65683  0.70303  1.0000
  C   C701      1.0  0.74259  0.65649  0.72152  1.0000
  C   C702      1.0  0.50401  0.57822  0.68668  1.0000
  H   H1110     1.0  0.69893  0.91207  0.75427  1.0000
  H   H1111     1.0  0.76198  0.68961  0.75814  1.0000
  C   C703      1.0  0.76150  0.65933  0.78183  1.0000
  C   C704      1.0  0.48995  0.73865  0.76338  1.0000
  H   H1112     1.0  0.59344  0.86179  0.78491  1.0000
  C   C705      1.0  0.77332  0.85401  0.71863  1.0000
  H   H1113     1.0  0.73885  0.92718  0.73028  1.0000
  H   H1114     1.0  0.58424  0.02413  0.89683  1.0000
  H   H1115     1.0  0.58218  0.77678  0.79452  1.0000
  C   C706      1.0  0.72518  0.84078  0.81475  1.0000
  Fe  Fe141     1.0  0.74091  0.96405  0.84918  1.0000
  Fe  Fe142     1.0  0.52735  0.99928  0.81930  1.0000
  H   H1116     1.0  0.75303  0.86013  0.70150  1.0000
  H   H1117     1.0  0.48473  0.06883  0.68715  1.0000
  H   H1118     1.0  0.58659  0.69699  0.78385  1.0000
  H   H1119     1.0  0.53863  0.90359  0.74716  1.0000
  H   H1120     1.0  0.64266  0.67426  0.66686  1.0000
  H   H1121     1.0  0.53708  0.80383  0.78201  1.0000
  S   S279      1.0  0.67122  0.77179  0.67746  1.0000
  H   H1122     1.0  0.66727  0.68242  0.79892  1.0000
  H   H1123     1.0  0.49054  0.57759  0.81164  1.0000
  S   S280      1.0  0.59422  0.74369  0.89893  1.0000
  H   H1124     1.0  0.53707  0.81806  0.87044  1.0000
  H   H1125     1.0  0.52608  0.76333  0.67890  1.0000
  C   C707      1.0  0.54314  0.72664  0.89465  1.0000
  H   H1126     1.0  0.66086  0.59429  0.78762  1.0000
  H   H1127     1.0  0.56988  0.92939  0.88677  1.0000
  S   S281      1.0  0.55613  0.94896  0.78022  1.0000
  H   H1128     1.0  0.70532  0.84264  0.80020  1.0000
  H   H1129     1.0  0.70574  0.85000  0.85507  1.0000
  H   H1130     1.0  0.52714  0.75840  0.88417  1.0000
  S   S282      1.0  0.56050  0.02075  0.82934  1.0000
  C   C708      1.0  0.46716  0.80935  0.78579  1.0000
  C   C709      1.0  0.72199  0.90769  0.76508  1.0000
  C   C710      1.0  0.49304  0.80356  0.73134  1.0000
  S   S283      1.0  0.72791  0.98874  0.77387  1.0000
  C   C711      1.0  0.58172  0.67925  0.77100  1.0000
  C   C712      1.0  0.69063  0.68456  0.80206  1.0000
  H   H1131     1.0  0.61020  0.80868  0.80282  1.0000
  H   H1132     1.0  0.57269  0.69917  0.73558  1.0000
  S   S284      1.0  0.50122  0.69642  0.74735  1.0000
  H   H1133     1.0  0.62187  0.83543  0.73081  1.0000
  N   N71       1.0  0.73109  0.65352  0.78029  1.0000
  H   H1134     1.0  0.47362  0.63580  0.89276  1.0000
  H   H1135     1.0  0.68009  0.68228  0.84696  1.0000
  S   S285      1.0  0.71948  0.81790  0.69756  1.0000
  C   C713      1.0  0.45480  0.77867  0.82990  1.0000
  S   S286      1.0  0.49000  0.06016  0.78496  1.0000
  H   H1136     1.0  0.58628  0.60775  0.78101  1.0000
  N   N72       1.0  0.45372  0.60153  0.88467  1.0000
  H   H1137     1.0  0.70558  0.91822  0.80402  1.0000
  C   C714      1.0  0.46584  0.74341  0.81861  1.0000
  H   H1138     1.0  0.75493  0.65561  0.82562  1.0000
  C   C715      1.0  0.62662  0.96379  0.71934  1.0000
  H   H1139     1.0  0.55344  0.02689  0.69403  1.0000
  C   C716      1.0  0.60511  0.94445  0.72611  1.0000
  Fe  Fe143     1.0  0.73983  0.04077  0.75732  1.0000
  C   C717      1.0  0.54611  0.87578  0.73924  1.0000
  H   H1140     1.0  0.76084  0.87178  0.82982  1.0000
  H   H1141     1.0  0.51715  0.99610  0.69705  1.0000
  C   C718      1.0  0.66674  0.95766  0.67839  1.0000
  S   S287      1.0  0.46293  0.95465  0.70966  1.0000
  H   H1142     1.0  0.72280  0.64842  0.71913  1.0000
  H   H1143     1.0  0.63701  0.59395  0.72645  1.0000
  H   H1144     1.0  0.51859  0.87783  0.74108  1.0000
  H   H1145     1.0  0.58515  0.80437  0.72526  1.0000
  H   H1146     1.0  0.65866  0.67566  0.70998  1.0000
  H   H1147     1.0  0.59666  0.63741  0.71047  1.0000
  H   H1148     1.0  0.51485  0.59865  0.68388  1.0000
  Fe  Fe144     1.0  0.77971  0.77015  0.69447  1.0000
  C   C719      1.0  0.59084  0.92099  0.90453  1.0000
  C   C720      1.0  0.52796  0.70117  0.90152  1.0000
  H   H1149     1.0  0.77674  0.72232  0.88466  1.0000
  H   H1150     1.0  0.63316  0.84437  0.89800  1.0000
  H   H1151     1.0  0.50524  0.58410  0.89870  1.0000
  H   H1152     1.0  0.47235  0.59552  0.69004  1.0000
  S   S288      1.0  0.78380  0.73439  0.77725  1.0000
