data_image0
_chemical_formula_structural       CFeSH4SC2H4CHC6SH2CHC3HSHCHSHFeH2NH3CH2CH2C2HCHC2H3NHCH4CH3SHCH3SCH3NH5C3HCNHC2SH3SH2SHC2HCHCHSH3C3H3C3H2CSC2H4Fe2HC2HCFeSH3CS2H4C3HSHSHSHFe2C2HCHCHCSFeSHNCHCHC2HC2H3FeH2SH4CHFeC2SC2HNHCHSH2CHC2H2FeH3S2HSFeCH2C2HCSCHSCH3SC2FeC3H2CH2CH2NCNH2SHSHCH3CH5FeCSCSHC2HFeNSHFeC4H4SC3HFeCHC2SHCH2CHC2SHC2H5SCHCHCS2FeH2C2H2N2HNHCH3S2H4SCSHCHC3HS2CH8FeH4CH3FeC4H2C2H2SFeH4NHNH2SHCH5CH3SCHC4H2SH2C2SHFeHSH4SCHC2HNSH2CH4FeCHSHC3H3C2FeH2CH2Fe2C4SHC2FeHFeCNCH2CHCFeH3SH2SCHCHSHCHNHS2CHSC2FeC2HFeHCH4SCH2SH3CH3CH2CH2CNSH2C2S2CHSH2C3H2CH6CSC2HNFeH3CHFeC2HFeH2CSH2CHFeSC3H2CH2CSH2SH6SFeCNSHCNFeH2SHSFeH3FeSHCH5FeSHCHCH2CHC4HC2NSCH2FeCNFeH2SCH3CNCH3FeHCH2CH2SCH3CH2CHCSC2HSH2CH6CSHCHSH3NHCHCH2Fe2H3C2HSH5C2HCSH2C2H2CSC2HFeHSCHFeSC2HC2HC2HC2FeCHSCSH4NFeC2FeHFeSH2S2HSCHSHSNFeH4FeSH4CSCHCHFeH5C2H2CHC2HC6SCSFeSC2H4CH4CHCH2CHSHCHCNCH3CFeH2FeHCHSH2CS3C3NSH3FeC2H3C2HC2HCSCH2SHSH3C2H2CH9SHSHCHCSHCHC2SHCFeNC2HCHC3SCH4NHNH3FeCHCHCHSHCH2FeH3CSHSHC2HC5FeH3SHCHCHCSFeCH3SHNCH2CHSCFeHSCH4FeHNH2CSHCHSCNCH2SHSHCHC2FeHCH4FeCSHC4HCH9SHFeHC2HSH4C3SFeC2HCSH2C2H2CHCHSFeCH6CH2SCHC2FeH2SHCH2CHCH3NHC2HC2SHFeH2CSH3NHFeHSHSHCH2CHCHFeH2SCSHSH2SH2C2SC2HC3SCHCH2C2H2C2HCHCNH2C2HCFeH3SH3CHCFeCH2C2FeS2HC2H3CNFeH2SHCSHCSCH2CH3C2HCHCHFeCH5SNCH2SFeH2SHS2C2HS
_chemical_formula_sum              "C400 Fe80 S160 H640 N40"
_cell_length_a       21.7738
_cell_length_b       39.0817
_cell_length_c       25.2835
_cell_angle_alpha    83.2515
_cell_angle_beta     87.8321
_cell_angle_gamma    100.001

_space_group_name_H-M_alt    "P 1"
_space_group_IT_number       1

loop_
  _space_group_symop_operation_xyz
  'x, y, z'

loop_
  _atom_site_type_symbol
  _atom_site_label
  _atom_site_symmetry_multiplicity
  _atom_site_fract_x
  _atom_site_fract_y
  _atom_site_fract_z
  _atom_site_occupancy
  C   C1        1.0  0.41211  0.36604  0.80809  1.0000
  Fe  Fe1       1.0  0.42640  0.42629  0.56778  1.0000
  S   S1        1.0  0.39791  0.36956  0.59874  1.0000
  H   H1        1.0  0.31084  0.37173  0.73826  1.0000
  H   H2        1.0  0.58030  0.31157  0.74753  1.0000
  H   H3        1.0  0.10675  0.19539  0.88564  1.0000
  H   H4        1.0  0.29722  0.40309  0.65065  1.0000
  S   S2        1.0  0.14247  0.32365  0.85368  1.0000
  C   C2        1.0  0.47990  0.41486  0.75575  1.0000
  C   C3        1.0  0.45780  0.37888  0.76677  1.0000
  H   H5        1.0  0.39534  0.33814  0.81703  1.0000
  H   H6        1.0  0.14355  0.37796  0.72781  1.0000
  H   H7        1.0  0.15609  0.42510  0.71733  1.0000
  H   H8        1.0  0.23254  0.34731  0.74046  1.0000
  C   C4        1.0  0.26108  0.37215  0.74976  1.0000
  H   H9        1.0  0.51767  0.42480  0.72611  1.0000
  C   C5        1.0  0.22109  0.28002  0.82752  1.0000
  C   C6        1.0  0.12132  0.25169  0.87116  1.0000
  C   C7        1.0  0.40510  0.42566  0.82225  1.0000
  C   C8        1.0  0.24754  0.40249  0.66356  1.0000
  C   C9        1.0  0.16270  0.28231  0.85065  1.0000
  C   C10       1.0  0.17366  0.40216  0.73761  1.0000
  S   S3        1.0  0.54340  0.36163  0.57454  1.0000
  H   H10       1.0  0.25702  0.37188  0.79381  1.0000
  H   H11       1.0  0.23303  0.42561  0.64083  1.0000
  C   C11       1.0  0.19615  0.21661  0.84428  1.0000
  H   H12       1.0  0.16660  0.40251  0.78139  1.0000
  C   C12       1.0  0.23719  0.24721  0.82324  1.0000
  C   C13       1.0  0.38571  0.38949  0.83594  1.0000
  C   C14       1.0  0.45327  0.43823  0.78314  1.0000
  H   H13       1.0  0.31235  0.19579  0.69504  1.0000
  S   S4        1.0  0.48319  0.35047  0.72567  1.0000
  H   H14       1.0  0.21951  0.37853  0.65099  1.0000
  C   C15       1.0  0.13850  0.21887  0.86883  1.0000
  H   H15       1.0  0.28189  0.24561  0.80440  1.0000
  S   S5        1.0  0.51018  0.43436  0.61704  1.0000
  H   H16       1.0  0.27247  0.43712  0.77961  1.0000
  Fe  Fe2       1.0  0.48633  0.37619  0.64123  1.0000
  H   H17       1.0  0.25382  0.30351  0.81247  1.0000
  H   H18       1.0  0.34923  0.37959  0.86685  1.0000
  N   N1        1.0  0.24008  0.40305  0.72178  1.0000
  H   H19       1.0  0.21773  0.44015  0.88126  1.0000
  H   H20       1.0  0.34790  0.20287  0.85491  1.0000
  H   H21       1.0  0.32906  0.43632  0.72648  1.0000
  C   C16       1.0  0.27837  0.43529  0.73624  1.0000
  H   H22       1.0  0.25513  0.40324  0.87654  1.0000
  H   H23       1.0  0.17157  0.39678  0.88541  1.0000
  C   C17       1.0  0.21590  0.41210  0.89702  1.0000
  H   H24       1.0  0.44738  0.37050  0.09991  1.0000
  H   H25       1.0  0.28071  0.42952  0.01343  1.0000
  C   C18       1.0  0.46024  0.30838  0.15368  1.0000
  C   C19       1.0  0.27771  0.43048  0.96952  1.0000
  H   H26       1.0  0.18095  0.35282  0.96354  1.0000
  C   C20       1.0  0.16547  0.41750  0.98116  1.0000
  H   H27       1.0  0.35942  0.41607  0.08767  1.0000
  C   C21       1.0  0.34636  0.21718  0.20846  1.0000
  C   C22       1.0  0.48986  0.35992  0.08933  1.0000
  H   H28       1.0  0.40170  0.22647  0.89559  1.0000
  H   H29       1.0  0.53507  0.34427  0.21594  1.0000
  H   H30       1.0  0.12130  0.40094  0.97169  1.0000
  N   N2        1.0  0.51016  0.33871  0.13550  1.0000
  H   H31       1.0  0.47345  0.29227  0.18928  1.0000
  C   C23       1.0  0.56752  0.32619  0.11951  1.0000
  H   H32       1.0  0.47967  0.34436  0.05553  1.0000
  H   H33       1.0  0.32532  0.20476  0.92309  1.0000
  H   H34       1.0  0.41576  0.31679  0.16479  1.0000
  H   H35       1.0  0.22585  0.36646  0.01837  1.0000
  C   C24       1.0  0.36542  0.20259  0.89575  1.0000
  H   H36       1.0  0.52692  0.38255  0.07393  1.0000
  H   H37       1.0  0.48255  0.37228  0.19036  1.0000
  H   H38       1.0  0.32075  0.42275  0.95334  1.0000
  S   S6        1.0  0.46921  0.21913  0.18067  1.0000
  H   H39       1.0  0.45092  0.29072  0.12226  1.0000
  C   C25       1.0  0.22309  0.37068  0.97425  1.0000
  H   H40       1.0  0.56014  0.31016  0.08594  1.0000
  H   H41       1.0  0.16773  0.41499  0.02539  1.0000
  H   H42       1.0  0.58367  0.30995  0.15331  1.0000
  S   S7        1.0  0.24548  0.43837  0.12281  1.0000
  C   C26       1.0  0.52317  0.36019  0.17957  1.0000
  H   H43       1.0  0.26458  0.36252  0.95579  1.0000
  H   H44       1.0  0.34181  0.22592  0.16679  1.0000
  H   H45       1.0  0.56413  0.38161  0.16891  1.0000
  N   N3        1.0  0.22065  0.40765  0.95548  1.0000
  H   H46       1.0  0.45680  0.19347  0.96438  1.0000
  H   H47       1.0  0.28278  0.30127  0.50480  1.0000
  H   H48       1.0  0.28867  0.22611  0.42886  1.0000
  H   H49       1.0  0.23555  0.31048  0.39299  1.0000
  H   H50       1.0  0.50266  0.29568  0.53608  1.0000
  C   C27       1.0  0.41044  0.20128  0.28030  1.0000
  C   C28       1.0  0.53524  0.25917  0.48924  1.0000
  C   C29       1.0  0.40458  0.21233  0.22634  1.0000
  H   H51       1.0  0.22296  0.43724  0.35969  1.0000
  C   C30       1.0  0.21062  0.39012  0.46000  1.0000
  N   N4        1.0  0.24052  0.26644  0.45125  1.0000
  H   H52       1.0  0.53859  0.36385  0.35380  1.0000
  C   C31       1.0  0.29377  0.43119  0.51961  1.0000
  C   C32       1.0  0.35742  0.19347  0.31588  1.0000
  S   S8        1.0  0.48194  0.41790  0.49564  1.0000
  H   H53       1.0  0.31309  0.30545  0.40903  1.0000
  H   H54       1.0  0.19416  0.43664  0.26712  1.0000
  H   H55       1.0  0.14624  0.42413  0.47682  1.0000
  S   S9        1.0  0.55595  0.26868  0.28133  1.0000
  H   H56       1.0  0.55355  0.34982  0.44984  1.0000
  H   H57       1.0  0.32896  0.25376  0.47339  1.0000
  S   S10       1.0  0.16028  0.36270  0.42409  1.0000
  H   H58       1.0  0.47675  0.23760  0.37233  1.0000
  C   C33       1.0  0.29368  0.21010  0.24423  1.0000
  C   C34       1.0  0.44568  0.27494  0.41826  1.0000
  H   H59       1.0  0.24849  0.21327  0.22999  1.0000
  C   C35       1.0  0.26591  0.29074  0.40310  1.0000
  H   H60       1.0  0.30166  0.43539  0.33840  1.0000
  C   C36       1.0  0.17765  0.24786  0.44154  1.0000
  H   H61       1.0  0.27011  0.27645  0.36791  1.0000
  S   S11       1.0  0.58467  0.21995  0.42270  1.0000
  H   H62       1.0  0.57084  0.25362  0.51607  1.0000
  H   H63       1.0  0.41185  0.28138  0.39024  1.0000
  H   H64       1.0  0.35725  0.39720  0.50123  1.0000
  C   C37       1.0  0.48287  0.25052  0.40775  1.0000
  C   C38       1.0  0.52910  0.24368  0.44221  1.0000
  C   C39       1.0  0.23624  0.28636  0.49708  1.0000
  H   H65       1.0  0.21862  0.26869  0.53431  1.0000
  H   H66       1.0  0.15676  0.22950  0.47718  1.0000
  H   H67       1.0  0.17951  0.23229  0.40749  1.0000
  C   C40       1.0  0.28209  0.24075  0.46327  1.0000
  C   C41       1.0  0.27054  0.38308  0.46680  1.0000
  C   C42       1.0  0.49745  0.28332  0.50013  1.0000
  H   H68       1.0  0.14541  0.26666  0.43184  1.0000
  H   H69       1.0  0.28565  0.36184  0.44911  1.0000
  C   C43       1.0  0.45413  0.29196  0.46376  1.0000
  S   S12       1.0  0.41333  0.32565  0.47239  1.0000
  C   C44       1.0  0.31168  0.40346  0.49644  1.0000
  C   C45       1.0  0.19237  0.41836  0.48209  1.0000
  H   H70       1.0  0.26319  0.22133  0.49829  1.0000
  H   H71       1.0  0.20448  0.30567  0.48982  1.0000
  H   H72       1.0  0.27268  0.43781  0.24201  1.0000
  H   H73       1.0  0.57796  0.31066  0.38315  1.0000
  Fe  Fe3       1.0  0.56286  0.41962  0.54760  1.0000
  Fe  Fe4       1.0  0.45695  0.36135  0.52899  1.0000
  H   H74       1.0  0.45552  0.19780  0.29430  1.0000
  C   C46       1.0  0.23397  0.43881  0.51220  1.0000
  C   C47       1.0  0.29879  0.19725  0.29761  1.0000
  H   H75       1.0  0.58342  0.40589  0.35982  1.0000
  C   C48       1.0  0.58703  0.37915  0.35083  1.0000
  Fe  Fe5       1.0  0.55704  0.22953  0.22382  1.0000
  S   S13       1.0  0.35502  0.55560  0.81861  1.0000
  H   H76       1.0  0.52105  0.58254  0.59100  1.0000
  H   H77       1.0  0.11754  0.64220  0.76940  1.0000
  H   H78       1.0  0.20219  0.59880  0.83802  1.0000
  C   C49       1.0  0.47297  0.57576  0.57759  1.0000
  S   S14       1.0  0.57866  0.54924  0.67195  1.0000
  S   S15       1.0  0.40601  0.51885  0.71932  1.0000
  H   H79       1.0  0.26522  0.45916  0.71481  1.0000
  H   H80       1.0  0.18796  0.47775  0.65112  1.0000
  H   H81       1.0  0.25209  0.65821  0.66727  1.0000
  H   H82       1.0  0.53058  0.51941  0.58235  1.0000
  C   C50       1.0  0.12848  0.51625  0.65188  1.0000
  C   C51       1.0  0.17204  0.58813  0.80695  1.0000
  C   C52       1.0  0.10211  0.62942  0.81049  1.0000
  H   H83       1.0  0.17763  0.60185  0.66655  1.0000
  S   S16       1.0  0.36596  0.45514  0.85063  1.0000
  H   H84       1.0  0.28369  0.51887  0.66896  1.0000
  S   S17       1.0  0.49792  0.53715  0.81894  1.0000
  H   H85       1.0  0.46035  0.60051  0.55867  1.0000
  S   S18       1.0  0.30302  0.59276  0.68047  1.0000
  H   H86       1.0  0.13234  0.64360  0.83813  1.0000
  Fe  Fe6       1.0  0.37065  0.56814  0.73011  1.0000
  Fe  Fe7       1.0  0.40063  0.50934  0.80882  1.0000
  C   C53       1.0  0.23657  0.56285  0.66993  1.0000
  C   C54       1.0  0.48251  0.51606  0.56795  1.0000
  H   H87       1.0  0.42306  0.68846  0.87804  1.0000
  C   C55       1.0  0.17996  0.57464  0.66431  1.0000
  H   H88       1.0  0.19203  0.60187  0.76748  1.0000
  C   C56       1.0  0.12915  0.48882  0.86895  1.0000
  H   H89       1.0  0.24797  0.63364  0.57727  1.0000
  C   C57       1.0  0.23950  0.52775  0.66605  1.0000
  S   S19       1.0  0.46530  0.60054  0.73287  1.0000
  Fe  Fe8       1.0  0.45336  0.58456  0.82104  1.0000
  S   S20       1.0  0.47819  0.62704  0.87330  1.0000
  H   H90       1.0  0.57746  0.49841  0.76584  1.0000
  N   N5        1.0  0.10623  0.59188  0.81677  1.0000
  C   C58       1.0  0.36488  0.69149  0.62545  1.0000
  H   H91       1.0  0.17673  0.56028  0.80769  1.0000
  C   C59       1.0  0.18548  0.50452  0.65621  1.0000
  H   H92       1.0  0.44936  0.50598  0.60314  1.0000
  C   C60       1.0  0.13347  0.48661  0.81415  1.0000
  C   C61       1.0  0.12591  0.55120  0.65653  1.0000
  H   H93       1.0  0.17585  0.49865  0.79043  1.0000
  C   C62       1.0  0.34874  0.68558  0.72131  1.0000
  C   C63       1.0  0.26106  0.68721  0.66581  1.0000
  H   H94       1.0  0.46962  0.46603  0.77344  1.0000
  H   H95       1.0  0.34208  0.65650  0.72423  1.0000
  H   H96       1.0  0.44088  0.56643  0.61363  1.0000
  Fe  Fe9       1.0  0.49981  0.55016  0.73019  1.0000
  H   H97       1.0  0.35914  0.66254  0.62637  1.0000
  H   H98       1.0  0.09551  0.68088  0.65501  1.0000
  S   S21       1.0  0.34578  0.45517  0.55904  1.0000
  H   H99       1.0  0.32194  0.69188  0.75604  1.0000
  H   H100      1.0  0.18875  0.54237  0.55585  1.0000
  H   H101      1.0  0.12984  0.64933  0.03280  1.0000
  H   H102      1.0  0.46410  0.64423  0.15984  1.0000
  C   C64       1.0  0.38885  0.66581  0.89377  1.0000
  H   H103      1.0  0.41166  0.65149  0.10808  1.0000
  Fe  Fe10      1.0  0.23677  0.56449  0.06510  1.0000
  C   C65       1.0  0.20507  0.63139  0.13121  1.0000
  C   C66       1.0  0.39707  0.51271  0.11569  1.0000
  S   S22       1.0  0.20210  0.64249  0.92681  1.0000
  C   C67       1.0  0.45686  0.61135  0.04080  1.0000
  C   C68       1.0  0.40534  0.63260  0.89896  1.0000
  H   H104      1.0  0.40611  0.53981  0.12249  1.0000
  N   N6        1.0  0.48863  0.62756  0.08485  1.0000
  H   H105      1.0  0.50090  0.57912  0.12918  1.0000
  C   C69       1.0  0.32686  0.66927  0.90544  1.0000
  H   H106      1.0  0.30822  0.68971  0.04648  1.0000
  S   S23       1.0  0.51035  0.52633  0.06196  1.0000
  H   H107      1.0  0.19506  0.60394  0.14674  1.0000
  H   H108      1.0  0.56371  0.65800  0.03309  1.0000
  C   C70       1.0  0.29862  0.60646  0.92840  1.0000
  H   H109      1.0  0.55234  0.67435  0.09573  1.0000
  C   C71       1.0  0.25593  0.64417  0.09467  1.0000
  C   C72       1.0  0.52762  0.66152  0.06341  1.0000
  H   H110      1.0  0.49863  0.67962  0.04407  1.0000
  H   H111      1.0  0.37352  0.57747  0.92330  1.0000
  Fe  Fe11      1.0  0.17722  0.51897  0.98404  1.0000
  H   H112      1.0  0.26382  0.58328  0.94029  1.0000
  H   H113      1.0  0.49072  0.60560  0.01040  1.0000
  H   H114      1.0  0.11424  0.58700  0.90176  1.0000
  S   S24       1.0  0.18425  0.52944  0.13482  1.0000
  S   S25       1.0  0.19134  0.51287  0.89761  1.0000
  H   H115      1.0  0.46437  0.45198  0.06057  1.0000
  S   S26       1.0  0.26483  0.52040  0.02692  1.0000
  Fe  Fe12      1.0  0.10332  0.52884  0.08252  1.0000
  C   C73       1.0  0.36072  0.60315  0.91810  1.0000
  H   H116      1.0  0.42558  0.58613  0.05549  1.0000
  H   H117      1.0  0.30261  0.50503  0.14695  1.0000
  C   C74       1.0  0.33832  0.49268  0.13052  1.0000
  C   C75       1.0  0.42987  0.46295  0.08166  1.0000
  H   H118      1.0  0.10950  0.67603  0.97652  1.0000
  C   C76       1.0  0.28133  0.63938  0.92116  1.0000
  S   S27       1.0  0.30068  0.61532  0.07124  1.0000
  C   C77       1.0  0.52888  0.60441  0.11023  1.0000
  H   H119      1.0  0.55544  0.61670  0.14185  1.0000
  S   S28       1.0  0.15413  0.56658  0.01579  1.0000
  C   C78       1.0  0.32417  0.45812  0.11954  1.0000
  H   H120      1.0  0.42692  0.62842  0.02010  1.0000
  H   H121      1.0  0.40970  0.60822  0.14075  1.0000
  H   H122      1.0  0.56322  0.59818  0.08071  1.0000
  S   S29       1.0  0.11716  0.48082  0.04646  1.0000
  C   C79       1.0  0.44208  0.49842  0.08931  1.0000
  C   C80       1.0  0.26948  0.67989  0.07544  1.0000
  Fe  Fe13      1.0  0.20397  0.48503  0.09175  1.0000
  C   C81       1.0  0.09851  0.66804  0.01962  1.0000
  C   C82       1.0  0.44167  0.63319  0.12521  1.0000
  C   C83       1.0  0.16707  0.65404  0.14785  1.0000
  H   H123      1.0  0.27899  0.45842  0.95321  1.0000
  H   H124      1.0  0.12814  0.64372  0.17591  1.0000
  C   C84       1.0  0.17852  0.68937  0.12670  1.0000
  H   H125      1.0  0.11143  0.69198  0.03935  1.0000
  H   H126      1.0  0.16278  0.44516  0.96705  1.0000
  C   C85       1.0  0.37061  0.44263  0.09708  1.0000
  H   H127      1.0  0.22986  0.47080  0.21657  1.0000
  H   H128      1.0  0.47871  0.49537  0.54089  1.0000
  N   N7        1.0  0.13906  0.55377  0.48622  1.0000
  C   C86       1.0  0.56853  0.50717  0.26772  1.0000
  N   N8        1.0  0.26264  0.47629  0.29464  1.0000
  H   H129      1.0  0.36751  0.68796  0.40847  1.0000
  H   H130      1.0  0.23611  0.51805  0.33364  1.0000
  S   S30       1.0  0.39792  0.57122  0.37305  1.0000
  H   H131      1.0  0.16674  0.57461  0.23945  1.0000
  S   S31       1.0  0.51887  0.51151  0.36793  1.0000
  H   H132      1.0  0.39416  0.56743  0.49918  1.0000
  C   C87       1.0  0.26873  0.45360  0.34453  1.0000
  H   H133      1.0  0.35889  0.48034  0.26716  1.0000
  H   H134      1.0  0.12631  0.51769  0.42805  1.0000
  H   H135      1.0  0.29870  0.62267  0.34286  1.0000
  C   C88       1.0  0.51561  0.56162  0.49497  1.0000
  H   H136      1.0  0.18628  0.55554  0.40929  1.0000
  H   H137      1.0  0.21007  0.68614  0.26776  1.0000
  H   H138      1.0  0.50771  0.58677  0.47345  1.0000
  H   H139      1.0  0.21319  0.64356  0.39033  1.0000
  H   H140      1.0  0.20947  0.60013  0.47033  1.0000
  Fe  Fe14      1.0  0.51906  0.63403  0.27575  1.0000
  C   C89       1.0  0.16085  0.59154  0.48795  1.0000
  S   S32       1.0  0.47307  0.58198  0.25475  1.0000
  C   C90       1.0  0.34079  0.67580  0.44479  1.0000
  S   S33       1.0  0.54322  0.61280  0.35707  1.0000
  H   H141      1.0  0.21965  0.45996  0.53055  1.0000
  C   C91       1.0  0.25147  0.61679  0.33052  1.0000
  C   C92       1.0  0.23840  0.59792  0.28727  1.0000
  H   H142      1.0  0.53462  0.52219  0.25207  1.0000
  Fe  Fe15      1.0  0.45045  0.62403  0.38437  1.0000
  N   N9        1.0  0.46917  0.54915  0.54026  1.0000
  S   S34       1.0  0.29769  0.58349  0.25259  1.0000
  H   H143      1.0  0.10555  0.55933  0.40751  1.0000
  Fe  Fe16      1.0  0.38722  0.59624  0.29077  1.0000
  C   C93       1.0  0.32443  0.49725  0.27566  1.0000
  C   C94       1.0  0.21850  0.49997  0.30454  1.0000
  C   C95       1.0  0.17717  0.58976  0.27223  1.0000
  C   C96       1.0  0.14193  0.62067  0.34183  1.0000
  H   H144      1.0  0.51323  0.54226  0.46581  1.0000
  H   H145      1.0  0.34394  0.51424  0.30552  1.0000
  H   H146      1.0  0.17168  0.48521  0.32002  1.0000
  H   H147      1.0  0.21150  0.51667  0.26715  1.0000
  S   S35       1.0  0.43109  0.65036  0.30467  1.0000
  C   C97       1.0  0.13955  0.54625  0.43036  1.0000
  C   C98       1.0  0.20312  0.62836  0.35765  1.0000
  C   C99       1.0  0.12902  0.60094  0.29968  1.0000
  H   H148      1.0  0.28654  0.46927  0.37657  1.0000
  Fe  Fe17      1.0  0.48875  0.56194  0.33879  1.0000
  C   C100      1.0  0.36416  0.65092  0.47878  1.0000
  H   H149      1.0  0.32129  0.51481  0.23823  1.0000
  C   C101      1.0  0.56989  0.49791  0.32281  1.0000
  C   C102      1.0  0.27352  0.64536  0.54017  1.0000
  S   S36       1.0  0.43822  0.64132  0.46489  1.0000
  H   H150      1.0  0.13073  0.60759  0.46562  1.0000
  C   C103      1.0  0.25139  0.67134  0.50730  1.0000
  H   H151      1.0  0.40123  0.52300  0.49215  1.0000
  H   H152      1.0  0.22808  0.53756  0.49482  1.0000
  C   C104      1.0  0.18117  0.53375  0.51598  1.0000
  H   H153      1.0  0.16151  0.50526  0.52214  1.0000
  C   C105      1.0  0.40573  0.54301  0.52041  1.0000
  C   C106      1.0  0.33026  0.63548  0.52628  1.0000
  S   S37       1.0  0.18330  0.68573  0.52734  1.0000
  H   H154      1.0  0.15996  0.59810  0.52961  1.0000
  C   C107      1.0  0.28472  0.68631  0.45936  1.0000
  C   C108      1.0  0.23886  0.45438  0.25346  1.0000
  H   H155      1.0  0.56395  0.56596  0.50877  1.0000
  H   H156      1.0  0.34827  0.61632  0.55292  1.0000
  H   H157      1.0  0.29413  0.69226  0.33210  1.0000
  H   H158      1.0  0.36982  0.53336  0.55382  1.0000
  H   H159      1.0  0.29851  0.82720  0.76302  1.0000
  S   S38       1.0  0.38060  0.82469  0.56449  1.0000
  C   C109      1.0  0.51913  0.92961  0.58653  1.0000
  H   H160      1.0  0.23169  0.69400  0.69868  1.0000
  C   C110      1.0  0.50168  0.89710  0.79417  1.0000
  H   H161      1.0  0.19013  0.88790  0.72482  1.0000
  C   C111      1.0  0.49612  0.76815  0.88332  1.0000
  S   S39       1.0  0.12726  0.73751  0.71847  1.0000
  S   S40       1.0  0.09503  0.70731  0.87305  1.0000
  Fe  Fe18      1.0  0.15004  0.74121  0.80327  1.0000
  H   H162      1.0  0.34246  0.88022  0.66143  1.0000
  H   H163      1.0  0.20744  0.89150  0.65443  1.0000
  C   C112      1.0  0.57691  0.93341  0.66588  1.0000
  C   C113      1.0  0.30457  0.85720  0.66026  1.0000
  H   H164      1.0  0.16604  0.82302  0.72902  1.0000
  H   H165      1.0  0.32433  0.75180  0.62902  1.0000
  N   N10       1.0  0.32814  0.70094  0.67015  1.0000
  N   N11       1.0  0.25437  0.85571  0.70179  1.0000
  H   H166      1.0  0.53972  0.78471  0.86392  1.0000
  N   N12       1.0  0.55195  0.91014  0.62666  1.0000
  H   H167      1.0  0.26434  0.91177  0.69619  1.0000
  C   C114      1.0  0.33788  0.73949  0.66783  1.0000
  H   H168      1.0  0.32617  0.83332  0.66568  1.0000
  H   H169      1.0  0.09824  0.85875  0.84480  1.0000
  H   H170      1.0  0.53087  0.86416  0.68434  1.0000
  S   S41       1.0  0.26009  0.92952  0.80956  1.0000
  S   S42       1.0  0.42117  0.93476  0.74304  1.0000
  H   H171      1.0  0.55973  0.86595  0.83835  1.0000
  H   H172      1.0  0.46795  0.88831  0.67477  1.0000
  H   H173      1.0  0.24506  0.85266  0.78739  1.0000
  H   H174      1.0  0.40228  0.87825  0.86551  1.0000
  S   S43       1.0  0.16669  0.78955  0.84429  1.0000
  C   C115      1.0  0.50759  0.87975  0.65409  1.0000
  S   S44       1.0  0.24121  0.72547  0.82239  1.0000
  H   H175      1.0  0.45623  0.77691  0.86263  1.0000
  C   C116      1.0  0.22805  0.88817  0.69394  1.0000
  H   H176      1.0  0.30948  0.74758  0.70011  1.0000
  C   C117      1.0  0.54198  0.89024  0.83456  1.0000
  C   C118      1.0  0.28056  0.85217  0.75489  1.0000
  C   C119      1.0  0.20452  0.82532  0.69787  1.0000
  H   H177      1.0  0.48745  0.86192  0.62547  1.0000
  S   S45       1.0  0.34341  0.80683  0.87029  1.0000
  S   S46       1.0  0.20920  0.77506  0.58296  1.0000
  C   C120      1.0  0.47637  0.92785  0.79034  1.0000
  H   H178      1.0  0.38781  0.75078  0.67179  1.0000
  H   H179      1.0  0.32022  0.87384  0.75840  1.0000
  H   H180      1.0  0.28653  0.85910  0.61959  1.0000
  H   H181      1.0  0.48742  0.87761  0.76811  1.0000
  H   H182      1.0  0.18287  0.82738  0.65863  1.0000
  H   H183      1.0  0.22273  0.80031  0.70253  1.0000
  H   H184      1.0  0.35005  0.70216  0.58611  1.0000
  H   H185      1.0  0.39920  0.69520  0.72590  1.0000
  Fe  Fe19      1.0  0.25308  0.77021  0.87034  1.0000
  H   H186      1.0  0.41567  0.70172  0.62700  1.0000
  H   H187      1.0  0.09158  0.92021  0.84740  1.0000
  H   H188      1.0  0.49686  0.74077  0.87565  1.0000
  H   H189      1.0  0.24403  0.69810  0.62754  1.0000
  C   C121      1.0  0.55659  0.91401  0.87146  1.0000
  H   H190      1.0  0.48048  0.94008  0.60561  1.0000
  H   H191      1.0  0.49889  0.91281  0.55658  1.0000
  H   H192      1.0  0.31400  0.69484  0.90090  1.0000
  Fe  Fe20      1.0  0.12002  0.75420  0.91627  1.0000
  C   C122      1.0  0.49304  0.80792  0.94913  1.0000
  C   C123      1.0  0.27411  0.83488  0.94094  1.0000
  C   C124      1.0  0.25494  0.86315  0.96201  1.0000
  C   C125      1.0  0.39174  0.90685  0.04586  1.0000
  H   H193      1.0  0.21353  0.85867  0.98857  1.0000
  H   H194      1.0  0.15052  0.85924  0.89820  1.0000
  C   C126      1.0  0.36172  0.87395  0.89280  1.0000
  C   C127      1.0  0.34136  0.90234  0.91217  1.0000
  H   H195      1.0  0.23916  0.72969  0.07417  1.0000
  H   H196      1.0  0.53782  0.82466  0.93230  1.0000
  S   S47       1.0  0.25311  0.93321  0.95683  1.0000
  Fe  Fe21      1.0  0.18834  0.69579  0.89566  1.0000
  H   H197      1.0  0.51363  0.90417  0.05857  1.0000
  H   H198      1.0  0.48179  0.92497  0.96884  1.0000
  H   H199      1.0  0.35061  0.91515  0.02716  1.0000
  H   H200      1.0  0.14604  0.92207  0.89829  1.0000
  N   N13       1.0  0.49081  0.77083  0.94111  1.0000
  H   H201      1.0  0.54054  0.75902  0.01098  1.0000
  N   N14       1.0  0.44441  0.93659  0.04306  1.0000
  H   H202      1.0  0.40427  0.88512  0.02534  1.0000
  H   H203      1.0  0.39026  0.75849  0.94535  1.0000
  S   S48       1.0  0.36649  0.89960  0.19621  1.0000
  H   H204      1.0  0.22234  0.93041  0.06905  1.0000
  C   C128      1.0  0.32643  0.84048  0.90499  1.0000
  H   H205      1.0  0.42468  0.75145  0.00803  1.0000
  H   H206      1.0  0.42782  0.72145  0.95977  1.0000
  H   H207      1.0  0.47869  0.91685  0.11709  1.0000
  H   H208      1.0  0.37634  0.89597  0.08775  1.0000
  H   H209      1.0  0.36681  0.92840  0.89953  1.0000
  C   C129      1.0  0.30827  0.92316  0.21084  1.0000
  H   H210      1.0  0.45472  0.81889  0.92916  1.0000
  H   H211      1.0  0.48842  0.81103  0.99218  1.0000
  H   H212      1.0  0.26345  0.71205  0.21658  1.0000
  S   S49       1.0  0.12550  0.71689  0.14011  1.0000
  C   C130      1.0  0.23045  0.70243  0.09110  1.0000
  H   H213      1.0  0.24714  0.80901  0.95159  1.0000
  C   C131      1.0  0.43091  0.74963  0.96463  1.0000
  C   C132      1.0  0.28660  0.89710  0.94510  1.0000
  C   C133      1.0  0.54320  0.75758  0.96727  1.0000
  C   C134      1.0  0.49521  0.92594  0.07473  1.0000
  H   H214      1.0  0.54344  0.72983  0.96123  1.0000
  H   H215      1.0  0.12304  0.88222  0.98193  1.0000
  S   S50       1.0  0.20858  0.73897  0.94557  1.0000
  H   H216      1.0  0.11046  0.91827  0.09842  1.0000
  H   H217      1.0  0.12908  0.93905  0.15693  1.0000
  C   C135      1.0  0.10041  0.85539  0.88898  1.0000
  C   C136      1.0  0.09555  0.91614  0.89112  1.0000
  S   S51       1.0  0.22841  0.84625  0.49552  1.0000
  H   H218      1.0  0.15475  0.80958  0.25111  1.0000
  Fe  Fe22      1.0  0.54168  0.93316  0.31023  1.0000
  H   H219      1.0  0.35761  0.92245  0.38837  1.0000
  S   S52       1.0  0.57593  0.90420  0.38177  1.0000
  H   H220      1.0  0.24453  0.78321  0.24612  1.0000
  H   H221      1.0  0.23189  0.75116  0.36445  1.0000
  H   H222      1.0  0.34676  0.71797  0.28049  1.0000
  H   H223      1.0  0.28678  0.89102  0.40215  1.0000
  S   S53       1.0  0.54223  0.91008  0.23324  1.0000
  C   C137      1.0  0.49715  0.84433  0.51566  1.0000
  H   H224      1.0  0.33408  0.73506  0.34224  1.0000
  C   C138      1.0  0.21142  0.73566  0.33320  1.0000
  C   C139      1.0  0.31074  0.71939  0.31221  1.0000
  H   H225      1.0  0.23507  0.87799  0.22938  1.0000
  N   N15       1.0  0.25857  0.73488  0.28992  1.0000
  S   S54       1.0  0.28161  0.77646  0.46488  1.0000
  H   H226      1.0  0.26956  0.92219  0.48348  1.0000
  H   H227      1.0  0.17249  0.74828  0.31788  1.0000
  C   C140      1.0  0.20795  0.93573  0.39557  1.0000
  H   H228      1.0  0.10019  0.83124  0.40647  1.0000
  H   H229      1.0  0.19752  0.93276  0.35351  1.0000
  H   H230      1.0  0.19040  0.72478  0.23210  1.0000
  H   H231      1.0  0.18752  0.91033  0.41960  1.0000
  Fe  Fe23      1.0  0.19859  0.74448  0.51322  1.0000
  C   C141      1.0  0.20324  0.92564  0.24387  1.0000
  H   H232      1.0  0.15750  0.91218  0.25958  1.0000
  S   S55       1.0  0.21334  0.83008  0.34633  1.0000
  H   H233      1.0  0.19080  0.70879  0.35254  1.0000
  C   C142      1.0  0.22950  0.71351  0.24992  1.0000
  C   C143      1.0  0.13492  0.82099  0.33062  1.0000
  C   C144      1.0  0.52001  0.87990  0.42956  1.0000
  H   H234      1.0  0.51308  0.83032  0.55045  1.0000
  H   H235      1.0  0.26719  0.70594  0.43357  1.0000
  H   H236      1.0  0.30305  0.78819  0.29372  1.0000
  C   C145      1.0  0.45612  0.87875  0.42390  1.0000
  C   C146      1.0  0.28251  0.77099  0.26431  1.0000
  Fe  Fe24      1.0  0.21444  0.81005  0.43303  1.0000
  H   H237      1.0  0.44047  0.89141  0.38797  1.0000
  H   H238      1.0  0.30151  0.91640  0.33828  1.0000
  C   C147      1.0  0.30694  0.91755  0.38177  1.0000
  H   H239      1.0  0.36344  0.86042  0.46059  1.0000
  H   H240      1.0  0.10328  0.87256  0.47522  1.0000
  Fe  Fe25      1.0  0.28748  0.80924  0.53177  1.0000
  Fe  Fe26      1.0  0.14881  0.80886  0.53988  1.0000
  C   C148      1.0  0.11898  0.80892  0.28218  1.0000
  C   C149      1.0  0.54036  0.86206  0.47489  1.0000
  C   C150      1.0  0.41272  0.86100  0.46480  1.0000
  C   C151      1.0  0.43349  0.84446  0.51121  1.0000
  S   S56       1.0  0.13028  0.77470  0.47515  1.0000
  H   H241      1.0  0.31901  0.77158  0.23206  1.0000
  C   C152      1.0  0.24728  0.90622  0.22702  1.0000
  C   C153      1.0  0.08805  0.82094  0.36985  1.0000
  Fe  Fe27      1.0  0.45346  0.93078  0.22242  1.0000
  H   H242      1.0  0.35159  0.05796  0.55995  1.0000
  Fe  Fe28      1.0  0.34954  0.96311  0.77562  1.0000
  C   C154      1.0  0.50497  0.10405  0.78091  1.0000
  N   N16       1.0  0.51631  0.08248  0.73849  1.0000
  C   C155      1.0  0.51290  0.10268  0.68576  1.0000
  H   H243      1.0  0.19517  0.07057  0.77113  1.0000
  H   H244      1.0  0.31737  0.13850  0.87556  1.0000
  C   C156      1.0  0.16251  0.12663  0.71441  1.0000
  H   H245      1.0  0.13312  0.06429  0.82246  1.0000
  C   C157      1.0  0.43349  0.03949  0.58858  1.0000
  Fe  Fe29      1.0  0.26751  0.96326  0.87525  1.0000
  H   H246      1.0  0.19050  0.10395  0.81277  1.0000
  H   H247      1.0  0.54740  0.12760  0.68045  1.0000
  H   H248      1.0  0.52263  0.08753  0.65276  1.0000
  S   S57       1.0  0.33211  0.08683  0.80324  1.0000
  H   H249      1.0  0.32279  0.10817  0.60971  1.0000
  H   H250      1.0  0.46981  0.03487  0.78442  1.0000
  S   S58       1.0  0.13279  0.94869  0.71915  1.0000
  C   C158      1.0  0.46848  0.05027  0.74479  1.0000
  H   H251      1.0  0.42078  0.05641  0.74173  1.0000
  C   C159      1.0  0.32932  0.11298  0.74260  1.0000
  H   H252      1.0  0.42253  0.16698  0.83126  1.0000
  S   S59       1.0  0.36044  0.99414  0.84473  1.0000
  H   H253      1.0  0.10411  0.13831  0.80369  1.0000
  C   C160      1.0  0.48529  0.02460  0.57547  1.0000
  H   H254      1.0  0.53939  0.94475  0.68473  1.0000
  N   N17       1.0  0.12234  0.10018  0.75334  1.0000
  H   H255      1.0  0.13475  0.13971  0.68487  1.0000
  S   S60       1.0  0.54363  0.02104  0.62105  1.0000
  S   S61       1.0  0.21129  0.00056  0.83557  1.0000
  C   C161      1.0  0.31428  0.15389  0.64705  1.0000
  H   H256      1.0  0.45993  0.11353  0.77670  1.0000
  S   S62       1.0  0.29260  0.17717  0.58963  1.0000
  C   C162      1.0  0.44030  0.16734  0.87194  1.0000
  C   C163      1.0  0.32611  0.14842  0.74241  1.0000
  Fe  Fe30      1.0  0.21328  0.96979  0.76600  1.0000
  C   C164      1.0  0.16178  0.08395  0.79163  1.0000
  C   C165      1.0  0.31818  0.16886  0.69465  1.0000
  H   H257      1.0  0.42792  0.04776  0.62750  1.0000
  Fe  Fe31      1.0  0.30464  0.02918  0.79908  1.0000
  H   H258      1.0  0.48017  0.18963  0.87000  1.0000
  C   C166      1.0  0.32234  0.11924  0.64672  1.0000
  H   H259      1.0  0.11840  0.05860  0.70418  1.0000
  H   H260      1.0  0.50267  0.08888  0.82134  1.0000
  H   H261      1.0  0.46572  0.10955  0.68073  1.0000
  H   H262      1.0  0.19031  0.14748  0.73470  1.0000
  S   S63       1.0  0.21807  0.17577  0.84093  1.0000
  C   C167      1.0  0.32888  0.09864  0.69453  1.0000
  H   H263      1.0  0.33337  0.07175  0.69380  1.0000
  H   H264      1.0  0.19615  0.11459  0.69177  1.0000
  S   S64       1.0  0.30234  0.00108  0.72613  1.0000
  H   H265      1.0  0.47564  0.03292  0.71406  1.0000
  H   H266      1.0  0.47674  0.97671  0.82161  1.0000
  H   H267      1.0  0.32669  0.15978  0.77935  1.0000
  C   C168      1.0  0.49387  0.95238  0.82548  1.0000
  H   H268      1.0  0.54220  0.12761  0.77947  1.0000
  H   H269      1.0  0.09431  0.99931  0.78072  1.0000
  H   H270      1.0  0.55142  0.95230  0.56466  1.0000
  C   C169      1.0  0.57877  0.07281  0.74273  1.0000
  H   H271      1.0  0.45866  0.14266  0.88152  1.0000
  H   H272      1.0  0.58220  0.05687  0.78166  1.0000
  C   C170      1.0  0.53406  0.94555  0.86582  1.0000
  H   H273      1.0  0.13113  0.01385  0.10564  1.0000
  H   H274      1.0  0.38567  0.97553  0.04009  1.0000
  C   C171      1.0  0.32425  0.95946  0.20908  1.0000
  N   N18       1.0  0.16768  0.96960  0.08309  1.0000
  S   S65       1.0  0.55531  0.13562  0.95493  1.0000
  H   H275      1.0  0.54766  0.96482  0.89253  1.0000
  H   H276      1.0  0.21217  0.02313  0.08317  1.0000
  C   C172      1.0  0.39884  0.08331  0.05379  1.0000
  C   C173      1.0  0.32063  0.05220  0.00288  1.0000
  S   S66       1.0  0.10233  0.07977  0.04082  1.0000
  S   S67       1.0  0.50010  0.98215  0.17828  1.0000
  C   C174      1.0  0.52644  0.11995  0.20956  1.0000
  H   H277      1.0  0.41152  0.10054  0.08367  1.0000
  S   S68       1.0  0.19941  0.08599  0.93512  1.0000
  H   H278      1.0  0.57315  0.04524  0.18200  1.0000
  H   H279      1.0  0.35814  0.11463  0.92304  1.0000
  C   C175      1.0  0.15065  0.97538  0.02714  1.0000
  C   C176      1.0  0.33652  0.07483  0.04108  1.0000
  C   C177      1.0  0.17522  0.00308  0.10598  1.0000
  H   H280      1.0  0.18872  0.99306  0.00155  1.0000
  H   H281      1.0  0.40297  0.95896  0.10599  1.0000
  C   C178      1.0  0.43004  0.04998  0.98548  1.0000
  H   H282      1.0  0.27253  0.04466  0.99398  1.0000
  H   H283      1.0  0.18835  0.99987  0.14810  1.0000
  H   H284      1.0  0.32809  0.07003  0.16898  1.0000
  H   H285      1.0  0.43160  0.14691  0.97958  1.0000
  H   H286      1.0  0.49388  0.07818  0.03521  1.0000
  H   H287      1.0  0.46154  0.98923  0.06324  1.0000
  C   C179      1.0  0.42274  0.96639  0.06422  1.0000
  S   S69       1.0  0.48903  0.03859  0.94569  1.0000
  C   C180      1.0  0.34024  0.13957  0.91408  1.0000
  C   C181      1.0  0.44561  0.07100  0.02583  1.0000
  H   H288      1.0  0.10846  0.98762  0.02409  1.0000
  N   N19       1.0  0.39062  0.17038  0.91166  1.0000
  Fe  Fe32      1.0  0.20266  0.10207  0.01746  1.0000
  H   H289      1.0  0.50951  0.96860  0.98379  1.0000
  H   H290      1.0  0.24180  0.95212  0.12616  1.0000
  H   H291      1.0  0.14089  0.95042  0.00943  1.0000
  C   C182      1.0  0.11784  0.94390  0.11446  1.0000
  H   H292      1.0  0.35490  0.02294  0.94478  1.0000
  Fe  Fe33      1.0  0.09707  0.06853  0.95605  1.0000
  C   C183      1.0  0.41608  0.17180  0.96492  1.0000
  C   C184      1.0  0.36732  0.03962  0.97529  1.0000
  H   H293      1.0  0.26748  0.11794  0.17383  1.0000
  Fe  Fe34      1.0  0.17581  0.13910  0.91242  1.0000
  H   H294      1.0  0.53517  0.94808  0.07457  1.0000
  H   H295      1.0  0.38018  0.17567  0.99515  1.0000
  C   C185      1.0  0.46790  0.94727  0.98702  1.0000
  S   S70       1.0  0.18598  0.15667  0.99315  1.0000
  H   H296      1.0  0.26527  0.97450  0.06046  1.0000
  H   H297      1.0  0.30376  0.14015  0.94567  1.0000
  C   C186      1.0  0.56732  0.07215  0.17728  1.0000
  H   H298      1.0  0.43205  0.95732  0.96229  1.0000
  Fe  Fe35      1.0  0.57124  0.08212  0.94205  1.0000
  S   S71       1.0  0.27945  0.09378  0.07158  1.0000
  C   C187      1.0  0.52963  0.08427  0.21432  1.0000
  C   C188      1.0  0.29634  0.12627  0.20701  1.0000
  C   C189      1.0  0.22696  0.95610  0.08478  1.0000
  H   H299      1.0  0.33717  0.14593  0.18881  1.0000
  H   H300      1.0  0.39711  0.09836  0.18492  1.0000
  C   C190      1.0  0.56043  0.14321  0.16777  1.0000
  H   H301      1.0  0.55857  0.17085  0.16458  1.0000
  H   H302      1.0  0.37093  0.97282  0.19652  1.0000
  C   C191      1.0  0.35482  0.07963  0.20250  1.0000
  S   S72       1.0  0.34714  0.04424  0.44921  1.0000
  H   H303      1.0  0.45068  0.00846  0.44958  1.0000
  H   H304      1.0  0.26623  0.96819  0.47329  1.0000
  S   S73       1.0  0.44941  0.95068  0.30190  1.0000
  H   H305      1.0  0.47252  0.06631  0.39402  1.0000
  H   H306      1.0  0.29320  0.00672  0.22338  1.0000
  H   H307      1.0  0.33913  0.95391  0.46359  1.0000
  H   H308      1.0  0.45885  0.10218  0.47260  1.0000
  H   H309      1.0  0.18289  0.95623  0.40807  1.0000
  H   H310      1.0  0.49841  0.12984  0.23820  1.0000
  S   S74       1.0  0.20802  0.08889  0.41425  1.0000
  Fe  Fe36      1.0  0.26346  0.14155  0.52853  1.0000
  C   C192      1.0  0.22025  0.96192  0.24340  1.0000
  N   N20       1.0  0.53135  0.11379  0.40989  1.0000
  S   S75       1.0  0.48632  0.05482  0.26610  1.0000
  H   H311      1.0  0.53088  0.00235  0.51416  1.0000
  C   C193      1.0  0.39632  0.03423  0.49999  1.0000
  N   N21       1.0  0.31655  0.09615  0.23798  1.0000
  Fe  Fe37      1.0  0.15611  0.09221  0.49100  1.0000
  H   H312      1.0  0.54501  0.07757  0.35487  1.0000
  H   H313      1.0  0.37250  0.08638  0.30454  1.0000
  S   S76       1.0  0.32557  0.14215  0.45569  1.0000
  H   H314      1.0  0.27447  0.04786  0.28530  1.0000
  S   S77       1.0  0.23065  0.18416  0.33952  1.0000
  Fe  Fe38      1.0  0.28873  0.08428  0.46537  1.0000
  H   H315      1.0  0.44378  0.12455  0.38218  1.0000
  H   H316      1.0  0.50326  0.16265  0.38285  1.0000
  H   H317      1.0  0.36209  0.18445  0.35723  1.0000
  Fe  Fe39      1.0  0.23915  0.14677  0.41205  1.0000
  S   S78       1.0  0.17072  0.98685  0.27070  1.0000
  H   H318      1.0  0.35174  0.98746  0.37519  1.0000
  C   C194      1.0  0.30106  0.97900  0.36971  1.0000
  H   H319      1.0  0.26776  0.13958  0.23255  1.0000
  H   H320      1.0  0.39474  0.12878  0.26640  1.0000
  H   H321      1.0  0.29591  0.97784  0.32664  1.0000
  H   H322      1.0  0.23246  0.06006  0.22828  1.0000
  H   H323      1.0  0.51726  0.13977  0.47847  1.0000
  Fe  Fe40      1.0  0.50461  0.00062  0.25877  1.0000
  S   S79       1.0  0.17945  0.15057  0.48427  1.0000
  H   H324      1.0  0.54488  0.06032  0.42318  1.0000
  C   C195      1.0  0.49478  0.13477  0.37529  1.0000
  H   H325      1.0  0.32581  0.11968  0.31061  1.0000
  C   C196      1.0  0.28008  0.97878  0.22437  1.0000
  H   H326      1.0  0.27624  0.99987  0.38116  1.0000
  H   H327      1.0  0.50707  0.13388  0.33248  1.0000
  C   C197      1.0  0.52274  0.07790  0.39510  1.0000
  H   H328      1.0  0.53471  0.09638  0.49343  1.0000
  C   C198      1.0  0.50963  0.11294  0.46618  1.0000
  C   C199      1.0  0.26101  0.07051  0.26041  1.0000
  C   C200      1.0  0.35402  0.10828  0.28194  1.0000
  C   C201      1.0  0.49120  0.01359  0.52516  1.0000
  H   H329      1.0  0.23028  0.08246  0.28619  1.0000
  C   C202      1.0  0.44570  0.01725  0.48830  1.0000
  C   C203      1.0  0.28811  0.94725  0.45799  1.0000
  N   N22       1.0  0.27595  0.94484  0.40130  1.0000
  S   S80       1.0  0.23406  0.08304  0.54250  1.0000
  C   C204      1.0  0.38983  0.04506  0.55041  1.0000
  H   H330      1.0  0.37110  0.05686  0.22438  1.0000
  H   H331      1.0  0.66919  0.38360  0.56827  1.0000
  Fe  Fe41      1.0  0.91753  0.30204  0.80098  1.0000
  C   C205      1.0  0.82538  0.41537  0.87249  1.0000
  N   N23       1.0  0.93247  0.39033  0.62545  1.0000
  Fe  Fe42      1.0  0.95833  0.37609  0.82292  1.0000
  H   H332      1.0  0.91895  0.38861  0.71037  1.0000
  H   H333      1.0  0.76382  0.24884  0.67898  1.0000
  S   S81       1.0  0.95544  0.27888  0.87590  1.0000
  C   C206      1.0  0.73351  0.34554  0.75724  1.0000
  H   H334      1.0  0.84135  0.35938  0.62143  1.0000
  H   H335      1.0  0.94724  0.43144  0.67563  1.0000
  H   H336      1.0  0.89360  0.33809  0.66170  1.0000
  C   C207      1.0  0.91554  0.40610  0.67301  1.0000
  N   N24       1.0  0.66734  0.34725  0.74833  1.0000
  C   C208      1.0  0.99806  0.38514  0.62700  1.0000
  H   H337      1.0  0.69977  0.22926  0.87209  1.0000
  H   H338      1.0  0.67993  0.35105  0.66285  1.0000
  H   H339      1.0  0.59319  0.36914  0.78245  1.0000
  Fe  Fe43      1.0  0.03863  0.32232  0.85482  1.0000
  H   H340      1.0  0.65769  0.21665  0.71007  1.0000
  C   C209      1.0  0.79186  0.25684  0.75811  1.0000
  H   H341      1.0  0.87717  0.41946  0.57500  1.0000
  H   H342      1.0  0.66971  0.39407  0.78579  1.0000
  C   C210      1.0  0.77328  0.25208  0.81241  1.0000
  H   H343      1.0  0.87422  0.41086  0.87508  1.0000
  H   H344      1.0  0.68973  0.39244  0.68884  1.0000
  S   S82       1.0  0.96522  0.43169  0.78994  1.0000
  C   C211      1.0  0.74960  0.24495  0.72108  1.0000
  H   H345      1.0  0.00466  0.36669  0.66235  1.0000
  H   H346      1.0  0.86696  0.41144  0.67255  1.0000
  H   H347      1.0  0.03039  0.41035  0.62913  1.0000
  C   C212      1.0  0.92556  0.41394  0.57687  1.0000
  H   H348      1.0  0.95854  0.43932  0.57480  1.0000
  H   H349      1.0  0.90368  0.34299  0.59040  1.0000
  C   C213      1.0  0.89089  0.35621  0.62483  1.0000
  H   H350      1.0  0.01280  0.37426  0.59075  1.0000
  C   C214      1.0  0.66246  0.36525  0.69423  1.0000
  S   S83       1.0  0.86897  0.27528  0.73660  1.0000
  C   C215      1.0  0.68961  0.22686  0.73860  1.0000
  C   C216      1.0  0.67230  0.22026  0.79318  1.0000
  H   H351      1.0  0.81423  0.41634  0.82979  1.0000
  S   S84       1.0  0.00403  0.34150  0.77661  1.0000
  H   H352      1.0  0.75350  0.33074  0.72784  1.0000
  H   H353      1.0  0.76259  0.37223  0.75366  1.0000
  C   C217      1.0  0.64282  0.36693  0.78841  1.0000
  H   H354      1.0  0.64741  0.29584  0.72353  1.0000
  H   H355      1.0  0.84834  0.20344  0.70388  1.0000
  H   H356      1.0  0.64485  0.35395  0.82970  1.0000
  H   H357      1.0  0.63359  0.29684  0.79373  1.0000
  H   H358      1.0  0.61314  0.36734  0.68653  1.0000
  H   H359      1.0  0.73860  0.33204  0.79771  1.0000
  C   C218      1.0  0.71353  0.23363  0.82995  1.0000
  S   S85       1.0  0.86834  0.33881  0.84039  1.0000
  H   H360      1.0  0.80577  0.26120  0.84124  1.0000
  C   C219      1.0  0.63062  0.31131  0.75352  1.0000
  H   H361      1.0  0.74576  0.34500  0.55486  1.0000
  S   S86       1.0  0.99970  0.36072  0.89936  1.0000
  H   H362      1.0  0.79794  0.28523  0.10652  1.0000
  H   H363      1.0  0.81794  0.30568  0.19387  1.0000
  H   H364      1.0  0.84569  0.25735  0.08067  1.0000
  N   N25       1.0  0.87699  0.27787  0.15230  1.0000
  H   H365      1.0  0.81482  0.35495  0.06664  1.0000
  C   C220      1.0  0.91560  0.25072  0.16471  1.0000
  H   H366      1.0  0.79472  0.39224  0.89518  1.0000
  C   C221      1.0  0.84909  0.28621  0.20227  1.0000
  H   H367      1.0  0.66640  0.33857  0.92416  1.0000
  H   H368      1.0  0.88710  0.22629  0.18611  1.0000
  Fe  Fe44      1.0  0.91316  0.31958  0.91359  1.0000
  Fe  Fe45      1.0  0.64286  0.43524  0.02935  1.0000
  H   H369      1.0  0.72145  0.42900  0.92050  1.0000
  H   H370      1.0  0.98285  0.44215  0.89913  1.0000
  H   H371      1.0  0.88534  0.39671  0.14851  1.0000
  C   C222      1.0  0.72965  0.36695  0.03537  1.0000
  C   C223      1.0  0.91681  0.30984  0.12421  1.0000
  H   H372      1.0  0.81229  0.42394  0.97537  1.0000
  S   S87       1.0  0.64986  0.25467  0.18282  1.0000
  H   H373      1.0  0.95381  0.25980  0.19059  1.0000
  H   H374      1.0  0.79423  0.24156  0.13901  1.0000
  H   H375      1.0  0.93853  0.30471  0.08605  1.0000
  H   H376      1.0  0.95496  0.32053  0.14910  1.0000
  H   H377      1.0  0.88938  0.33094  0.11436  1.0000
  C   C224      1.0  0.82657  0.26486  0.11821  1.0000
  C   C225      1.0  0.69914  0.34234  0.95493  1.0000
  H   H378      1.0  0.60656  0.34843  0.10643  1.0000
  C   C226      1.0  0.79523  0.33176  0.99442  1.0000
  S   S88       1.0  0.62423  0.38483  0.99255  1.0000
  H   H379      1.0  0.93743  0.24397  0.12768  1.0000
  H   H380      1.0  0.76120  0.31103  0.92363  1.0000
  C   C227      1.0  0.68825  0.36298  0.99481  1.0000
  C   C228      1.0  0.85637  0.38357  0.18322  1.0000
  H   H381      1.0  0.72028  0.38182  0.06717  1.0000
  H   H382      1.0  0.76962  0.38926  0.14772  1.0000
  C   C229      1.0  0.78285  0.35128  0.03533  1.0000
  S   S89       1.0  0.86329  0.31328  0.99435  1.0000
  C   C230      1.0  0.75294  0.32699  0.95442  1.0000
  C   C231      1.0  0.79115  0.37943  0.18278  1.0000
  H   H383      1.0  0.07667  0.25326  0.88997  1.0000
  Fe  Fe46      1.0  0.65101  0.29121  0.24489  1.0000
  H   H384      1.0  0.82030  0.26269  0.22562  1.0000
  S   S90       1.0  0.96444  0.37334  0.22917  1.0000
  C   C232      1.0  0.70827  0.39254  0.53985  1.0000
  H   H385      1.0  0.64368  0.32511  0.33624  1.0000
  Fe  Fe47      1.0  0.07301  0.38207  0.40163  1.0000
  S   S91       1.0  0.92416  0.41323  0.35313  1.0000
  C   C233      1.0  0.81254  0.41647  0.46896  1.0000
  C   C234      1.0  0.76805  0.43789  0.47555  1.0000
  H   H386      1.0  0.88567  0.29713  0.22833  1.0000
  C   C235      1.0  0.60327  0.36285  0.44349  1.0000
  C   C236      1.0  0.69194  0.38226  0.38054  1.0000
  H   H387      1.0  0.69500  0.40903  0.39222  1.0000
  C   C237      1.0  0.75220  0.37095  0.53278  1.0000
  C   C238      1.0  0.78161  0.34865  0.27243  1.0000
  H   H388      1.0  0.86779  0.34386  0.30884  1.0000
  C   C239      1.0  0.84657  0.35405  0.27375  1.0000
  C   C240      1.0  0.71495  0.42554  0.51000  1.0000
  Fe  Fe48      1.0  0.98572  0.38300  0.31221  1.0000
  C   C241      1.0  0.80379  0.38264  0.49658  1.0000
  H   H389      1.0  0.65550  0.31250  0.40530  1.0000
  S   S92       1.0  0.98882  0.34413  0.38407  1.0000
  C   C242      1.0  0.75388  0.36103  0.22681  1.0000
  S   S93       1.0  0.85643  0.35448  0.48655  1.0000
  H   H390      1.0  0.85300  0.42605  0.44203  1.0000
  H   H391      1.0  0.93526  0.40209  0.54046  1.0000
  H   H392      1.0  0.72421  0.36897  0.40536  1.0000
  H   H393      1.0  0.60572  0.39008  0.45331  1.0000
  N   N26       1.0  0.62717  0.36261  0.38813  1.0000
  Fe  Fe49      1.0  0.68945  0.22061  0.24542  1.0000
  C   C243      1.0  0.88382  0.37048  0.22858  1.0000
  C   C244      1.0  0.62614  0.32611  0.37776  1.0000
  Fe  Fe50      1.0  0.93580  0.37806  0.42689  1.0000
  H   H394      1.0  0.63055  0.34910  0.47272  1.0000
  Fe  Fe51      1.0  0.60401  0.23304  0.33445  1.0000
  S   S94       1.0  0.02065  0.41303  0.45050  1.0000
  H   H395      1.0  0.60573  0.38139  0.30863  1.0000
  H   H396      1.0  0.75318  0.33435  0.30652  1.0000
  S   S95       1.0  0.69994  0.25975  0.30375  1.0000
  S   S96       1.0  0.07453  0.41784  0.32570  1.0000
  H   H397      1.0  0.70984  0.38505  0.33811  1.0000
  S   S97       1.0  0.67351  0.34909  0.22237  1.0000
  C   C245      1.0  0.96675  0.64514  0.73710  1.0000
  H   H398      1.0  0.73348  0.45180  0.85392  1.0000
  S   S98       1.0  0.96908  0.56805  0.62177  1.0000
  H   H399      1.0  0.76819  0.62717  0.82075  1.0000
  S   S99       1.0  0.76573  0.45122  0.73285  1.0000
  N   N27       1.0  0.70386  0.57910  0.81746  1.0000
  Fe  Fe52      1.0  0.97646  0.51229  0.64943  1.0000
  H   H400      1.0  0.77999  0.59128  0.86785  1.0000
  H   H401      1.0  0.77989  0.55404  0.79543  1.0000
  H   H402      1.0  0.76820  0.58999  0.74842  1.0000
  H   H403      1.0  0.01663  0.57476  0.78667  1.0000
  Fe  Fe53      1.0  0.84190  0.49313  0.69137  1.0000
  S   S100      1.0  0.88924  0.48942  0.61298  1.0000
  H   H404      1.0  0.66581  0.52314  0.60791  1.0000
  H   H405      1.0  0.05349  0.63335  0.81885  1.0000
  H   H406      1.0  0.93225  0.66936  0.80163  1.0000
  H   H407      1.0  0.83931  0.47983  0.81837  1.0000
  C   C246      1.0  0.70013  0.46819  0.71244  1.0000
  S   S101      1.0  0.92994  0.51182  0.73019  1.0000
  C   C247      1.0  0.61162  0.49443  0.73626  1.0000
  H   H408      1.0  0.98187  0.68780  0.57595  1.0000
  C   C248      1.0  0.66128  0.50834  0.64726  1.0000
  H   H409      1.0  0.65127  0.45838  0.79009  1.0000
  Fe  Fe54      1.0  0.91392  0.56543  0.69913  1.0000
  H   H410      1.0  0.85057  0.50339  0.87494  1.0000
  H   H411      1.0  0.71525  0.54894  0.75296  1.0000
  H   H412      1.0  0.73770  0.48230  0.63114  1.0000
  H   H413      1.0  0.01185  0.62825  0.66998  1.0000
  H   H414      1.0  0.62647  0.57886  0.76711  1.0000
  C   C249      1.0  0.05916  0.67865  0.68631  1.0000
  C   C250      1.0  0.74341  0.56743  0.77684  1.0000
  H   H415      1.0  0.64238  0.52919  0.83309  1.0000
  H   H416      1.0  0.90529  0.47652  0.85749  1.0000
  C   C251      1.0  0.85491  0.47829  0.85982  1.0000
  H   H417      1.0  0.67835  0.62012  0.76291  1.0000
  C   C252      1.0  0.67237  0.54845  0.85451  1.0000
  C   C253      1.0  0.65632  0.59669  0.79088  1.0000
  H   H418      1.0  0.62482  0.60537  0.82037  1.0000
  C   C254      1.0  0.02785  0.45405  0.82017  1.0000
  C   C255      1.0  0.01191  0.64880  0.69486  1.0000
  C   C256      1.0  0.06690  0.57420  0.77812  1.0000
  C   C257      1.0  0.70198  0.48513  0.66046  1.0000
  C   C258      1.0  0.65310  0.47146  0.74982  1.0000
  C   C259      1.0  0.61792  0.51412  0.68577  1.0000
  S   S102      1.0  0.82227  0.54707  0.66612  1.0000
  C   C260      1.0  0.96735  0.67192  0.76924  1.0000
  S   S103      1.0  0.91235  0.60635  0.75386  1.0000
  Fe  Fe55      1.0  0.87836  0.54513  0.59117  1.0000
  S   S104      1.0  0.06161  0.48816  0.63641  1.0000
  C   C261      1.0  0.74345  0.60378  0.84756  1.0000
  C   C262      1.0  0.02441  0.45503  0.87528  1.0000
  H   H419      1.0  0.03529  0.58005  0.88124  1.0000
  H   H420      1.0  0.70688  0.53468  0.87539  1.0000
  H   H421      1.0  0.71533  0.61302  0.87887  1.0000
  H   H422      1.0  0.07182  0.54623  0.77927  1.0000
  C   C263      1.0  0.08239  0.46963  0.78966  1.0000
  H   H423      1.0  0.08281  0.54736  0.87675  1.0000
  H   H424      1.0  0.64194  0.55629  0.88568  1.0000
  H   H425      1.0  0.08527  0.46823  0.74727  1.0000
  H   H426      1.0  0.08258  0.56049  0.65317  1.0000
  C   C264      1.0  0.08352  0.57595  0.87151  1.0000
  H   H427      1.0  0.07956  0.58718  0.73676  1.0000
  C   C265      1.0  0.83916  0.44677  0.94883  1.0000
  H   H428      1.0  0.83364  0.47077  0.96662  1.0000
  H   H429      1.0  0.07089  0.47501  0.94175  1.0000
  C   C266      1.0  0.96867  0.53506  0.01538  1.0000
  H   H430      1.0  0.96442  0.61242  0.00378  1.0000
  S   S105      1.0  0.68053  0.52554  0.08244  1.0000
  H   H431      1.0  0.92842  0.52799  0.93988  1.0000
  C   C267      1.0  0.90293  0.55439  0.08114  1.0000
  H   H432      1.0  0.82671  0.50404  0.17775  1.0000
  C   C268      1.0  0.92154  0.53570  0.97905  1.0000
  N   N28       1.0  0.81766  0.44796  0.89402  1.0000
  C   C269      1.0  0.77163  0.66399  0.20976  1.0000
  H   H433      1.0  0.89552  0.56189  0.12046  1.0000
  H   H434      1.0  0.81150  0.56091  0.05781  1.0000
  H   H435      1.0  0.04307  0.60381  0.00391  1.0000
  C   C270      1.0  0.77024  0.62822  0.20803  1.0000
  Fe  Fe56      1.0  0.59044  0.49863  0.05483  1.0000
  H   H436      1.0  0.60850  0.50293  0.18991  1.0000
  H   H437      1.0  0.88935  0.44467  0.94973  1.0000
  Fe  Fe57      1.0  0.68462  0.47237  0.12431  1.0000
  H   H438      1.0  0.94257  0.66877  0.02870  1.0000
  C   C271      1.0  0.86425  0.54421  0.99491  1.0000
  H   H439      1.0  0.05105  0.61673  0.09726  1.0000
  S   S106      1.0  0.80057  0.53808  0.95499  1.0000
  H   H440      1.0  0.74373  0.47571  0.91037  1.0000
  H   H441      1.0  0.81569  0.68157  0.20970  1.0000
  C   C272      1.0  0.02175  0.63708  0.08757  1.0000
  S   S107      1.0  0.73725  0.45658  0.05599  1.0000
  S   S108      1.0  0.63211  0.48505  0.97948  1.0000
  S   S109      1.0  0.70751  0.46266  0.20975  1.0000
  C   C273      1.0  0.07461  0.47310  0.89955  1.0000
  C   C274      1.0  0.71282  0.60556  0.20847  1.0000
  C   C275      1.0  0.95873  0.54388  0.06674  1.0000
  N   N29       1.0  0.03191  0.65236  0.03102  1.0000
  S   S110      1.0  0.01398  0.54084  0.11448  1.0000
  H   H442      1.0  0.89703  0.49448  0.14836  1.0000
  H   H443      1.0  0.01199  0.52708  0.00414  1.0000
  H   H444      1.0  0.02225  0.63537  0.95351  1.0000
  Fe  Fe58      1.0  0.72294  0.50731  0.01114  1.0000
  C   C276      1.0  0.01451  0.62473  0.99646  1.0000
  C   C277      1.0  0.65684  0.61839  0.21311  1.0000
  H   H445      1.0  0.97215  0.62455  0.09783  1.0000
  H   H446      1.0  0.98306  0.48514  0.20097  1.0000
  H   H447      1.0  0.03439  0.65751  0.11426  1.0000
  C   C278      1.0  0.65830  0.65428  0.21402  1.0000
  C   C279      1.0  0.85538  0.55395  0.04562  1.0000
  H   H448      1.0  0.61276  0.60047  0.21559  1.0000
  C   C280      1.0  0.99319  0.67969  0.02054  1.0000
  C   C281      1.0  0.86264  0.48705  0.18299  1.0000
  H   H449      1.0  0.83927  0.45963  0.18057  1.0000
  C   C282      1.0  0.75107  0.45125  0.89470  1.0000
  S   S111      1.0  0.83948  0.61112  0.21013  1.0000
  C   C283      1.0  0.71572  0.67711  0.21155  1.0000
  H   H450      1.0  0.71154  0.57791  0.20656  1.0000
  H   H451      1.0  0.94640  0.54145  0.20704  1.0000
  S   S112      1.0  0.59118  0.44671  0.10180  1.0000
  H   H452      1.0  0.00036  0.69226  0.97842  1.0000
  S   S113      1.0  0.58884  0.67084  0.21935  1.0000
  H   H453      1.0  0.05921  0.64848  0.50929  1.0000
  H   H454      1.0  0.93352  0.59838  0.41090  1.0000
  H   H455      1.0  0.90914  0.66146  0.45281  1.0000
  C   C284      1.0  0.91319  0.52764  0.24018  1.0000
  C   C285      1.0  0.84823  0.47354  0.27868  1.0000
  H   H456      1.0  0.97203  0.47425  0.27150  1.0000
  H   H457      1.0  0.98247  0.63109  0.54015  1.0000
  C   C286      1.0  0.93564  0.57083  0.41873  1.0000
  H   H458      1.0  0.07266  0.54863  0.55288  1.0000
  H   H459      1.0  0.77406  0.46371  0.45309  1.0000
  H   H460      1.0  0.69070  0.45314  0.32273  1.0000
  H   H461      1.0  0.87290  0.54165  0.24055  1.0000
  H   H462      1.0  0.79312  0.54835  0.41168  1.0000
  H   H463      1.0  0.86935  0.47600  0.31776  1.0000
  H   H464      1.0  0.94523  0.47223  0.44649  1.0000
  H   H465      1.0  0.99759  0.63067  0.47014  1.0000
  H   H466      1.0  0.71432  0.62490  0.38011  1.0000
  S   S114      1.0  0.02891  0.50343  0.35593  1.0000
  H   H467      1.0  0.08172  0.59333  0.28880  1.0000
  S   S115      1.0  0.92247  0.66147  0.31906  1.0000
  H   H468      1.0  0.61496  0.47104  0.38526  1.0000
  C   C287      1.0  0.92277  0.67698  0.48611  1.0000
  H   H469      1.0  0.89551  0.66285  0.52278  1.0000
  C   C288      1.0  0.78628  0.57481  0.39405  1.0000
  S   S116      1.0  0.08150  0.63540  0.37487  1.0000
  H   H470      1.0  0.73508  0.52479  0.33755  1.0000
  C   C289      1.0  0.71810  0.60863  0.34728  1.0000
  H   H471      1.0  0.82674  0.58609  0.36530  1.0000
  C   C290      1.0  0.67474  0.55630  0.40695  1.0000
  C   C291      1.0  0.97229  0.55588  0.38450  1.0000
  S   S117      1.0  0.65554  0.45051  0.51256  1.0000
  H   H472      1.0  0.75804  0.62231  0.31951  1.0000
  C   C292      1.0  0.97721  0.52062  0.39529  1.0000
  Fe  Fe59      1.0  0.02159  0.65340  0.31145  1.0000
  N   N30       1.0  0.72667  0.57289  0.36788  1.0000
  C   C293      1.0  0.61348  0.47803  0.34261  1.0000
  C   C294      1.0  0.94795  0.47273  0.23383  1.0000
  H   H473      1.0  0.78784  0.59145  0.42696  1.0000
  C   C295      1.0  0.65609  0.46777  0.30745  1.0000
  H   H474      1.0  0.93737  0.53078  0.27776  1.0000
  C   C296      1.0  0.61029  0.49612  0.23246  1.0000
  C   C297      1.0  0.90550  0.51460  0.47264  1.0000
  C   C298      1.0  0.72810  0.55175  0.32328  1.0000
  S   S118      1.0  0.01488  0.63620  0.23023  1.0000
  C   C299      1.0  0.00830  0.64632  0.50369  1.0000
  H   H475      1.0  0.05623  0.51529  0.50976  1.0000
  H   H476      1.0  0.68380  0.54969  0.30236  1.0000
  H   H477      1.0  0.67401  0.57074  0.44229  1.0000
  H   H478      1.0  0.80587  0.48587  0.27871  1.0000
  N   N31       1.0  0.89304  0.49027  0.23389  1.0000
  H   H479      1.0  0.76683  0.56346  0.29317  1.0000
  N   N32       1.0  0.99072  0.68123  0.49276  1.0000
  H   H480      1.0  0.99785  0.57188  0.35027  1.0000
  H   H481      1.0  0.87757  0.49824  0.50521  1.0000
  H   H482      1.0  0.04216  0.55861  0.48903  1.0000
  Fe  Fe60      1.0  0.91905  0.64951  0.23426  1.0000
  C   C300      1.0  0.65418  0.47646  0.25244  1.0000
  H   H483      1.0  0.67503  0.60808  0.32487  1.0000
  C   C301      1.0  0.90370  0.55041  0.46375  1.0000
  H   H484      1.0  0.62891  0.55558  0.38885  1.0000
  C   C302      1.0  0.94261  0.49970  0.43862  1.0000
  H   H485      1.0  0.67850  0.52876  0.42186  1.0000
  S   S119      1.0  0.86344  0.57002  0.50953  1.0000
  H   H486      1.0  0.83226  0.44519  0.27566  1.0000
  C   C303      1.0  0.07471  0.54362  0.51059  1.0000
  H   H487      1.0  0.01190  0.68640  0.40816  1.0000
  H   H488      1.0  0.93450  0.44465  0.22849  1.0000
  Fe  Fe61      1.0  0.01372  0.44523  0.37241  1.0000
  H   H489      1.0  0.01790  0.89869  0.73570  1.0000
  H   H490      1.0  0.91964  0.89872  0.78768  1.0000
  H   H491      1.0  0.62692  0.88098  0.62891  1.0000
  C   C304      1.0  0.75716  0.93291  0.63739  1.0000
  S   S120      1.0  0.66854  0.82432  0.87083  1.0000
  H   H492      1.0  0.98226  0.88411  0.60997  1.0000
  S   S121      1.0  0.81972  0.84619  0.83292  1.0000
  H   H493      1.0  0.90373  0.91769  0.63326  1.0000
  C   C305      1.0  0.06148  0.70447  0.72054  1.0000
  C   C306      1.0  0.73458  0.90498  0.67688  1.0000
  H   H494      1.0  0.58804  0.88187  0.56832  1.0000
  C   C307      1.0  0.01837  0.90834  0.60649  1.0000
  C   C308      1.0  0.01286  0.92104  0.75582  1.0000
  C   C309      1.0  0.76561  0.86442  0.62020  1.0000
  C   C310      1.0  0.60416  0.89780  0.60016  1.0000
  C   C311      1.0  0.95742  0.92074  0.78599  1.0000
  Fe  Fe62      1.0  0.72766  0.85096  0.79824  1.0000
  H   H495      1.0  0.93739  0.82074  0.56853  1.0000
  H   H496      1.0  0.99431  0.87237  0.85904  1.0000
  H   H497      1.0  0.03981  0.90944  0.64550  1.0000
  S   S122      1.0  0.72742  0.90500  0.81909  1.0000
  H   H498      1.0  0.71156  0.90989  0.71286  1.0000
  C   C312      1.0  0.01467  0.70151  0.76100  1.0000
  H   H499      1.0  0.01541  0.72188  0.78657  1.0000
  C   C313      1.0  0.78466  0.92668  0.58957  1.0000
  H   H500      1.0  0.76843  0.83789  0.61341  1.0000
  C   C314      1.0  0.78930  0.89250  0.58090  1.0000
  S   S123      1.0  0.70748  0.83582  0.71707  1.0000
  Fe  Fe63      1.0  0.81405  0.89827  0.86008  1.0000
  C   C315      1.0  0.73880  0.87073  0.66849  1.0000
  H   H501      1.0  0.59937  0.91914  0.69829  1.0000
  H   H502      1.0  0.87436  0.78249  0.88181  1.0000
  H   H503      1.0  0.64044  0.92002  0.58145  1.0000
  S   S124      1.0  0.07046  0.82995  0.57678  1.0000
  H   H504      1.0  0.05589  0.90548  0.57713  1.0000
  N   N33       1.0  0.99156  0.93993  0.59042  1.0000
  C   C316      1.0  0.93995  0.94191  0.62903  1.0000
  H   H505      1.0  0.98653  0.77744  0.88771  1.0000
  H   H506      1.0  0.95018  0.80764  0.21292  1.0000
  C   C317      1.0  0.81534  0.84009  0.20735  1.0000
  H   H507      1.0  0.97479  0.89261  0.91579  1.0000
  S   S125      1.0  0.76383  0.87550  0.93841  1.0000
  C   C318      1.0  0.87896  0.76738  0.01669  1.0000
  Fe  Fe64      1.0  0.67707  0.87817  0.89497  1.0000
  H   H508      1.0  0.96141  0.76170  0.05884  1.0000
  S   S126      1.0  0.60112  0.90380  0.92560  1.0000
  C   C319      1.0  0.89341  0.77790  0.92037  1.0000
  H   H509      1.0  0.58920  0.77304  0.95089  1.0000
  H   H510      1.0  0.05558  0.84790  0.98985  1.0000
  H   H511      1.0  0.71688  0.70480  0.21252  1.0000
  H   H512      1.0  0.88596  0.83944  0.11798  1.0000
  Fe  Fe65      1.0  0.76066  0.82385  0.90757  1.0000
  H   H513      1.0  0.00544  0.70090  0.04626  1.0000
  N   N34       1.0  0.85660  0.81488  0.19770  1.0000
  H   H514      1.0  0.94315  0.90466  0.01638  1.0000
  H   H515      1.0  0.71547  0.92413  0.99480  1.0000
  C   C320      1.0  0.85458  0.77421  0.96701  1.0000
  S   S127      1.0  0.94934  0.70516  0.19586  1.0000
  H   H516      1.0  0.04697  0.89269  0.99204  1.0000
  C   C321      1.0  0.94246  0.76594  0.02010  1.0000
  H   H517      1.0  0.94133  0.85237  0.19931  1.0000
  S   S128      1.0  0.94100  0.91177  0.12816  1.0000
  C   C322      1.0  0.95670  0.77482  0.92369  1.0000
  N   N35       1.0  0.06737  0.87999  0.91370  1.0000
  C   C323      1.0  0.07347  0.87551  0.97200  1.0000
  H   H518      1.0  0.97685  0.84678  0.92300  1.0000
  H   H519      1.0  0.07930  0.82782  0.90367  1.0000
  S   S129      1.0  0.06129  0.77005  0.98069  1.0000
  H   H520      1.0  0.83531  0.86684  0.18732  1.0000
  S   S130      1.0  0.77563  0.77820  0.96474  1.0000
  H   H521      1.0  0.07301  0.93594  0.90860  1.0000
  C   C324      1.0  0.86487  0.81335  0.13975  1.0000
  H   H522      1.0  0.84882  0.76381  0.05262  1.0000
  C   C325      1.0  0.95588  0.93215  0.02078  1.0000
  C   C326      1.0  0.98140  0.76963  0.97376  1.0000
  Fe  Fe66      1.0  0.96812  0.93336  0.20449  1.0000
  H   H523      1.0  0.89630  0.79475  0.13127  1.0000
  C   C327      1.0  0.00052  0.87269  0.90239  1.0000
  H   H524      1.0  0.81950  0.80467  0.12221  1.0000
  H   H525      1.0  0.76841  0.83229  0.19198  1.0000
  H   H526      1.0  0.85856  0.76015  0.21876  1.0000
  H   H527      1.0  0.78183  0.77021  0.20985  1.0000
  Fe  Fe67      1.0  0.04626  0.69296  0.19988  1.0000
  C   C328      1.0  0.91807  0.82625  0.21902  1.0000
  S   S131      1.0  0.93892  0.76274  0.31516  1.0000
  H   H528      1.0  0.90794  0.70282  0.47707  1.0000
  C   C329      1.0  0.73864  0.91987  0.42739  1.0000
  C   C330      1.0  0.02612  0.80573  0.36322  1.0000
  C   C331      1.0  0.05722  0.79311  0.27576  1.0000
  C   C332      1.0  0.01625  0.87777  0.43961  1.0000
  H   H529      1.0  0.99070  0.80408  0.39512  1.0000
  C   C333      1.0  0.01137  0.79017  0.31730  1.0000
  H   H530      1.0  0.77064  0.90043  0.43010  1.0000
  H   H531      1.0  0.92884  0.91535  0.53670  1.0000
  H   H532      1.0  0.82200  0.77992  0.26877  1.0000
  H   H533      1.0  0.91369  0.82803  0.26264  1.0000
  H   H534      1.0  0.73919  0.93137  0.46546  1.0000
  H   H535      1.0  0.00432  0.93565  0.50671  1.0000
  H   H536      1.0  0.03829  0.89337  0.40350  1.0000
  H   H537      1.0  0.87247  0.84108  0.49699  1.0000
  H   H538      1.0  0.69868  0.91991  0.32742  1.0000
  S   S132      1.0  0.05921  0.70889  0.28080  1.0000
  H   H539      1.0  0.69065  0.90524  0.42466  1.0000
  Fe  Fe68      1.0  0.96011  0.71598  0.28038  1.0000
  H   H540      1.0  0.99483  0.72795  0.53098  1.0000
  C   C334      1.0  0.05300  0.86583  0.47997  1.0000
  C   C335      1.0  0.02487  0.70017  0.44328  1.0000
  H   H541      1.0  0.80881  0.84199  0.25076  1.0000
  S   S133      1.0  0.02483  0.90875  0.26584  1.0000
  H   H542      1.0  0.04583  0.78168  0.23962  1.0000
  H   H543      1.0  0.77573  0.90960  0.33010  1.0000
  H   H544      1.0  0.01447  0.72713  0.43458  1.0000
  H   H545      1.0  0.05786  0.70466  0.54422  1.0000
  C   C336      1.0  0.02471  0.84486  0.52617  1.0000
  C   C337      1.0  0.95955  0.83663  0.53266  1.0000
  C   C338      1.0  0.92286  0.84815  0.49219  1.0000
  S   S134      1.0  0.90368  0.88199  0.39523  1.0000
  Fe  Fe69      1.0  0.95384  0.91884  0.32622  1.0000
  C   C339      1.0  0.74866  0.93120  0.33128  1.0000
  C   C340      1.0  0.00691  0.70129  0.53793  1.0000
  H   H546      1.0  0.81028  0.88762  0.54364  1.0000
  C   C341      1.0  0.95108  0.86847  0.44542  1.0000
  S   S135      1.0  0.89274  0.93750  0.26416  1.0000
  H   H547      1.0  0.58971  0.86202  0.47849  1.0000
  H   H548      1.0  0.07631  0.70225  0.44591  1.0000
  C   C342      1.0  0.96730  0.93822  0.53677  1.0000
  C   C343      1.0  0.82831  0.77976  0.22484  1.0000
  H   H549      1.0  0.95691  0.94541  0.66922  1.0000
  H   H550      1.0  0.04815  0.09815  0.81285  1.0000
  C   C344      1.0  0.05613  0.97750  0.78181  1.0000
  H   H551      1.0  0.91631  0.96433  0.61629  1.0000
  C   C345      1.0  0.89919  0.06749  0.57869  1.0000
  H   H552      1.0  0.05815  0.08440  0.69434  1.0000
  S   S136      1.0  0.72939  0.02968  0.61516  1.0000
  Fe  Fe70      1.0  0.63786  0.03040  0.57753  1.0000
  C   C346      1.0  0.07850  0.11730  0.78242  1.0000
  H   H553      1.0  0.75368  0.95927  0.64427  1.0000
  H   H554      1.0  0.93077  0.15647  0.75835  1.0000
  H   H555      1.0  0.05427  0.05326  0.75315  1.0000
  H   H556      1.0  0.78463  0.10817  0.71101  1.0000
  H   H557      1.0  0.86721  0.11052  0.71246  1.0000
  H   H558      1.0  0.99625  0.99857  0.83436  1.0000
  C   C347      1.0  0.90405  0.10351  0.57918  1.0000
  H   H559      1.0  0.61618  0.09643  0.73909  1.0000
  H   H560      1.0  0.04778  0.12964  0.75485  1.0000
  S   S137      1.0  0.83521  0.12028  0.58786  1.0000
  C   C348      1.0  0.95196  0.94837  0.81522  1.0000
  H   H561      1.0  0.07916  0.97154  0.55897  1.0000
  C   C349      1.0  0.77553  0.15634  0.77724  1.0000
  C   C350      1.0  0.84167  0.17552  0.69660  1.0000
  Fe  Fe71      1.0  0.76269  0.07909  0.55956  1.0000
  H   H562      1.0  0.80096  0.17062  0.67141  1.0000
  H   H563      1.0  0.61226  0.95593  0.64669  1.0000
  S   S138      1.0  0.63030  0.10070  0.86647  1.0000
  H   H564      1.0  0.88134  0.14199  0.81824  1.0000
  C   C351      1.0  0.00086  0.97702  0.81225  1.0000
  H   H565      1.0  0.76583  0.13778  0.81465  1.0000
  H   H566      1.0  0.58880  0.05682  0.71084  1.0000
  C   C352      1.0  0.94913  0.05373  0.55926  1.0000
  H   H567      1.0  0.78070  0.18312  0.78906  1.0000
  C   C353      1.0  0.88691  0.15960  0.77970  1.0000
  H   H568      1.0  0.88340  0.17207  0.67235  1.0000
  H   H569      1.0  0.81850  0.09616  0.77293  1.0000
  H   H570      1.0  0.06174  0.97261  0.62875  1.0000
  N   N36       1.0  0.83237  0.15159  0.74723  1.0000
  H   H571      1.0  0.85581  0.05006  0.59081  1.0000
  C   C354      1.0  0.04077  0.97127  0.58940  1.0000
  C   C355      1.0  0.96177  0.12558  0.56550  1.0000
  H   H572      1.0  0.73366  0.15230  0.75328  1.0000
  C   C356      1.0  0.82536  0.11496  0.73554  1.0000
  C   C357      1.0  0.06215  0.94949  0.75364  1.0000
  S   S139      1.0  0.88640  0.94662  0.85826  1.0000
  H   H573      1.0  0.96585  0.15355  0.56577  1.0000
  Fe  Fe72      1.0  0.62144  0.15448  0.88392  1.0000
  H   H574      1.0  0.89320  0.18706  0.78942  1.0000
  H   H575      1.0  0.02175  0.99563  0.57989  1.0000
  C   C358      1.0  0.08670  0.07291  0.72498  1.0000
  S   S140      1.0  0.60217  0.19223  0.81541  1.0000
  H   H576      1.0  0.94252  0.02612  0.55522  1.0000
  H   H577      1.0  0.98149  0.94841  0.93716  1.0000
  H   H578      1.0  0.89532  0.16646  0.08821  1.0000
  N   N37       1.0  0.82533  0.12547  0.12952  1.0000
  H   H579      1.0  0.74508  0.95886  0.90677  1.0000
  Fe  Fe73      1.0  0.64065  0.13748  0.00166  1.0000
  H   H580      1.0  0.84410  0.14741  0.20235  1.0000
  S   S141      1.0  0.79732  0.08792  0.89636  1.0000
  H   H581      1.0  0.82136  0.16012  0.05767  1.0000
  S   S142      1.0  0.07363  0.11988  0.92379  1.0000
  H   H582      1.0  0.83981  0.96988  0.02464  1.0000
  C   C359      1.0  0.79299  0.98737  0.15749  1.0000
  H   H583      1.0  0.82712  0.07121  0.12405  1.0000
  H   H584      1.0  0.73300  0.11482  0.10182  1.0000
  C   C360      1.0  0.74070  0.98247  0.92638  1.0000
  H   H585      1.0  0.82930  0.18113  0.11678  1.0000
  C   C361      1.0  0.99793  0.99185  0.98211  1.0000
  H   H586      1.0  0.79944  0.96864  0.13040  1.0000
  Fe  Fe74      1.0  0.70976  0.10626  0.91972  1.0000
  H   H587      1.0  0.62746  0.08514  0.10597  1.0000
  H   H588      1.0  0.77106  0.00530  0.90225  1.0000
  S   S143      1.0  0.00637  0.15646  0.03625  1.0000
  C   C362      1.0  0.84390  0.15980  0.09650  1.0000
  S   S144      1.0  0.65181  0.08226  0.99435  1.0000
  H   H589      1.0  0.82510  0.09754  0.06114  1.0000
  S   S145      1.0  0.66972  0.97438  0.13654  1.0000
  H   H590      1.0  0.97293  0.08694  0.00966  1.0000
  H   H591      1.0  0.85684  0.99362  0.95886  1.0000
  S   S146      1.0  0.04333  0.01971  0.93019  1.0000
  H   H592      1.0  0.99884  0.03058  0.03581  1.0000
  H   H593      1.0  0.69138  0.98638  0.92406  1.0000
  C   C363      1.0  0.84417  0.09754  0.10138  1.0000
  C   C364      1.0  0.75683  0.11844  0.13941  1.0000
  S   S147      1.0  0.64066  0.16020  0.07883  1.0000
  C   C365      1.0  0.97796  0.95666  0.97614  1.0000
  C   C366      1.0  0.96572  0.97885  0.07609  1.0000
  H   H594      1.0  0.74018  0.14079  0.15527  1.0000
  C   C367      1.0  0.59643  0.13076  0.12983  1.0000
  C   C368      1.0  0.71633  0.94859  0.01317  1.0000
  C   C369      1.0  0.75437  0.01068  0.00621  1.0000
  S   S148      1.0  0.70618  0.16178  0.93153  1.0000
  C   C370      1.0  0.73428  0.99622  0.16595  1.0000
  H   H595      1.0  0.83196  0.15894  0.92056  1.0000
  C   C371      1.0  0.85652  0.10764  0.93352  1.0000
  H   H596      1.0  0.70581  0.01600  0.00658  1.0000
  H   H597      1.0  0.89465  0.06052  0.95129  1.0000
  C   C372      1.0  0.94705  0.13790  0.99811  1.0000
  C   C373      1.0  0.86159  0.14295  0.94092  1.0000
  H   H598      1.0  0.82860  0.94749  0.96673  1.0000
  H   H599      1.0  0.95945  0.98783  0.11408  1.0000
  C   C374      1.0  0.89748  0.08766  0.95756  1.0000
  C   C375      1.0  0.90708  0.15817  0.97305  1.0000
  H   H600      1.0  0.78529  0.03382  0.98384  1.0000
  C   C376      1.0  0.82378  0.97210  0.98332  1.0000
  H   H601      1.0  0.89592  0.10084  0.09613  1.0000
  C   C377      1.0  0.94198  0.10265  0.99047  1.0000
  N   N38       1.0  0.75882  0.97844  0.98224  1.0000
  H   H602      1.0  0.90790  0.13083  0.17389  1.0000
  H   H603      1.0  0.76805  0.00857  0.04821  1.0000
  C   C378      1.0  0.85614  0.12627  0.18054  1.0000
  C   C379      1.0  0.98803  0.00321  0.03152  1.0000
  H   H604      1.0  0.66740  0.95337  0.01538  1.0000
  C   C380      1.0  0.84279  0.00113  0.18659  1.0000
  Fe  Fe75      1.0  0.08497  0.13258  0.00737  1.0000
  H   H605      1.0  0.74038  0.09462  0.16835  1.0000
  H   H606      1.0  0.07260  0.95335  0.11399  1.0000
  H   H607      1.0  0.88764  0.99365  0.18066  1.0000
  S   S149      1.0  0.01922  0.98807  0.20601  1.0000
  H   H608      1.0  0.84184  0.10120  0.20718  1.0000
  H   H609      1.0  0.91208  0.18570  0.97757  1.0000
  H   H610      1.0  0.73058  0.94373  0.05479  1.0000
  C   C381      1.0  0.59917  0.09508  0.13437  1.0000
  H   H611      1.0  0.68246  0.02920  0.20521  1.0000
  C   C382      1.0  0.72674  0.02064  0.20089  1.0000
  Fe  Fe76      1.0  0.58912  0.96396  0.19759  1.0000
  C   C383      1.0  0.95333  0.94309  0.07136  1.0000
  H   H612      1.0  0.62747  0.11243  0.42448  1.0000
  H   H613      1.0  0.83129  0.97489  0.42194  1.0000
  C   C384      1.0  0.82340  0.96328  0.38409  1.0000
  C   C385      1.0  0.94253  0.06285  0.39367  1.0000
  Fe  Fe77      1.0  0.94727  0.99089  0.26969  1.0000
  S   S150      1.0  0.79312  0.05267  0.49125  1.0000
  S   S151      1.0  0.66004  0.99820  0.51445  1.0000
  H   H614      1.0  0.93599  0.11014  0.46016  1.0000
  C   C386      1.0  0.92492  0.11829  0.41854  1.0000
  C   C387      1.0  0.00567  0.07572  0.54245  1.0000
  H   H615      1.0  0.81273  0.16137  0.33418  1.0000
  H   H616      1.0  0.94817  0.14014  0.31464  1.0000
  H   H617      1.0  0.96496  0.09973  0.29531  1.0000
  C   C388      1.0  0.75107  0.11163  0.35547  1.0000
  N   N39       1.0  0.95828  0.10132  0.37997  1.0000
  Fe  Fe78      1.0  0.06914  0.96436  0.27236  1.0000
  H   H618      1.0  0.93736  0.14734  0.41087  1.0000
  H   H619      1.0  0.76367  0.95091  0.29559  1.0000
  S   S152      1.0  0.89393  0.03516  0.26686  1.0000
  H   H620      1.0  0.66899  0.13526  0.22640  1.0000
  C   C389      1.0  0.77623  0.03369  0.23110  1.0000
  S   S153      1.0  0.76891  0.19190  0.23661  1.0000
  H   H621      1.0  0.96694  0.04920  0.36533  1.0000
  C   C390      1.0  0.70061  0.08826  0.34033  1.0000
  S   S154      1.0  0.66846  0.08241  0.52785  1.0000
  C   C391      1.0  0.93917  0.11123  0.32562  1.0000
  H   H622      1.0  0.66780  0.96358  0.38320  1.0000
  H   H623      1.0  0.04198  0.10670  0.42300  1.0000
  C   C392      1.0  0.71848  0.97461  0.38213  1.0000
  H   H624      1.0  0.89149  0.05318  0.39208  1.0000
  H   H625      1.0  0.63335  0.07820  0.28131  1.0000
  H   H626      1.0  0.72913  0.99453  0.34617  1.0000
  C   C393      1.0  0.69351  0.12827  0.26127  1.0000
  C   C394      1.0  0.77420  0.14298  0.32233  1.0000
  H   H627      1.0  0.77094  0.10585  0.39320  1.0000
  C   C395      1.0  0.02642  0.11291  0.38212  1.0000
  H   H628      1.0  0.61492  0.13339  0.35997  1.0000
  C   C396      1.0  0.74468  0.15145  0.27558  1.0000
  H   H629      1.0  0.83867  0.98434  0.35043  1.0000
  Fe  Fe79      1.0  0.69573  0.04991  0.46644  1.0000
  C   C397      1.0  0.83398  0.02326  0.22472  1.0000
  H   H630      1.0  0.72651  0.98869  0.41757  1.0000
  H   H631      1.0  0.95616  0.05442  0.43456  1.0000
  H   H632      1.0  0.05316  0.09973  0.35478  1.0000
  H   H633      1.0  0.76896  0.05094  0.26037  1.0000
  H   H634      1.0  0.88838  0.10155  0.32206  1.0000
  S   S155      1.0  0.00215  0.97285  0.33722  1.0000
  N   N40       1.0  0.75722  0.94719  0.38123  1.0000
  C   C398      1.0  0.67290  0.09615  0.29263  1.0000
  H   H635      1.0  0.87353  0.11106  0.41673  1.0000
  H   H636      1.0  0.04040  0.14168  0.37064  1.0000
  S   S156      1.0  0.66726  0.05074  0.38275  1.0000
  Fe  Fe80      1.0  0.75551  0.00362  0.54508  1.0000
  H   H637      1.0  0.85439  0.94363  0.38258  1.0000
  H   H638      1.0  0.05667  0.12871  0.53467  1.0000
  S   S157      1.0  0.81263  0.96165  0.54051  1.0000
  H   H639      1.0  0.60847  0.15522  0.41756  1.0000
  S   S158      1.0  0.06314  0.05772  0.51081  1.0000
  S   S159      1.0  0.59682  0.98533  0.27592  1.0000
  C   C399      1.0  0.01298  0.11156  0.54739  1.0000
  C   C400      1.0  0.59839  0.12944  0.40268  1.0000
  H   H640      1.0  0.94822  0.96213  0.52277  1.0000
  S   S160      1.0  0.59635  0.19153  0.28036  1.0000
