data_image0
_chemical_formula_structural       SCFeSC4H2CH9NCH3FeSC2SCHFeSH4SHNCFeHSC2H4CHSH2C2FeHCHFeHFeSHC2S2HSH5CH4CHCSCSHC3HCHSC2SCNCH2FeH2CSCSC3H2CNHCH3S2H2FeHSCHC2HC2H3CH2C3FeH2CH2CHCHS2HSFeCHNH2CH2CH2CH7NCHFe2H3CHC3H2SC2SNHFeCHSHCH3SHC2FeHSCHSC6HSH2FeSNCH2CH2CSHFeSCH7S2H3CH3CH3NH2C2HCHSFeHC2HCSCH3CHNHFeHC2HSHCHSH2SCSH2CFeH2CHC2H2FeCH3NCSC2H2C3HCH2FeH2SH3CHSCNHFeSH2CFeSC6H4S2NHC2H3CHCHFeH4FeH2C5S2C3HCH3SH3SCH3C2H3CSFeSCNC4FeC2H2CH4C2HSH10CHCH3NH3C2HCH2CFeSH3SHSCFeHFeCSCFeCHNH2CH2C2HCHCH2SC2H3SH4S2C3H2CSHSHFeC3H5SH3SH2SHC6HCH3CNCH2CFeSH4FeSHCH4SH2CFeH2CHC2H2C2H3CNHC2SHCHSHSCH4C6HC3HNFeH2SH7S3H2SCH2CH2CH2C2H2SCNHCHCH2CFeHCFeCH4C2NSHC2H2S2H2CHCH2C2H3CFeHFeHS2C2SH2C2H2CFeNC2HCH4CSH3FeH3CH9CSH3C2NS2C6H3CFeSFeSCHCH2FeHC2HNHCHSHFeHCH3CH2SC3H3CH6CHCNCH2SFeH2SH2SHFeHCH2CHC2HSCSHC2FeH2C2SHC2S2CH4NC2H5SHCFeH3CNHSH2CH3C3HC2H3CHCH2SCH2CH2NC2HCH2FeSH2C2H2CH2CHS3FeH2CH3SCFeH3FeS2FeSH2C7HNHCHCH6CHC2H3SFeC2H4SH3SH3SC4HNHCFeHCHSC6H5FeNCHC2H3FeH4CHS3H3FeS2HC2H5CH2NC4H2CH4C2SH3CHCHSFeH2CSCNC2HCH3CSFeHSCH2CSFeHCHFeHCHNFeSC2H4SHCSHCH3FeH2FeCSCHSC2H5SH3C5HNC4H2SFeSCH8SH3CH5FeHCSNSH3CHSHC2SCFeC2H2C2H2FeH3S3H3FeC6HNC4H8SFeH3FeS3C6H9CSNCH3CFeH4CHSHCHFeH2SFeCS2C4H2CH3NCHSH3FeH2C3H4CFeHCSHC2SFeC2H6S2HCH5CHCSHNFeHCH2SHC3SC3FeH3CHCSNC2H10FeSC2HCNHCHSH2CH4SCFeH2C2SHCFeHCHSCNCH3FeS2C5HCH2SHCH4SH3NHCHCHCFeS2H2SHC6H3CH3FeH2CNHSHSH3FeH4C2HC3SH2C2HCHCHFeSHCHC4H3CNH2CHSH6SFe2C2FeSHSHSNHCFeC5H2S2CSH6CSH4CHC2H2CSCHSCHFeCHCH2NCSHCH4C
_chemical_formula_sum              "S192 C480 Fe96 H768 N48"
_cell_length_a       37.4476
_cell_length_b       37.6462
_cell_length_c       37.386
_cell_angle_alpha    89.8892
_cell_angle_beta     90.8402
_cell_angle_gamma    90.2984

_space_group_name_H-M_alt    "P 1"
_space_group_IT_number       1

loop_
  _space_group_symop_operation_xyz
  'x, y, z'

loop_
  _atom_site_type_symbol
  _atom_site_label
  _atom_site_symmetry_multiplicity
  _atom_site_fract_x
  _atom_site_fract_y
  _atom_site_fract_z
  _atom_site_occupancy
  S   S1        1.0  0.53431  0.30370  0.20453  1.0000
  C   C1        1.0  0.45211  0.21223  0.22037  1.0000
  Fe  Fe1       1.0  0.54443  0.12558  0.28821  1.0000
  S   S2        1.0  0.48473  0.13047  0.28759  1.0000
  C   C2        1.0  0.42422  0.15853  0.19792  1.0000
  C   C3        1.0  0.54831  0.26078  0.21614  1.0000
  C   C4        1.0  0.53525  0.24468  0.24712  1.0000
  C   C5        1.0  0.54449  0.20958  0.25558  1.0000
  H   H1        1.0  0.51779  0.25932  0.26452  1.0000
  H   H2        1.0  0.53412  0.19727  0.27946  1.0000
  C   C6        1.0  0.48643  0.17048  0.18616  1.0000
  H   H3        1.0  0.42539  0.22379  0.22547  1.0000
  H   H4        1.0  0.50707  0.19101  0.18037  1.0000
  H   H5        1.0  0.43181  0.14285  0.22214  1.0000
  H   H6        1.0  0.46029  0.22674  0.15058  1.0000
  H   H7        1.0  0.43931  0.18686  0.13390  1.0000
  H   H8        1.0  0.47053  0.23479  0.21461  1.0000
  H   H9        1.0  0.46163  0.19947  0.24565  1.0000
  H   H10       1.0  0.39728  0.16982  0.20248  1.0000
  H   H11       1.0  0.42150  0.13960  0.17514  1.0000
  N   N1        1.0  0.45083  0.18663  0.19042  1.0000
  C   C7        1.0  0.44062  0.20542  0.15707  1.0000
  H   H12       1.0  0.49532  0.15629  0.21087  1.0000
  H   H13       1.0  0.48646  0.15090  0.16391  1.0000
  H   H14       1.0  0.41398  0.21812  0.15936  1.0000
  Fe  Fe2       1.0  0.57285  0.32940  0.16697  1.0000
  S   S3        1.0  0.56975  0.32408  0.10736  1.0000
  C   C8        1.0  0.57125  0.24195  0.19393  1.0000
  C   C9        1.0  0.56695  0.19056  0.23312  1.0000
  S   S4        1.0  0.57643  0.14587  0.24202  1.0000
  C   C10       1.0  0.58053  0.20682  0.20242  1.0000
  H   H15       1.0  0.58105  0.25415  0.16974  1.0000
  Fe  Fe3       1.0  0.49181  0.14441  0.34541  1.0000
  S   S5        1.0  0.55166  0.14447  0.34478  1.0000
  H   H16       1.0  0.58039  0.17618  0.48459  1.0000
  H   H17       1.0  0.28396  0.28060  0.46106  1.0000
  H   H18       1.0  0.32283  0.28072  0.51589  1.0000
  H   H19       1.0  0.31101  0.24617  0.44218  1.0000
  S   S6        1.0  0.16372  0.24160  0.53675  1.0000
  H   H20       1.0  0.32093  0.19026  0.47553  1.0000
  N   N2        1.0  0.29315  0.23576  0.49568  1.0000
  C   C11       1.0  0.32540  0.25146  0.51269  1.0000
  Fe  Fe4       1.0  0.16759  0.28943  0.50146  1.0000
  H   H21       1.0  0.30258  0.18429  0.51912  1.0000
  S   S7        1.0  0.20359  0.29243  0.45420  1.0000
  C   C12       1.0  0.26169  0.24334  0.51778  1.0000
  C   C13       1.0  0.29772  0.19691  0.49252  1.0000
  H   H22       1.0  0.27368  0.18404  0.48028  1.0000
  H   H23       1.0  0.23693  0.23170  0.50571  1.0000
  H   H24       1.0  0.26491  0.23250  0.54538  1.0000
  H   H25       1.0  0.26354  0.24013  0.44614  1.0000
  C   C14       1.0  0.28781  0.25131  0.45966  1.0000
  H   H26       1.0  0.13483  0.17466  0.42950  1.0000
  S   S8        1.0  0.17890  0.32701  0.54636  1.0000
  H   H27       1.0  0.25711  0.27245  0.52017  1.0000
  H   H28       1.0  0.33025  0.24015  0.53983  1.0000
  C   C15       1.0  0.11069  0.17025  0.44449  1.0000
  C   C16       1.0  0.14727  0.32303  0.41855  1.0000
  Fe  Fe5       1.0  0.11969  0.33420  0.54792  1.0000
  H   H29       1.0  0.12152  0.21297  0.48109  1.0000
  C   C17       1.0  0.18436  0.32187  0.42319  1.0000
  H   H30       1.0  0.13074  0.30278  0.43034  1.0000
  Fe  Fe6       1.0  0.10553  0.25517  0.53857  1.0000
  H   H31       1.0  0.30742  0.32413  0.57002  1.0000
  Fe  Fe7       1.0  0.16983  0.28017  0.58184  1.0000
  S   S9        1.0  0.10886  0.30044  0.49970  1.0000
  H   H32       1.0  0.24311  0.31589  0.58271  1.0000
  C   C18       1.0  0.10327  0.19185  0.47391  1.0000
  C   C19       1.0  0.29900  0.30409  0.58892  1.0000
  S   S10       1.0  0.11102  0.28986  0.58735  1.0000
  S   S11       1.0  0.09629  0.11797  0.39602  1.0000
  H   H33       1.0  0.34966  0.24641  0.49672  1.0000
  S   S12       1.0  0.35292  0.18212  0.59306  1.0000
  H   H34       1.0  0.56631  0.11344  0.47028  1.0000
  H   H35       1.0  0.52095  0.09833  0.46918  1.0000
  H   H36       1.0  0.50538  0.14535  0.42582  1.0000
  H   H37       1.0  0.51505  0.19094  0.43566  1.0000
  H   H38       1.0  0.39053  0.10221  0.43563  1.0000
  C   C20       1.0  0.53594  0.22018  0.58777  1.0000
  H   H39       1.0  0.54199  0.10962  0.51130  1.0000
  H   H40       1.0  0.55571  0.17302  0.52539  1.0000
  H   H41       1.0  0.54507  0.20691  0.49318  1.0000
  H   H42       1.0  0.55079  0.16069  0.42658  1.0000
  C   C21       1.0  0.52460  0.16325  0.44001  1.0000
  H   H43       1.0  0.48188  0.18589  0.49204  1.0000
  C   C22       1.0  0.56666  0.28559  0.56943  1.0000
  S   S13       1.0  0.37196  0.13613  0.50133  1.0000
  C   C23       1.0  0.42660  0.19891  0.43312  1.0000
  S   S14       1.0  0.42551  0.21111  0.55239  1.0000
  H   H44       1.0  0.40006  0.20549  0.48318  1.0000
  C   C24       1.0  0.40070  0.12916  0.43503  1.0000
  C   C25       1.0  0.39426  0.15205  0.46361  1.0000
  C   C26       1.0  0.43457  0.17551  0.40539  1.0000
  H   H45       1.0  0.43656  0.22595  0.43242  1.0000
  C   C27       1.0  0.42085  0.14089  0.40593  1.0000
  H   H46       1.0  0.52550  0.28844  0.52872  1.0000
  S   S15       1.0  0.58374  0.32771  0.55958  1.0000
  C   C28       1.0  0.53692  0.27280  0.55031  1.0000
  C   C29       1.0  0.40641  0.18720  0.46216  1.0000
  S   S16       1.0  0.46318  0.18947  0.37138  1.0000
  C   C30       1.0  0.49206  0.15831  0.49510  1.0000
  N   N3        1.0  0.52741  0.15439  0.47848  1.0000
  C   C31       1.0  0.52133  0.24029  0.55975  1.0000
  H   H47       1.0  0.42525  0.12334  0.38369  1.0000
  H   H48       1.0  0.47185  0.14024  0.48259  1.0000
  Fe  Fe8       1.0  0.39095  0.16242  0.55204  1.0000
  H   H49       1.0  0.49326  0.15228  0.52429  1.0000
  H   H50       1.0  0.49824  0.23073  0.54508  1.0000
  C   C32       1.0  0.55330  0.17866  0.49617  1.0000
  S   S17       1.0  0.42512  0.13303  0.59166  1.0000
  C   C33       1.0  0.53969  0.11732  0.48260  1.0000
  S   S18       1.0  0.36940  0.28466  0.59381  1.0000
  C   C34       1.0  0.15881  0.15221  0.68536  1.0000
  C   C35       1.0  0.30693  0.19232  0.72394  1.0000
  C   C36       1.0  0.29175  0.17207  0.75135  1.0000
  H   H51       1.0  0.15344  0.14705  0.71407  1.0000
  H   H52       1.0  0.17859  0.22170  0.68878  1.0000
  C   C37       1.0  0.19763  0.20172  0.69977  1.0000
  N   N4        1.0  0.19483  0.16754  0.68046  1.0000
  H   H53       1.0  0.13769  0.17040  0.67509  1.0000
  C   C38       1.0  0.20090  0.17347  0.64193  1.0000
  H   H54       1.0  0.22491  0.21339  0.69792  1.0000
  H   H55       1.0  0.21941  0.13941  0.72417  1.0000
  H   H56       1.0  0.19218  0.19844  0.72879  1.0000
  S   S19       1.0  0.25657  0.18967  0.77623  1.0000
  S   S20       1.0  0.16251  0.15175  0.79107  1.0000
  H   H57       1.0  0.22750  0.18587  0.63735  1.0000
  H   H58       1.0  0.18058  0.19175  0.63015  1.0000
  Fe  Fe9       1.0  0.22165  0.14774  0.80087  1.0000
  H   H59       1.0  0.29812  0.21929  0.71933  1.0000
  S   S21       1.0  0.20597  0.26501  0.62779  1.0000
  C   C39       1.0  0.30361  0.13740  0.75747  1.0000
  H   H60       1.0  0.26910  0.23252  0.65699  1.0000
  C   C40       1.0  0.27714  0.25235  0.63780  1.0000
  C   C41       1.0  0.25149  0.27301  0.62000  1.0000
  H   H61       1.0  0.33306  0.24055  0.64392  1.0000
  C   C42       1.0  0.31342  0.25680  0.63039  1.0000
  C   C43       1.0  0.22197  0.14275  0.69478  1.0000
  H   H62       1.0  0.24952  0.15270  0.68992  1.0000
  H   H63       1.0  0.19968  0.14817  0.62667  1.0000
  H   H64       1.0  0.15575  0.12629  0.67133  1.0000
  C   C44       1.0  0.32437  0.28237  0.60576  1.0000
  H   H65       1.0  0.29307  0.12210  0.77939  1.0000
  H   H66       1.0  0.21946  0.11597  0.68244  1.0000
  C   C45       1.0  0.32976  0.12262  0.73562  1.0000
  C   C46       1.0  0.33301  0.17744  0.70197  1.0000
  C   C47       1.0  0.26253  0.29916  0.59580  1.0000
  Fe  Fe10      1.0  0.16562  0.09358  0.77928  1.0000
  H   H67       1.0  0.33869  0.09571  0.74037  1.0000
  H   H68       1.0  0.47221  0.33900  0.69095  1.0000
  C   C48       1.0  0.34419  0.14248  0.70760  1.0000
  H   H69       1.0  0.34455  0.19292  0.68072  1.0000
  H   H70       1.0  0.48830  0.28418  0.61004  1.0000
  C   C49       1.0  0.53626  0.12830  0.68967  1.0000
  H   H71       1.0  0.47841  0.14496  0.75683  1.0000
  C   C50       1.0  0.56644  0.23236  0.60610  1.0000
  H   H72       1.0  0.53942  0.13715  0.66145  1.0000
  S   S22       1.0  0.37608  0.12321  0.67982  1.0000
  S   S23       1.0  0.51592  0.18010  0.60038  1.0000
  H   H73       1.0  0.52221  0.29358  0.64314  1.0000
  S   S24       1.0  0.42458  0.20638  0.64039  1.0000
  Fe  Fe11      1.0  0.39059  0.15761  0.63316  1.0000
  C   C51       1.0  0.49340  0.29727  0.63627  1.0000
  H   H74       1.0  0.47744  0.28276  0.65653  1.0000
  N   N5        1.0  0.50495  0.14508  0.70623  1.0000
  H   H75       1.0  0.52606  0.14008  0.75979  1.0000
  H   H76       1.0  0.57803  0.21671  0.62758  1.0000
  C   C52       1.0  0.50186  0.13284  0.74366  1.0000
  H   H77       1.0  0.53335  0.19258  0.72143  1.0000
  H   H78       1.0  0.51274  0.19415  0.67778  1.0000
  C   C53       1.0  0.50937  0.18413  0.70558  1.0000
  H   H79       1.0  0.48584  0.19769  0.71705  1.0000
  H   H80       1.0  0.49867  0.10348  0.74516  1.0000
  C   C54       1.0  0.47226  0.13509  0.68596  1.0000
  H   H81       1.0  0.47400  0.14330  0.65746  1.0000
  H   H82       1.0  0.56143  0.13535  0.70424  1.0000
  H   H83       1.0  0.42797  0.32487  0.64275  1.0000
  H   H84       1.0  0.44814  0.14780  0.69728  1.0000
  H   H85       1.0  0.46749  0.10589  0.68640  1.0000
  H   H86       1.0  0.59162  0.21177  0.69792  1.0000
  H   H87       1.0  0.53386  0.09885  0.68964  1.0000
  N   N6        1.0  0.48395  0.33532  0.63485  1.0000
  C   C55       1.0  0.58157  0.26529  0.59718  1.0000
  H   H88       1.0  0.18569  0.22089  0.98843  1.0000
  Fe  Fe12      1.0  0.39019  0.22902  0.59649  1.0000
  Fe  Fe13      1.0  0.15796  0.13497  0.84829  1.0000
  H   H89       1.0  0.21616  0.22114  0.95204  1.0000
  H   H90       1.0  0.18713  0.16663  0.92792  1.0000
  H   H91       1.0  0.16803  0.20974  0.86989  1.0000
  C   C56       1.0  0.15142  0.21860  0.89154  1.0000
  H   H92       1.0  0.22798  0.16759  0.03512  1.0000
  C   C57       1.0  0.12293  0.19745  0.90294  1.0000
  C   C58       1.0  0.21185  0.21038  0.97942  1.0000
  C   C59       1.0  0.10154  0.20905  0.93097  1.0000
  H   H93       1.0  0.23300  0.22169  0.99729  1.0000
  H   H94       1.0  0.15670  0.16708  0.96460  1.0000
  S   S25       1.0  0.11604  0.15470  0.88557  1.0000
  C   C60       1.0  0.24702  0.15837  0.96661  1.0000
  C   C61       1.0  0.10919  0.24123  0.94833  1.0000
  S   S26       1.0  0.21700  0.13636  0.85966  1.0000
  N   N7        1.0  0.21226  0.17109  0.97965  1.0000
  H   H95       1.0  0.18139  0.26695  0.90043  1.0000
  Fe  Fe14      1.0  0.10861  0.32136  0.99858  1.0000
  C   C62       1.0  0.13809  0.26205  0.93750  1.0000
  H   H96       1.0  0.20710  0.12836  0.01758  1.0000
  S   S27       1.0  0.14992  0.30087  0.96078  1.0000
  H   H97       1.0  0.18049  0.16673  0.02693  1.0000
  C   C63       1.0  0.18335  0.15771  0.95594  1.0000
  H   H98       1.0  0.18230  0.12834  0.95527  1.0000
  H   H99       1.0  0.25182  0.16735  0.93867  1.0000
  H   H100      1.0  0.26954  0.16817  0.98370  1.0000
  S   S28       1.0  0.12142  0.32869  0.05700  1.0000
  H   H101      1.0  0.24828  0.12881  0.96670  1.0000
  C   C64       1.0  0.20667  0.15794  0.01644  1.0000
  C   C65       1.0  0.15902  0.25086  0.90890  1.0000
  Fe  Fe15      1.0  0.45639  0.18352  0.59572  1.0000
  H   H102      1.0  0.44082  0.32739  0.59692  1.0000
  S   S29       1.0  0.22498  0.09062  0.78458  1.0000
  C   C66       1.0  0.44602  0.33895  0.62393  1.0000
  H   H103      1.0  0.32229  0.48603  0.21471  1.0000
  S   S30       1.0  0.27567  0.57233  0.12882  1.0000
  C   C67       1.0  0.27127  0.50625  0.23073  1.0000
  C   C68       1.0  0.30075  0.50418  0.20837  1.0000
  C   C69       1.0  0.30240  0.52519  0.17758  1.0000
  C   C70       1.0  0.27446  0.54820  0.16885  1.0000
  C   C71       1.0  0.24492  0.55045  0.19127  1.0000
  C   C72       1.0  0.24342  0.52967  0.22248  1.0000
  H   H104      1.0  0.32535  0.52334  0.16052  1.0000
  S   S31       1.0  0.22668  0.54448  0.33690  1.0000
  H   H105      1.0  0.22029  0.53079  0.23945  1.0000
  H   H106      1.0  0.23269  0.48487  0.16058  1.0000
  Fe  Fe16      1.0  0.22858  0.49222  0.30816  1.0000
  S   S32       1.0  0.26880  0.47733  0.26719  1.0000
  N   N8        1.0  0.22442  0.42861  0.15682  1.0000
  C   C73       1.0  0.22048  0.46491  0.14232  1.0000
  H   H107      1.0  0.22264  0.56705  0.18368  1.0000
  H   H108      1.0  0.19188  0.47199  0.13820  1.0000
  C   C74       1.0  0.20742  0.40304  0.13179  1.0000
  H   H109      1.0  0.21933  0.44548  0.21146  1.0000
  H   H110      1.0  0.20945  0.39944  0.20387  1.0000
  C   C75       1.0  0.20700  0.42646  0.19200  1.0000
  S   S33       1.0  0.12615  0.57741  0.31750  1.0000
  H   H111      1.0  0.17805  0.43284  0.18980  1.0000
  Fe  Fe17      1.0  0.16720  0.53684  0.33252  1.0000
  S   S34       1.0  0.16949  0.48743  0.29926  1.0000
  C   C76       1.0  0.26279  0.42026  0.16112  1.0000
  H   H112      1.0  0.26683  0.39312  0.17222  1.0000
  H   H113      1.0  0.20991  0.37526  0.14165  1.0000
  H   H114      1.0  0.27641  0.43922  0.17971  1.0000
  H   H115      1.0  0.23390  0.46776  0.11616  1.0000
  H   H116      1.0  0.21974  0.40441  0.10485  1.0000
  H   H117      1.0  0.17841  0.40863  0.12796  1.0000
  H   H118      1.0  0.27686  0.42172  0.13511  1.0000
  S   S35       1.0  0.37243  0.54178  0.09989  1.0000
  S   S36       1.0  0.57863  0.38855  0.16612  1.0000
  H   H119      1.0  0.49632  0.49709  0.25631  1.0000
  H   H120      1.0  0.51898  0.43870  0.16179  1.0000
  H   H121      1.0  0.45493  0.44924  0.23598  1.0000
  C   C77       1.0  0.45771  0.40622  0.12018  1.0000
  H   H122      1.0  0.45078  0.46966  0.19256  1.0000
  H   H123      1.0  0.52395  0.40943  0.22086  1.0000
  H   H124      1.0  0.49233  0.51822  0.21327  1.0000
  C   C78       1.0  0.52576  0.43652  0.23276  1.0000
  H   H125      1.0  0.50408  0.48364  0.15787  1.0000
  H   H126      1.0  0.55462  0.44393  0.23427  1.0000
  H   H127      1.0  0.46457  0.42440  0.19635  1.0000
  N   N9        1.0  0.50497  0.46260  0.21150  1.0000
  H   H128      1.0  0.51595  0.43456  0.26065  1.0000
  H   H129      1.0  0.53561  0.50712  0.23136  1.0000
  C   C79       1.0  0.46719  0.45103  0.20910  1.0000
  C   C80       1.0  0.51963  0.46497  0.17510  1.0000
  H   H130      1.0  0.54792  0.47394  0.17551  1.0000
  C   C81       1.0  0.50736  0.49781  0.22884  1.0000
  H   H131      1.0  0.44523  0.38579  0.13622  1.0000
  S   S37       1.0  0.39615  0.44373  0.12852  1.0000
  Fe  Fe18      1.0  0.58101  0.38264  0.10664  1.0000
  H   H132      1.0  0.50645  0.37690  0.11351  1.0000
  C   C82       1.0  0.49227  0.40114  0.10725  1.0000
  C   C83       1.0  0.43914  0.43744  0.11203  1.0000
  H   H133      1.0  0.09906  0.45969  0.41422  1.0000
  C   C84       1.0  0.20583  0.34648  0.40542  1.0000
  S   S38       1.0  0.10252  0.39102  0.55560  1.0000
  C   C85       1.0  0.20166  0.42000  0.52005  1.0000
  H   H134      1.0  0.13625  0.41473  0.48925  1.0000
  H   H135      1.0  0.10269  0.35183  0.39604  1.0000
  H   H136      1.0  0.21102  0.39207  0.51852  1.0000
  C   C86       1.0  0.22026  0.42974  0.45929  1.0000
  H   H137      1.0  0.22842  0.40153  0.45627  1.0000
  N   N10       1.0  0.19042  0.43330  0.48445  1.0000
  H   H138      1.0  0.20332  0.48774  0.49676  1.0000
  Fe  Fe19      1.0  0.16967  0.45887  0.35177  1.0000
  H   H139      1.0  0.15800  0.47483  0.50610  1.0000
  C   C87       1.0  0.21469  0.58069  0.44547  1.0000
  C   C88       1.0  0.15283  0.37633  0.38255  1.0000
  H   H140      1.0  0.17202  0.48207  0.46075  1.0000
  S   S39       1.0  0.16204  0.50785  0.38445  1.0000
  H   H141      1.0  0.20672  0.39247  0.37151  1.0000
  C   C89       1.0  0.19003  0.37365  0.38507  1.0000
  H   H142      1.0  0.15075  0.42116  0.44408  1.0000
  S   S40       1.0  0.13241  0.41316  0.36214  1.0000
  H   H143      1.0  0.16602  0.38355  0.46947  1.0000
  H   H144      1.0  0.21273  0.43982  0.43225  1.0000
  S   S41       1.0  0.22912  0.45944  0.35806  1.0000
  C   C90       1.0  0.13147  0.35037  0.39849  1.0000
  S   S42       1.0  0.25099  0.51808  0.43846  1.0000
  H   H145      1.0  0.17919  0.42062  0.53929  1.0000
  H   H146      1.0  0.22401  0.43618  0.53148  1.0000
  C   C91       1.0  0.18037  0.47111  0.48721  1.0000
  Fe  Fe20      1.0  0.22163  0.51095  0.38636  1.0000
  H   H147      1.0  0.24413  0.44525  0.46836  1.0000
  H   H148      1.0  0.19773  0.57163  0.42365  1.0000
  C   C92       1.0  0.26486  0.57150  0.48600  1.0000
  H   H149      1.0  0.28678  0.55523  0.49552  1.0000
  C   C93       1.0  0.24298  0.55959  0.45776  1.0000
  C   C94       1.0  0.15948  0.41232  0.47122  1.0000
  H   H150      1.0  0.23459  0.34526  0.40829  1.0000
  H   H151      1.0  0.50388  0.34190  0.58144  1.0000
  Fe  Fe21      1.0  0.36663  0.48289  0.09396  1.0000
  C   C95       1.0  0.34339  0.55266  0.77724  1.0000
  H   H152      1.0  0.32046  0.56767  0.78811  1.0000
  H   H153      1.0  0.33251  0.52957  0.76198  1.0000
  H   H154      1.0  0.33425  0.56718  0.70675  1.0000
  N   N11       1.0  0.36599  0.57549  0.75456  1.0000
  C   C96       1.0  0.48971  0.35134  0.67055  1.0000
  S   S43       1.0  0.55081  0.41405  0.70549  1.0000
  C   C97       1.0  0.53410  0.47559  0.74030  1.0000
  C   C98       1.0  0.54008  0.51099  0.75065  1.0000
  H   H155      1.0  0.52148  0.52402  0.76805  1.0000
  H   H156      1.0  0.51083  0.46145  0.74968  1.0000
  C   C99       1.0  0.55836  0.45841  0.71809  1.0000
  C   C100      1.0  0.57026  0.52930  0.73864  1.0000
  C   C101      1.0  0.58851  0.47672  0.70610  1.0000
  H   H157      1.0  0.41301  0.54394  0.76357  1.0000
  C   C102      1.0  0.39621  0.55449  0.74111  1.0000
  H   H158      1.0  0.35895  0.54192  0.80051  1.0000
  H   H159      1.0  0.51787  0.34811  0.67999  1.0000
  Fe  Fe22      1.0  0.46760  0.58120  0.82673  1.0000
  H   H160      1.0  0.41375  0.57082  0.72368  1.0000
  H   H161      1.0  0.38681  0.53137  0.72498  1.0000
  S   S44       1.0  0.57818  0.57362  0.75114  1.0000
  H   H162      1.0  0.50023  0.38247  0.60658  1.0000
  H   H163      1.0  0.43780  0.36730  0.62295  1.0000
  H   H164      1.0  0.48433  0.38043  0.67024  1.0000
  C   C103      1.0  0.50675  0.35372  0.60862  1.0000
  H   H165      1.0  0.53549  0.35199  0.61635  1.0000
  S   S45       1.0  0.52570  0.57849  0.84155  1.0000
  C   C104      1.0  0.41799  0.56311  0.96641  1.0000
  N   N12       1.0  0.47922  0.46127  0.96641  1.0000
  H   H166      1.0  0.42949  0.48688  0.97763  1.0000
  Fe  Fe23      1.0  0.31282  0.54273  0.09289  1.0000
  S   S46       1.0  0.30697  0.48350  0.09209  1.0000
  H   H167      1.0  0.16625  0.47821  0.88196  1.0000
  H   H168      1.0  0.15511  0.40673  0.95012  1.0000
  C   C105      1.0  0.13619  0.47280  0.96706  1.0000
  Fe  Fe24      1.0  0.31249  0.48913  0.03293  1.0000
  S   S47       1.0  0.27772  0.45569  0.99701  1.0000
  C   C106      1.0  0.17007  0.43903  0.04978  1.0000
  C   C107      1.0  0.18413  0.41257  0.02797  1.0000
  C   C108      1.0  0.21730  0.41772  0.01179  1.0000
  C   C109      1.0  0.23647  0.44925  0.01750  1.0000
  C   C110      1.0  0.22249  0.47563  0.03947  1.0000
  C   C111      1.0  0.18915  0.47063  0.05536  1.0000
  H   H169      1.0  0.16961  0.38799  0.02369  1.0000
  H   H170      1.0  0.22826  0.39712  0.99508  1.0000
  H   H171      1.0  0.23717  0.50014  0.04380  1.0000
  H   H172      1.0  0.17814  0.49130  0.07191  1.0000
  S   S48       1.0  0.12869  0.43295  0.07006  1.0000
  S   S49       1.0  0.31355  0.54871  0.03310  1.0000
  N   N13       1.0  0.14303  0.45930  0.93070  1.0000
  H   H173      1.0  0.12276  0.45245  0.98392  1.0000
  C   C112      1.0  0.10884  0.44919  0.91316  1.0000
  C   C113      1.0  0.16665  0.42799  0.93298  1.0000
  H   H174      1.0  0.17125  0.41616  0.90621  1.0000
  H   H175      1.0  0.19327  0.43513  0.94461  1.0000
  H   H176      1.0  0.16149  0.48039  0.98115  1.0000
  C   C114      1.0  0.16055  0.48746  0.90953  1.0000
  H   H177      1.0  0.11303  0.43761  0.88620  1.0000
  C   C115      1.0  0.51188  0.45009  0.98599  1.0000
  H   H178      1.0  0.18638  0.49585  0.92218  1.0000
  Fe  Fe25      1.0  0.10148  0.38406  0.04861  1.0000
  H   H179      1.0  0.14335  0.51147  0.90722  1.0000
  H   H180      1.0  0.11868  0.49661  0.96625  1.0000
  H   H181      1.0  0.45376  0.41022  0.97141  1.0000
  H   H182      1.0  0.46999  0.58706  0.96158  1.0000
  Fe  Fe26      1.0  0.37288  0.54204  0.03986  1.0000
  H   H183      1.0  0.47924  0.41604  0.93136  1.0000
  H   H184      1.0  0.52549  0.47299  0.99931  1.0000
  C   C116      1.0  0.59443  0.51212  0.71637  1.0000
  C   C117      1.0  0.44806  0.57411  0.94764  1.0000
  C   C118      1.0  0.48876  0.48658  0.93778  1.0000
  C   C119      1.0  0.39278  0.53825  0.91167  1.0000
  C   C120      1.0  0.39043  0.54480  0.94856  1.0000
  S   S50       1.0  0.41524  0.57354  0.01185  1.0000
  S   S51       1.0  0.37190  0.48281  0.03442  1.0000
  C   C121      1.0  0.42235  0.55059  0.89268  1.0000
  C   C122      1.0  0.49001  0.45890  0.07871  1.0000
  C   C123      1.0  0.45525  0.46375  0.09119  1.0000
  H   H185      1.0  0.50279  0.47972  0.06350  1.0000
  C   C124      1.0  0.50849  0.42757  0.08665  1.0000
  H   H186      1.0  0.44114  0.48813  0.08527  1.0000
  H   H187      1.0  0.36716  0.53606  0.96307  1.0000
  H   H188      1.0  0.50113  0.51122  0.94895  1.0000
  S   S52       1.0  0.55223  0.42223  0.07176  1.0000
  H   H189      1.0  0.50567  0.43035  0.00728  1.0000
  H   H190      1.0  0.46476  0.49466  0.92190  1.0000
  H   H191      1.0  0.47316  0.57753  0.89657  1.0000
  S   S53       1.0  0.42515  0.54400  0.84642  1.0000
  C   C125      1.0  0.45458  0.47853  0.99145  1.0000
  H   H192      1.0  0.53146  0.43754  0.96791  1.0000
  H   H193      1.0  0.37140  0.52428  0.89780  1.0000
  H   H194      1.0  0.50799  0.47482  0.91878  1.0000
  C   C126      1.0  0.46146  0.42979  0.95045  1.0000
  C   C127      1.0  0.44998  0.56842  0.91079  1.0000
  H   H195      1.0  0.44699  0.46023  0.01352  1.0000
  H   H196      1.0  0.43662  0.43731  0.93556  1.0000
  H   H197      1.0  0.46667  0.50274  0.00384  1.0000
  C   C128      1.0  0.34466  0.58913  0.72393  1.0000
  S   S54       1.0  0.13952  0.75413  0.20909  1.0000
  Fe  Fe27      1.0  0.13674  0.81333  0.20324  1.0000
  S   S55       1.0  0.18733  0.73309  0.30010  1.0000
  C   C129      1.0  0.25447  0.67122  0.24724  1.0000
  N   N14       1.0  0.23031  0.65592  0.21964  1.0000
  C   C130      1.0  0.16992  0.69014  0.30642  1.0000
  C   C131      1.0  0.17489  0.63076  0.33177  1.0000
  C   C132      1.0  0.13825  0.67996  0.28894  1.0000
  C   C133      1.0  0.12465  0.64554  0.29320  1.0000
  Fe  Fe28      1.0  0.14804  0.76540  0.26744  1.0000
  C   C134      1.0  0.14301  0.62080  0.31437  1.0000
  C   C135      1.0  0.21071  0.62543  0.23496  1.0000
  H   H198      1.0  0.23928  0.68075  0.27070  1.0000
  H   H199      1.0  0.12435  0.69832  0.27157  1.0000
  C   C136      1.0  0.20454  0.68319  0.20757  1.0000
  H   H200      1.0  0.27138  0.62338  0.19704  1.0000
  H   H201      1.0  0.26645  0.66622  0.17648  1.0000
  H   H202      1.0  0.18817  0.69277  0.23019  1.0000
  H   H203      1.0  0.21828  0.70680  0.19610  1.0000
  C   C137      1.0  0.25149  0.64388  0.18890  1.0000
  C   C138      1.0  0.18834  0.66545  0.32781  1.0000
  H   H204      1.0  0.26964  0.69436  0.23666  1.0000
  S   S56       1.0  0.15041  0.82479  0.26085  1.0000
  H   H205      1.0  0.27408  0.65123  0.25717  1.0000
  H   H206      1.0  0.23423  0.63183  0.16760  1.0000
  H   H207      1.0  0.21309  0.67291  0.34106  1.0000
  H   H208      1.0  0.22925  0.60439  0.24474  1.0000
  H   H209      1.0  0.18575  0.67258  0.18682  1.0000
  H   H210      1.0  0.10013  0.63787  0.27950  1.0000
  H   H211      1.0  0.19438  0.63363  0.25803  1.0000
  H   H212      1.0  0.19203  0.61326  0.21503  1.0000
  H   H213      1.0  0.21927  0.74339  0.58983  1.0000
  H   H214      1.0  0.18896  0.61186  0.34851  1.0000
  C   C139      1.0  0.25878  0.60469  0.50171  1.0000
  H   H215      1.0  0.15412  0.74995  0.58091  1.0000
  C   C140      1.0  0.23033  0.62564  0.48966  1.0000
  H   H216      1.0  0.26670  0.78416  0.42607  1.0000
  H   H217      1.0  0.22930  0.67674  0.42172  1.0000
  H   H218      1.0  0.27114  0.68819  0.40167  1.0000
  N   N15       1.0  0.24191  0.73257  0.42245  1.0000
  H   H219      1.0  0.19350  0.72159  0.45089  1.0000
  H   H220      1.0  0.28826  0.75033  0.45234  1.0000
  H   H221      1.0  0.23014  0.73598  0.47840  1.0000
  C   C141      1.0  0.21701  0.73986  0.45183  1.0000
  C   C142      1.0  0.25282  0.69489  0.42377  1.0000
  H   H222      1.0  0.26691  0.68849  0.44944  1.0000
  C   C143      1.0  0.27389  0.75552  0.42649  1.0000
  H   H223      1.0  0.20699  0.76760  0.45084  1.0000
  H   H224      1.0  0.29323  0.75087  0.40470  1.0000
  C   C144      1.0  0.22385  0.73995  0.38780  1.0000
  Fe  Fe29      1.0  0.27010  0.68802  0.53994  1.0000
  S   S57       1.0  0.27702  0.74717  0.54168  1.0000
  H   H225      1.0  0.24147  0.73428  0.36481  1.0000
  H   H226      1.0  0.19930  0.72339  0.38425  1.0000
  H   H227      1.0  0.21553  0.76821  0.38555  1.0000
  S   S58       1.0  0.22268  0.66741  0.50861  1.0000
  H   H228      1.0  0.18599  0.62963  0.45246  1.0000
  S   S59       1.0  0.32703  0.67745  0.52567  1.0000
  C   C145      1.0  0.20811  0.61351  0.46174  1.0000
  Fe  Fe30      1.0  0.33467  0.73607  0.53242  1.0000
  H   H229      1.0  0.27585  0.61381  0.52343  1.0000
  Fe  Fe31      1.0  0.33642  0.67524  0.58522  1.0000
  C   C146      1.0  0.43235  0.79599  0.49170  1.0000
  S   S60       1.0  0.36412  0.76948  0.49263  1.0000
  C   C147      1.0  0.54379  0.71370  0.40626  1.0000
  Fe  Fe32      1.0  0.55968  0.81136  0.50961  1.0000
  C   C148      1.0  0.48265  0.76807  0.52197  1.0000
  H   H230      1.0  0.50656  0.75988  0.44590  1.0000
  N   N16       1.0  0.51435  0.70548  0.43093  1.0000
  H   H231      1.0  0.47070  0.66843  0.43475  1.0000
  H   H232      1.0  0.54596  0.67141  0.46487  1.0000
  C   C149      1.0  0.49306  0.67539  0.41665  1.0000
  H   H233      1.0  0.50983  0.65119  0.41374  1.0000
  H   H234      1.0  0.47998  0.74556  0.40821  1.0000
  C   C150      1.0  0.52929  0.69579  0.46640  1.0000
  C   C151      1.0  0.49132  0.73700  0.43448  1.0000
  H   H235      1.0  0.56148  0.73516  0.41704  1.0000
  C   C152      1.0  0.46874  0.79590  0.50131  1.0000
  H   H236      1.0  0.47129  0.71813  0.54756  1.0000
  C   C153      1.0  0.40981  0.76866  0.50339  1.0000
  H   H237      1.0  0.56082  0.69002  0.40186  1.0000
  H   H238      1.0  0.54646  0.71748  0.47754  1.0000
  S   S61       1.0  0.52796  0.76698  0.53405  1.0000
  C   C154      1.0  0.46034  0.74022  0.53263  1.0000
  C   C155      1.0  0.42387  0.74071  0.52377  1.0000
  H   H239      1.0  0.53359  0.72248  0.37962  1.0000
  H   H240      1.0  0.40667  0.71922  0.53234  1.0000
  H   H241      1.0  0.48596  0.81732  0.49268  1.0000
  S   S62       1.0  0.56896  0.81142  0.45066  1.0000
  H   H242      1.0  0.50787  0.69074  0.48613  1.0000
  H   H243      1.0  0.46854  0.73163  0.45257  1.0000
  H   H244      1.0  0.42153  0.81759  0.47586  1.0000
  H   H245      1.0  0.48137  0.68170  0.38987  1.0000
  S   S63       1.0  0.34909  0.73330  0.59081  1.0000
  S   S64       1.0  0.26780  0.77275  0.64303  1.0000
  C   C156      1.0  0.22118  0.77356  0.63872  1.0000
  C   C157      1.0  0.20098  0.79120  0.66428  1.0000
  C   C158      1.0  0.16405  0.79511  0.65919  1.0000
  H   H246      1.0  0.21399  0.80197  0.68786  1.0000
  H   H247      1.0  0.14877  0.80948  0.67859  1.0000
  C   C159      1.0  0.14722  0.78067  0.62885  1.0000
  S   S65       1.0  0.27856  0.68024  0.59890  1.0000
  H   H248      1.0  0.11743  0.70888  0.63558  1.0000
  S   S66       1.0  0.10135  0.78629  0.62154  1.0000
  H   H249      1.0  0.11447  0.65078  0.69286  1.0000
  Fe  Fe33      1.0  0.29025  0.73867  0.59966  1.0000
  C   C160      1.0  0.20408  0.75796  0.60914  1.0000
  C   C161      1.0  0.16712  0.76154  0.60419  1.0000
  C   C162      1.0  0.10464  0.67799  0.69859  1.0000
  H   H250      1.0  0.12813  0.69626  0.69921  1.0000
  H   H251      1.0  0.10354  0.66379  0.62775  1.0000
  H   H252      1.0  0.32149  0.60500  0.73295  1.0000
  H   H253      1.0  0.39782  0.62287  0.76017  1.0000
  H   H254      1.0  0.35781  0.62271  0.78578  1.0000
  S   S67       1.0  0.47704  0.59243  0.76884  1.0000
  H   H255      1.0  0.47755  0.69870  0.60934  1.0000
  H   H256      1.0  0.52356  0.74670  0.60869  1.0000
  H   H257      1.0  0.48854  0.77881  0.60624  1.0000
  S   S68       1.0  0.53441  0.65417  0.79679  1.0000
  H   H258      1.0  0.52429  0.70122  0.65666  1.0000
  H   H259      1.0  0.44385  0.69906  0.64263  1.0000
  S   S69       1.0  0.37211  0.63421  0.61058  1.0000
  H   H260      1.0  0.47561  0.78147  0.68739  1.0000
  C   C163      1.0  0.50654  0.71886  0.67225  1.0000
  C   C164      1.0  0.39059  0.64877  0.65128  1.0000
  C   C165      1.0  0.42073  0.63169  0.66556  1.0000
  C   C166      1.0  0.43699  0.64425  0.69714  1.0000
  C   C167      1.0  0.39231  0.69024  0.70092  1.0000
  C   C168      1.0  0.37620  0.67788  0.66916  1.0000
  H   H261      1.0  0.43212  0.60939  0.65158  1.0000
  C   C169      1.0  0.46090  0.71638  0.62602  1.0000
  H   H262      1.0  0.46119  0.63197  0.70698  1.0000
  H   H263      1.0  0.35262  0.69089  0.65852  1.0000
  H   H264      1.0  0.44316  0.74639  0.68866  1.0000
  C   C170      1.0  0.42280  0.67354  0.71488  1.0000
  N   N17       1.0  0.48315  0.74026  0.64848  1.0000
  C   C171      1.0  0.50529  0.76294  0.62520  1.0000
  H   H265      1.0  0.52210  0.78181  0.64102  1.0000
  H   H266      1.0  0.38114  0.71284  0.71459  1.0000
  C   C172      1.0  0.45977  0.76278  0.67038  1.0000
  Fe  Fe34      1.0  0.47565  0.64967  0.78481  1.0000
  S   S70       1.0  0.44313  0.69000  0.75412  1.0000
  H   H267      1.0  0.44270  0.73154  0.60785  1.0000
  H   H268      1.0  0.52377  0.73602  0.68958  1.0000
  H   H269      1.0  0.49067  0.70156  0.69033  1.0000
  H   H270      1.0  0.44122  0.77872  0.65330  1.0000
  Fe  Fe35      1.0  0.53480  0.59567  0.78500  1.0000
  S   S71       1.0  0.46138  0.63827  0.84172  1.0000
  H   H271      1.0  0.41850  0.64108  0.91844  1.0000
  C   C173      1.0  0.37978  0.60567  0.77601  1.0000
  H   H272      1.0  0.39538  0.59641  0.79976  1.0000
  H   H273      1.0  0.36097  0.60674  0.70658  1.0000
  H   H274      1.0  0.45453  0.69481  0.90372  1.0000
  H   H275      1.0  0.54617  0.76781  0.97242  1.0000
  S   S72       1.0  0.54331  0.65770  0.90397  1.0000
  H   H276      1.0  0.43552  0.72208  0.99690  1.0000
  H   H277      1.0  0.39918  0.63682  0.96191  1.0000
  C   C174      1.0  0.53939  0.75552  0.94705  1.0000
  Fe  Fe36      1.0  0.52033  0.63677  0.85228  1.0000
  H   H278      1.0  0.47837  0.64996  0.94563  1.0000
  H   H279      1.0  0.38212  0.66922  0.93085  1.0000
  C   C175      1.0  0.46542  0.66450  0.96785  1.0000
  H   H280      1.0  0.46142  0.72881  0.93669  1.0000
  C   C176      1.0  0.53597  0.70314  0.90939  1.0000
  C   C177      1.0  0.41669  0.70191  0.98550  1.0000
  H   H281      1.0  0.50421  0.77578  0.86515  1.0000
  H   H282      1.0  0.48554  0.68360  0.97877  1.0000
  C   C178      1.0  0.54445  0.71900  0.94225  1.0000
  C   C179      1.0  0.51551  0.75993  0.88665  1.0000
  H   H283      1.0  0.41810  0.72270  0.91642  1.0000
  H   H284      1.0  0.51467  0.71132  0.85616  1.0000
  H   H285      1.0  0.40948  0.68324  0.00746  1.0000
  C   C180      1.0  0.52142  0.72353  0.88157  1.0000
  N   N18       1.0  0.43276  0.68282  0.95526  1.0000
  H   H286      1.0  0.39194  0.71606  0.97700  1.0000
  C   C181      1.0  0.52485  0.77598  0.91925  1.0000
  C   C182      1.0  0.44204  0.70841  0.92679  1.0000
  S   S73       1.0  0.51798  0.82144  0.92523  1.0000
  H   H287      1.0  0.55478  0.70294  0.96404  1.0000
  C   C183      1.0  0.40698  0.65637  0.94096  1.0000
  H   H288      1.0  0.45938  0.64483  0.98928  1.0000
  S   S74       1.0  0.54817  0.83791  0.02653  1.0000
  H   H289      1.0  0.22429  0.96582  0.22228  1.0000
  S   S75       1.0  0.28418  0.95072  0.17674  1.0000
  C   C184      1.0  0.15813  0.96333  0.19181  1.0000
  H   H290      1.0  0.18087  0.92321  0.24666  1.0000
  H   H291      1.0  0.21052  0.00894  0.20783  1.0000
  H   H292      1.0  0.17169  0.95467  0.28150  1.0000
  H   H293      1.0  0.14769  0.02853  0.21948  1.0000
  C   C185      1.0  0.25072  0.91848  0.16966  1.0000
  C   C186      1.0  0.24078  0.89622  0.19799  1.0000
  C   C187      1.0  0.21269  0.87170  0.19350  1.0000
  C   C188      1.0  0.19454  0.86934  0.16061  1.0000
  C   C189      1.0  0.20475  0.89129  0.13224  1.0000
  C   C190      1.0  0.23263  0.91594  0.13682  1.0000
  H   H294      1.0  0.25479  0.89801  0.22344  1.0000
  C   C191      1.0  0.16404  0.94636  0.25388  1.0000
  C   C192      1.0  0.20584  0.98798  0.22832  1.0000
  C   C193      1.0  0.14492  0.00567  0.23818  1.0000
  H   H295      1.0  0.15123  0.01537  0.26568  1.0000
  N   N19       1.0  0.16822  0.97584  0.22805  1.0000
  Fe  Fe37      1.0  0.30285  0.97968  0.12742  1.0000
  H   H296      1.0  0.21404  0.99888  0.25484  1.0000
  H   H297      1.0  0.17524  0.94090  0.18338  1.0000
  S   S76       1.0  0.30053  0.03923  0.12467  1.0000
  H   H298      1.0  0.11630  0.99768  0.23782  1.0000
  H   H299      1.0  0.23963  0.93328  0.11505  1.0000
  H   H300      1.0  0.12998  0.95370  0.19064  1.0000
  H   H301      1.0  0.13591  0.93678  0.25464  1.0000
  H   H302      1.0  0.16108  0.98474  0.17149  1.0000
  H   H303      1.0  0.20530  0.85451  0.21532  1.0000
  H   H304      1.0  0.19074  0.88958  0.10677  1.0000
  S   S77       1.0  0.15829  0.84019  0.15440  1.0000
  S   S78       1.0  0.40326  0.06972  0.12823  1.0000
  S   S79       1.0  0.36115  0.97715  0.11511  1.0000
  H   H305      1.0  0.36685  0.02886  0.18238  1.0000
  H   H306      1.0  0.38378  0.01451  0.24519  1.0000
  S   S80       1.0  0.44573  0.03321  0.28793  1.0000
  C   C194      1.0  0.41491  0.05880  0.17240  1.0000
  H   H307      1.0  0.44507  0.89836  0.14426  1.0000
  H   H308      1.0  0.50610  0.95508  0.20046  1.0000
  C   C195      1.0  0.43399  0.04272  0.24341  1.0000
  H   H309      1.0  0.44338  0.97132  0.21022  1.0000
  H   H310      1.0  0.49206  0.91011  0.19158  1.0000
  C   C196      1.0  0.40167  0.03011  0.22889  1.0000
  H   H311      1.0  0.49346  0.98373  0.12615  1.0000
  H   H312      1.0  0.42809  0.92713  0.19993  1.0000
  C   C197      1.0  0.49658  0.93658  0.17910  1.0000
  C   C198      1.0  0.39210  0.03818  0.19336  1.0000
  H   H313      1.0  0.41038  0.96438  0.17571  1.0000
  H   H314      1.0  0.47392  0.92043  0.11342  1.0000
  S   S81       1.0  0.54480  0.06760  0.30246  1.0000
  C   C199      1.0  0.47109  0.98508  0.14537  1.0000
  N   N20       1.0  0.46374  0.94991  0.16136  1.0000
  H   H315      1.0  0.47868  0.00496  0.16615  1.0000
  C   C200      1.0  0.45231  0.92476  0.13304  1.0000
  H   H316      1.0  0.44723  0.99565  0.13071  1.0000
  C   C201      1.0  0.43517  0.95326  0.18799  1.0000
  H   H317      1.0  0.42861  0.93473  0.11782  1.0000
  H   H318      1.0  0.51864  0.93372  0.15958  1.0000
  C   C202      1.0  0.45699  0.06290  0.22225  1.0000
  Fe  Fe38      1.0  0.48563  0.07402  0.30676  1.0000
  H   H319      1.0  0.48234  0.07205  0.23308  1.0000
  C   C203      1.0  0.44749  0.07082  0.18676  1.0000
  Fe  Fe39      1.0  0.35764  0.03595  0.10775  1.0000
  C   C204      1.0  0.56620  0.99786  0.44063  1.0000
  H   H320      1.0  0.57430  0.01143  0.46493  1.0000
  H   H321      1.0  0.47063  0.94545  0.36916  1.0000
  H   H322      1.0  0.43548  0.96051  0.33958  1.0000
  H   H323      1.0  0.55882  0.94716  0.46677  1.0000
  C   C205      1.0  0.54580  0.94423  0.41049  1.0000
  C   C206      1.0  0.41416  0.01512  0.37860  1.0000
  N   N21       1.0  0.43659  0.98535  0.39141  1.0000
  S   S82       1.0  0.54674  0.86942  0.51241  1.0000
  H   H324      1.0  0.47352  0.98834  0.34797  1.0000
  C   C207      1.0  0.55264  0.99909  0.37721  1.0000
  C   C208      1.0  0.54382  0.96296  0.37824  1.0000
  H   H325      1.0  0.53547  0.94948  0.35396  1.0000
  H   H326      1.0  0.39968  0.96963  0.43209  1.0000
  S   S83       1.0  0.53144  0.89997  0.41174  1.0000
  S   S84       1.0  0.57435  0.06205  0.40688  1.0000
  H   H327      1.0  0.55113  0.01317  0.35216  1.0000
  H   H328      1.0  0.39346  0.94747  0.38984  1.0000
  C   C209      1.0  0.55745  0.96154  0.44168  1.0000
  H   H329      1.0  0.40016  0.02832  0.40098  1.0000
  C   C210      1.0  0.46350  0.99870  0.41749  1.0000
  H   H330      1.0  0.43018  0.93553  0.41886  1.0000
  H   H331      1.0  0.43045  0.03569  0.36491  1.0000
  C   C211      1.0  0.41391  0.95832  0.40882  1.0000
  C   C212      1.0  0.56371  0.01667  0.40835  1.0000
  H   H332      1.0  0.39365  0.00604  0.35873  1.0000
  H   H333      1.0  0.48178  0.01841  0.40503  1.0000
  H   H334      1.0  0.48037  0.97672  0.42819  1.0000
  C   C213      1.0  0.45485  0.96913  0.36074  1.0000
  Fe  Fe40      1.0  0.56149  0.87026  0.45453  1.0000
  H   H335      1.0  0.45076  0.01183  0.44064  1.0000
  Fe  Fe41      1.0  0.54662  0.08687  0.35935  1.0000
  H   H336      1.0  0.46551  0.08611  0.17033  1.0000
  S   S85       1.0  0.48743  0.08841  0.36472  1.0000
  S   S86       1.0  0.13690  0.06919  0.73221  1.0000
  C   C214      1.0  0.13829  0.02281  0.73674  1.0000
  C   C215      1.0  0.13910  0.94876  0.74594  1.0000
  S   S87       1.0  0.13967  0.90259  0.75242  1.0000
  H   H337      1.0  0.18406  0.02327  0.77233  1.0000
  H   H338      1.0  0.18564  0.95787  0.77915  1.0000
  C   C216      1.0  0.16501  0.96998  0.76285  1.0000
  C   C217      1.0  0.16429  0.00699  0.75872  1.0000
  H   H339      1.0  0.18555  0.94785  0.64248  1.0000
  H   H340      1.0  0.15993  0.92203  0.67341  1.0000
  C   C218      1.0  0.20228  0.87932  0.63425  1.0000
  Fe  Fe42      1.0  0.55530  0.84300  0.96733  1.0000
  N   N22       1.0  0.21284  0.90241  0.66462  1.0000
  C   C219      1.0  0.18724  0.93200  0.66758  1.0000
  C   C220      1.0  0.21285  0.88142  0.69808  1.0000
  H   H341      1.0  0.26894  0.89515  0.65593  1.0000
  C   C221      1.0  0.24905  0.91686  0.65867  1.0000
  H   H342      1.0  0.24994  0.93319  0.63383  1.0000
  H   H343      1.0  0.19482  0.95040  0.68974  1.0000
  H   H344      1.0  0.25802  0.93401  0.68136  1.0000
  H   H345      1.0  0.21794  0.89847  0.72194  1.0000
  C   C222      1.0  0.11337  0.96449  0.72356  1.0000
  S   S88       1.0  0.15578  0.07679  0.83572  1.0000
  H   H346      1.0  0.18659  0.86805  0.70212  1.0000
  H   H347      1.0  0.23366  0.86043  0.69787  1.0000
  H   H348      1.0  0.17500  0.86802  0.63780  1.0000
  Fe  Fe43      1.0  0.21518  0.07930  0.84245  1.0000
  H   H349      1.0  0.20209  0.89415  0.60849  1.0000
  H   H350      1.0  0.22092  0.85652  0.63145  1.0000
  H   H351      1.0  0.19682  0.92509  0.83379  1.0000
  C   C223      1.0  0.11319  0.00147  0.71871  1.0000
  H   H352      1.0  0.14458  0.98853  0.83969  1.0000
  H   H353      1.0  0.19242  0.99110  0.83819  1.0000
  H   H354      1.0  0.14895  0.92345  0.83307  1.0000
  H   H355      1.0  0.11555  0.94956  0.88417  1.0000
  H   H356      1.0  0.19167  0.07489  0.98251  1.0000
  H   H357      1.0  0.20899  0.92865  0.91345  1.0000
  H   H358      1.0  0.22937  0.95828  0.88177  1.0000
  H   H359      1.0  0.17379  0.89765  0.86533  1.0000
  H   H360      1.0  0.19407  0.06916  0.91625  1.0000
  C   C224      1.0  0.17295  0.92363  0.85112  1.0000
  S   S89       1.0  0.28525  0.97123  0.07037  1.0000
  H   H361      1.0  0.13952  0.97254  0.91918  1.0000
  H   H362      1.0  0.20524  0.97591  0.91850  1.0000
  H   H363      1.0  0.16949  0.01058  0.87482  1.0000
  C   C225      1.0  0.20534  0.95398  0.89852  1.0000
  C   C226      1.0  0.16942  0.98738  0.85639  1.0000
  N   N23       1.0  0.17219  0.95368  0.87651  1.0000
  S   S90       1.0  0.24290  0.05936  0.03778  1.0000
  S   S91       1.0  0.24616  0.03654  0.87074  1.0000
  C   C227      1.0  0.24233  0.04982  0.99182  1.0000
  C   C228      1.0  0.21422  0.06228  0.97023  1.0000
  C   C229      1.0  0.21543  0.05867  0.93290  1.0000
  C   C230      1.0  0.24416  0.04121  0.91729  1.0000
  C   C231      1.0  0.27107  0.02664  0.93904  1.0000
  C   C232      1.0  0.27033  0.03122  0.97626  1.0000
  H   H364      1.0  0.29305  0.01264  0.92709  1.0000
  H   H365      1.0  0.29170  0.02071  0.99278  1.0000
  H   H366      1.0  0.14230  0.92502  0.91596  1.0000
  C   C233      1.0  0.14099  0.94998  0.90001  1.0000
  Fe  Fe44      1.0  0.28754  0.03062  0.06636  1.0000
  S   S92       1.0  0.34467  0.03313  0.04907  1.0000
  Fe  Fe45      1.0  0.34344  0.97432  0.05781  1.0000
  S   S93       1.0  0.56531  0.90146  0.96856  1.0000
  C   C234      1.0  0.47644  0.01929  0.92676  1.0000
  H   H367      1.0  0.54411  0.00920  0.90823  1.0000
  C   C235      1.0  0.47927  0.95792  0.94526  1.0000
  H   H368      1.0  0.45737  0.96200  0.96465  1.0000
  H   H369      1.0  0.45475  0.02474  0.94606  1.0000
  Fe  Fe46      1.0  0.09503  0.87698  0.72069  1.0000
  H   H370      1.0  0.49622  0.93602  0.95591  1.0000
  C   C236      1.0  0.47408  0.91020  0.02606  1.0000
  C   C237      1.0  0.41590  0.93805  0.02839  1.0000
  H   H371      1.0  0.54799  0.96422  0.92341  1.0000
  N   N24       1.0  0.50027  0.99083  0.94002  1.0000
  H   H372      1.0  0.46684  0.94844  0.91979  1.0000
  C   C238      1.0  0.43738  0.90966  0.01814  1.0000
  H   H373      1.0  0.47994  0.99138  0.06546  1.0000
  S   S94       1.0  0.36981  0.93619  0.02079  1.0000
  H   H374      1.0  0.49145  0.04458  0.92262  1.0000
  Fe  Fe47      1.0  0.56324  0.89573  0.02794  1.0000
  H   H375      1.0  0.53501  0.98101  0.98534  1.0000
  C   C239      1.0  0.51674  0.00182  0.97445  1.0000
  H   H376      1.0  0.53256  0.02674  0.97146  1.0000
  H   H377      1.0  0.51733  0.97495  0.88770  1.0000
  H   H378      1.0  0.49034  0.88783  0.01880  1.0000
  C   C240      1.0  0.43132  0.96759  0.04531  1.0000
  H   H379      1.0  0.42549  0.88688  0.00484  1.0000
  H   H380      1.0  0.46355  0.01192  0.90078  1.0000
  S   S95       1.0  0.53433  0.93876  0.05711  1.0000
  C   C241      1.0  0.48930  0.93925  0.04398  1.0000
  C   C242      1.0  0.52859  0.98449  0.91366  1.0000
  C   C243      1.0  0.46806  0.96831  0.05278  1.0000
  H   H381      1.0  0.49618  0.00673  0.99500  1.0000
  H   H382      1.0  0.41491  0.98991  0.05266  1.0000
  H   H383      1.0  0.69159  0.25829  0.15334  1.0000
  C   C244      1.0  0.70083  0.18802  0.14339  1.0000
  H   H384      1.0  0.71709  0.16331  0.14417  1.0000
  H   H385      1.0  0.75888  0.19351  0.18646  1.0000
  H   H386      1.0  0.65350  0.23418  0.16890  1.0000
  H   H387      1.0  0.69245  0.19939  0.23308  1.0000
  H   H388      1.0  0.66228  0.17732  0.20266  1.0000
  H   H389      1.0  0.67266  0.18035  0.13724  1.0000
  C   C245      1.0  0.68206  0.24038  0.17497  1.0000
  H   H390      1.0  0.74491  0.23258  0.20976  1.0000
  C   C246      1.0  0.74161  0.21751  0.18433  1.0000
  N   N25       1.0  0.70381  0.20778  0.17744  1.0000
  C   C247      1.0  0.69074  0.18524  0.20698  1.0000
  H   H391      1.0  0.68308  0.25574  0.20038  1.0000
  H   H392      1.0  0.70670  0.16045  0.20967  1.0000
  S   S96       1.0  0.63159  0.31943  0.17135  1.0000
  Fe  Fe48      1.0  0.62937  0.31890  0.11146  1.0000
  H   H393      1.0  0.71041  0.20435  0.12057  1.0000
  H   H394      1.0  0.75235  0.23445  0.16243  1.0000
  S   S97       1.0  0.79328  0.18444  0.11017  1.0000
  H   H395      1.0  0.77181  0.33025  0.10832  1.0000
  H   H396      1.0  0.70544  0.32819  0.10824  1.0000
  S   S98       1.0  0.82514  0.14358  0.20067  1.0000
  H   H397      1.0  0.59744  0.19195  0.18472  1.0000
  Fe  Fe49      1.0  0.83636  0.16104  0.14453  1.0000
  H   H398      1.0  0.96707  0.09818  0.50464  1.0000
  C   C248      1.0  0.75775  0.30859  0.09523  1.0000
  H   H399      1.0  0.91436  0.10940  0.19000  1.0000
  H   H400      1.0  0.95934  0.09727  0.23779  1.0000
  C   C249      1.0  0.93635  0.12178  0.17449  1.0000
  H   H401      1.0  0.85493  0.10234  0.25848  1.0000
  C   C250      1.0  0.90190  0.13081  0.27677  1.0000
  C   C251      1.0  0.86193  0.15123  0.22928  1.0000
  H   H402      1.0  0.87525  0.20194  0.20623  1.0000
  S   S99       1.0  0.04254  0.10624  0.30847  1.0000
  C   C252      1.0  0.88280  0.18188  0.22554  1.0000
  S   S100      1.0  0.96259  0.16712  0.29765  1.0000
  H   H403      1.0  0.92933  0.21067  0.24419  1.0000
  C   C253      1.0  0.92304  0.16124  0.27260  1.0000
  C   C254      1.0  0.91319  0.18697  0.24730  1.0000
  Fe  Fe50      1.0  0.98528  0.11676  0.32074  1.0000
  H   H404      1.0  0.99171  0.24523  0.15102  1.0000
  H   H405      1.0  0.95333  0.19364  0.13565  1.0000
  C   C255      1.0  0.87118  0.12596  0.25531  1.0000
  C   C256      1.0  0.99449  0.23218  0.12545  1.0000
  S   S101      1.0  0.87750  0.20161  0.12947  1.0000
  H   H406      1.0  0.98358  0.13713  0.22775  1.0000
  C   C257      1.0  0.97262  0.20308  0.11669  1.0000
  C   C258      1.0  0.98041  0.10862  0.22041  1.0000
  S   S102      1.0  0.04402  0.28331  0.11147  1.0000
  S   S103      1.0  0.85234  0.12090  0.10364  1.0000
  C   C259      1.0  0.72023  0.30733  0.09534  1.0000
  H   H407      1.0  0.02540  0.10848  0.16489  1.0000
  H   H408      1.0  0.90896  0.11117  0.29673  1.0000
  H   H409      1.0  0.00187  0.14991  0.16610  1.0000
  H   H410      1.0  0.93723  0.15042  0.18167  1.0000
  N   N26       1.0  0.97098  0.10443  0.18211  1.0000
  C   C260      1.0  0.99895  0.12107  0.16006  1.0000
  C   C261      1.0  0.01919  0.24510  0.10083  1.0000
  H   H411      1.0  0.92888  0.12000  0.14559  1.0000
  H   H412      1.0  0.98721  0.23549  0.33226  1.0000
  H   H413      1.0  0.02543  0.26371  0.33964  1.0000
  H   H414      1.0  0.02603  0.18327  0.33780  1.0000
  H   H415      1.0  0.99244  0.11878  0.13095  1.0000
  S   S104      1.0  0.06332  0.21292  0.53097  1.0000
  H   H416      1.0  0.06454  0.21063  0.34668  1.0000
  C   C262      1.0  0.04820  0.15945  0.48312  1.0000
  Fe  Fe51      1.0  0.04848  0.09507  0.36714  1.0000
  H   H417      1.0  0.05227  0.17635  0.37745  1.0000
  H   H418      1.0  0.97171  0.22117  0.41111  1.0000
  H   H419      1.0  0.06349  0.25545  0.39457  1.0000
  C   C263      1.0  0.07227  0.18625  0.49362  1.0000
  N   N27       1.0  0.01883  0.22244  0.37884  1.0000
  H   H420      1.0  0.99969  0.18282  0.41548  1.0000
  S   S105      1.0  0.99232  0.10999  0.37986  1.0000
  H   H421      1.0  0.05208  0.22150  0.42612  1.0000
  H   H422      1.0  0.02458  0.26009  0.42187  1.0000
  C   C264      1.0  0.04142  0.19714  0.35931  1.0000
  H   H423      1.0  0.98665  0.26826  0.36712  1.0000
  H   H424      1.0  0.02408  0.15510  0.49814  1.0000
  H   H425      1.0  0.03690  0.11730  0.44545  1.0000
  C   C265      1.0  0.04068  0.24077  0.40650  1.0000
  C   C266      1.0  0.00390  0.24872  0.35338  1.0000
  C   C267      1.0  0.98934  0.20295  0.39611  1.0000
  H   H426      1.0  0.97235  0.18871  0.37597  1.0000
  C   C268      1.0  0.05533  0.13819  0.45319  1.0000
  C   C269      1.0  0.08677  0.14344  0.43401  1.0000
  H   H427      1.0  0.02040  0.11597  0.58521  1.0000
  H   H428      1.0  0.00589  0.09494  0.22742  1.0000
  H   H429      1.0  0.97366  0.12631  0.58798  1.0000
  C   C270      1.0  0.99344  0.10432  0.58975  1.0000
  H   H430      1.0  0.79161  0.16216  0.72812  1.0000
  C   C271      1.0  0.70975  0.18467  0.69488  1.0000
  H   H431      1.0  0.79520  0.21269  0.68360  1.0000
  H   H432      1.0  0.69613  0.20968  0.68666  1.0000
  S   S106      1.0  0.68721  0.30068  0.70879  1.0000
  C   C272      1.0  0.63221  0.25229  0.70307  1.0000
  H   H433      1.0  0.77544  0.22155  0.74669  1.0000
  H   H434      1.0  0.69388  0.17265  0.71683  1.0000
  C   C273      1.0  0.76685  0.20718  0.67610  1.0000
  H   H435      1.0  0.76671  0.18897  0.65259  1.0000
  H   H436      1.0  0.74847  0.14385  0.73827  1.0000
  N   N28       1.0  0.74713  0.19150  0.70629  1.0000
  C   C274      1.0  0.65992  0.26613  0.72444  1.0000
  C   C275      1.0  0.76413  0.15777  0.71730  1.0000
  H   H437      1.0  0.75461  0.23272  0.66720  1.0000
  C   C276      1.0  0.74775  0.21645  0.73676  1.0000
  H   H438      1.0  0.76639  0.13934  0.69428  1.0000
  H   H439      1.0  0.70845  0.16622  0.67164  1.0000
  Fe  Fe52      1.0  0.62948  0.14040  0.80382  1.0000
  S   S107      1.0  0.68885  0.13727  0.79805  1.0000
  H   H440      1.0  0.65408  0.20944  0.79526  1.0000
  H   H441      1.0  0.68875  0.26155  0.77449  1.0000
  C   C277      1.0  0.64804  0.22115  0.76946  1.0000
  C   C278      1.0  0.66759  0.25067  0.75773  1.0000
  H   H442      1.0  0.73622  0.24261  0.72898  1.0000
  H   H443      1.0  0.73205  0.20592  0.75957  1.0000
  C   C279      1.0  0.62055  0.20711  0.74800  1.0000
  H   H444      1.0  0.62679  0.26350  0.67694  1.0000
  H   H445      1.0  0.68258  0.10689  0.67620  1.0000
  C   C280      1.0  0.61245  0.22284  0.71489  1.0000
  H   H446      1.0  0.60500  0.27482  0.61153  1.0000
  S   S108      1.0  0.74274  0.09853  0.62988  1.0000
  S   S109      1.0  0.59835  0.33462  0.66347  1.0000
  S   S110      1.0  0.59718  0.16918  0.76196  1.0000
  Fe  Fe53      1.0  0.89046  0.16331  0.08585  1.0000
  H   H447      1.0  0.02778  0.12189  0.65088  1.0000
  H   H448      1.0  0.98141  0.13323  0.65411  1.0000
  C   C281      1.0  0.00042  0.11059  0.65377  1.0000
  H   H449      1.0  0.00431  0.18528  0.03389  1.0000
  H   H450      1.0  0.99936  0.09723  0.68036  1.0000
  H   H451      1.0  0.88458  0.30125  0.00680  1.0000
  S   S111      1.0  0.82363  0.27934  0.08383  1.0000
  C   C282      1.0  0.70212  0.27862  0.07957  1.0000
  Fe  Fe54      1.0  0.62945  0.09542  0.87074  1.0000
  H   H452      1.0  0.62797  0.21915  0.93575  1.0000
  H   H453      1.0  0.66515  0.28169  0.00367  1.0000
  H   H454      1.0  0.70656  0.11416  0.99238  1.0000
  Fe  Fe55      1.0  0.69043  0.14603  0.85724  1.0000
  S   S112      1.0  0.63152  0.15443  0.86218  1.0000
  S   S113      1.0  0.73143  0.18134  0.88331  1.0000
  Fe  Fe56      1.0  0.81266  0.14811  0.06739  1.0000
  S   S114      1.0  0.77002  0.11893  0.03574  1.0000
  H   H455      1.0  0.80862  0.16628  0.98852  1.0000
  H   H456      1.0  0.64334  0.28259  0.92425  1.0000
  C   C283      1.0  0.71076  0.24016  0.96832  1.0000
  C   C284      1.0  0.74183  0.16479  0.92602  1.0000
  C   C285      1.0  0.77436  0.17380  0.94256  1.0000
  C   C286      1.0  0.78287  0.16050  0.97668  1.0000
  C   C287      1.0  0.75867  0.13861  0.99455  1.0000
  C   C288      1.0  0.72566  0.13052  0.97839  1.0000
  C   C289      1.0  0.71733  0.14336  0.94408  1.0000
  H   H457      1.0  0.79335  0.19041  0.92866  1.0000
  N   N29       1.0  0.67302  0.24724  0.95862  1.0000
  H   H458      1.0  0.69177  0.13700  0.93183  1.0000
  C   C290      1.0  0.65338  0.25749  0.99096  1.0000
  H   H459      1.0  0.68588  0.26931  0.90731  1.0000
  C   C291      1.0  0.67141  0.27642  0.93215  1.0000
  H   H460      1.0  0.72335  0.26315  0.98244  1.0000
  H   H461      1.0  0.68380  0.30116  0.94302  1.0000
  H   H462      1.0  0.65792  0.19212  0.96200  1.0000
  H   H463      1.0  0.62483  0.26324  0.98481  1.0000
  H   H464      1.0  0.70758  0.22903  0.05160  1.0000
  H   H465      1.0  0.77347  0.23165  0.05066  1.0000
  C   C292      1.0  0.72141  0.25158  0.06324  1.0000
  H   H466      1.0  0.72687  0.23479  0.94417  1.0000
  C   C293      1.0  0.75874  0.25285  0.06311  1.0000
  C   C294      1.0  0.65656  0.21492  0.94301  1.0000
  H   H467      1.0  0.67039  0.20676  0.91824  1.0000
  H   H468      1.0  0.71335  0.21661  0.98624  1.0000
  H   H469      1.0  0.65402  0.23602  0.01149  1.0000
  S   S115      1.0  0.65551  0.27497  0.08108  1.0000
  Fe  Fe57      1.0  0.83589  0.22153  0.09096  1.0000
  C   C295      1.0  0.77700  0.28099  0.07965  1.0000
  C   C296      1.0  0.90343  0.31816  0.02268  1.0000
  H   H470      1.0  0.97603  0.26462  0.01779  1.0000
  H   H471      1.0  0.09327  0.24939  0.97066  1.0000
  H   H472      1.0  0.93488  0.09314  0.62919  1.0000
  H   H473      1.0  0.94403  0.33274  0.08111  1.0000
  S   S116      1.0  0.05206  0.30275  0.00673  1.0000
  H   H474      1.0  0.96445  0.30149  0.98943  1.0000
  H   H475      1.0  0.90084  0.25075  0.04595  1.0000
  H   H476      1.0  0.04255  0.23737  0.04913  1.0000
  S   S117      1.0  0.85243  0.18705  0.04557  1.0000
  H   H477      1.0  0.98095  0.30530  0.06927  1.0000
  H   H478      1.0  0.90432  0.28006  0.08358  1.0000
  H   H479      1.0  0.94122  0.25239  0.07214  1.0000
  S   S118      1.0  0.94717  0.15123  0.07171  1.0000
  C   C297      1.0  0.91935  0.26884  0.06076  1.0000
  C   C298      1.0  0.00150  0.19840  0.05943  1.0000
  C   C299      1.0  0.95325  0.28083  0.00759  1.0000
  C   C300      1.0  0.97586  0.18635  0.08355  1.0000
  H   H480      1.0  0.88768  0.33033  0.04451  1.0000
  N   N30       1.0  0.93346  0.29706  0.03729  1.0000
  H   H481      1.0  0.93579  0.26295  0.99127  1.0000
  C   C301      1.0  0.95782  0.32039  0.05813  1.0000
  Fe  Fe58      1.0  0.06362  0.31485  0.06461  1.0000
  H   H482      1.0  0.07965  0.19259  0.93999  1.0000
  C   C302      1.0  0.02292  0.22803  0.06790  1.0000
  H   H483      1.0  0.79408  0.53830  0.23378  1.0000
  S   S119      1.0  0.67412  0.40914  0.20164  1.0000
  C   C303      1.0  0.70867  0.52749  0.20343  1.0000
  C   C304      1.0  0.62083  0.50765  0.24628  1.0000
  C   C305      1.0  0.65167  0.44563  0.21940  1.0000
  C   C306      1.0  0.65937  0.45665  0.25441  1.0000
  C   C307      1.0  0.64391  0.48758  0.26787  1.0000
  C   C308      1.0  0.62787  0.46523  0.19806  1.0000
  H   H484      1.0  0.67740  0.44128  0.27113  1.0000
  H   H485      1.0  0.64983  0.49582  0.29503  1.0000
  H   H486      1.0  0.75415  0.55913  0.24917  1.0000
  H   H487      1.0  0.78949  0.49113  0.18662  1.0000
  H   H488      1.0  0.69497  0.53897  0.22696  1.0000
  Fe  Fe59      1.0  0.63733  0.37839  0.16515  1.0000
  N   N31       1.0  0.74523  0.51568  0.21273  1.0000
  C   C309      1.0  0.74368  0.48827  0.24105  1.0000
  H   H489      1.0  0.69193  0.50498  0.19353  1.0000
  C   C310      1.0  0.76661  0.54635  0.22562  1.0000
  C   C311      1.0  0.76191  0.50051  0.18063  1.0000
  H   H490      1.0  0.76920  0.56704  0.20448  1.0000
  H   H491      1.0  0.77083  0.47979  0.24987  1.0000
  H   H492      1.0  0.70885  0.54805  0.18203  1.0000
  Fe  Fe60      1.0  0.63724  0.56728  0.30802  1.0000
  H   H493      1.0  0.76349  0.52052  0.15868  1.0000
  H   H494      1.0  0.74623  0.47736  0.17022  1.0000
  H   H495      1.0  0.72925  0.46404  0.23150  1.0000
  H   H496      1.0  0.62242  0.45720  0.17073  1.0000
  C   C312      1.0  0.61269  0.49642  0.21144  1.0000
  H   H497      1.0  0.72956  0.49810  0.26508  1.0000
  S   S120      1.0  0.69662  0.55982  0.30691  1.0000
  S   S121      1.0  0.60332  0.54757  0.26207  1.0000
  S   S122      1.0  0.64065  0.37722  0.10530  1.0000
  H   H498      1.0  0.59563  0.51250  0.19444  1.0000
  H   H499      1.0  0.04844  0.49799  0.33718  1.0000
  H   H500      1.0  0.75995  0.58095  0.48749  1.0000
  Fe  Fe61      1.0  0.69131  0.54680  0.36512  1.0000
  S   S123      1.0  0.63149  0.54945  0.36502  1.0000
  S   S124      1.0  0.72326  0.50218  0.38934  1.0000
  H   H501      1.0  0.71669  0.55713  0.44242  1.0000
  C   C313      1.0  0.75293  0.51795  0.42249  1.0000
  C   C314      1.0  0.78654  0.50228  0.42695  1.0000
  H   H502      1.0  0.79411  0.48038  0.41000  1.0000
  H   H503      1.0  0.69532  0.49873  0.49388  1.0000
  H   H504      1.0  0.72370  0.38947  0.50579  1.0000
  H   H505      1.0  0.68698  0.45776  0.44400  1.0000
  H   H506      1.0  0.64709  0.45209  0.49658  1.0000
  C   C315      1.0  0.80173  0.54485  0.47352  1.0000
  H   H507      1.0  0.74097  0.48588  0.50090  1.0000
  H   H508      1.0  0.65918  0.40612  0.50165  1.0000
  N   N32       1.0  0.70364  0.44230  0.49711  1.0000
  C   C316      1.0  0.66703  0.43378  0.50889  1.0000
  C   C317      1.0  0.72912  0.41735  0.51413  1.0000
  C   C318      1.0  0.71287  0.47908  0.50768  1.0000
  C   C319      1.0  0.81105  0.51590  0.45226  1.0000
  H   H509      1.0  0.73288  0.44519  0.44809  1.0000
  H   H510      1.0  0.69850  0.41172  0.44868  1.0000
  C   C320      1.0  0.70556  0.43901  0.45780  1.0000
  H   H511      1.0  0.72727  0.41811  0.54376  1.0000
  H   H512      1.0  0.70981  0.48298  0.53697  1.0000
  H   H513      1.0  0.66472  0.43616  0.53851  1.0000
  H   H514      1.0  0.75722  0.42394  0.50721  1.0000
  C   C321      1.0  0.74320  0.54607  0.44462  1.0000
  C   C322      1.0  0.76755  0.55943  0.47014  1.0000
  S   S125      1.0  0.83257  0.56415  0.50355  1.0000
  H   H515      1.0  0.83751  0.50476  0.45442  1.0000
  H   H516      1.0  0.81953  0.47964  0.57704  1.0000
  H   H517      1.0  0.75519  0.49201  0.58106  1.0000
  C   C323      1.0  0.80245  0.46119  0.59094  1.0000
  H   H518      1.0  0.01782  0.44983  0.59124  1.0000
  C   C324      1.0  0.02030  0.39648  0.48380  1.0000
  H   H519      1.0  0.08051  0.52161  0.36430  1.0000
  S   S126      1.0  0.87622  0.46834  0.51165  1.0000
  Fe  Fe62      1.0  0.93558  0.47542  0.50614  1.0000
  H   H520      1.0  0.01441  0.44730  0.36302  1.0000
  H   H521      1.0  0.00907  0.49711  0.42813  1.0000
  C   C325      1.0  0.00780  0.43104  0.48905  1.0000
  S   S127      1.0  0.93511  0.53487  0.51129  1.0000
  C   C326      1.0  0.02602  0.45371  0.51270  1.0000
  N   N33       1.0  0.05056  0.48142  0.39234  1.0000
  C   C327      1.0  0.04977  0.38397  0.50371  1.0000
  C   C328      1.0  0.05619  0.44158  0.53162  1.0000
  H   H522      1.0  0.02128  0.43508  0.40899  1.0000
  C   C329      1.0  0.03474  0.44607  0.38496  1.0000
  H   H523      1.0  0.00099  0.50851  0.38219  1.0000
  H   H524      1.0  0.07014  0.45922  0.54995  1.0000
  H   H525      1.0  0.00623  0.37887  0.46553  1.0000
  C   C330      1.0  0.06792  0.49507  0.35974  1.0000
  S   S128      1.0  0.94722  0.46533  0.56406  1.0000
  Fe  Fe63      1.0  0.87646  0.52721  0.52163  1.0000
  H   H526      1.0  0.05551  0.42665  0.37695  1.0000
  S   S129      1.0  0.96900  0.44563  0.46678  1.0000
  C   C331      1.0  0.07735  0.47825  0.42159  1.0000
  H   H527      1.0  0.05816  0.35678  0.50079  1.0000
  H   H528      1.0  0.01671  0.48060  0.51653  1.0000
  C   C332      1.0  0.06740  0.40637  0.52808  1.0000
  S   S130      1.0  0.88379  0.52225  0.58105  1.0000
  Fe  Fe64      1.0  0.88811  0.46405  0.57037  1.0000
  H   H529      1.0  0.06505  0.46781  0.44646  1.0000
  C   C333      1.0  0.02222  0.50622  0.40318  1.0000
  H   H530      1.0  0.03315  0.53331  0.40833  1.0000
  Fe  Fe65      1.0  0.94220  0.52406  0.57002  1.0000
  H   H531      1.0  0.08927  0.47686  0.35061  1.0000
  C   C334      1.0  0.76588  0.46805  0.59297  1.0000
  H   H532      1.0  0.08981  0.50442  0.42798  1.0000
  N   N34       1.0  0.82750  0.50044  0.69883  1.0000
  Fe  Fe66      1.0  0.66370  0.40777  0.63174  1.0000
  S   S131      1.0  0.65497  0.39707  0.69005  1.0000
  C   C335      1.0  0.75733  0.41323  0.62580  1.0000
  C   C336      1.0  0.79424  0.40689  0.62465  1.0000
  H   H533      1.0  0.73989  0.39451  0.63902  1.0000
  H   H534      1.0  0.80526  0.38334  0.63715  1.0000
  H   H535      1.0  0.78780  0.53757  0.68050  1.0000
  H   H536      1.0  0.78478  0.47296  0.67134  1.0000
  S   S132      1.0  0.67120  0.35064  0.61674  1.0000
  H   H537      1.0  0.83225  0.50911  0.64227  1.0000
  C   C337      1.0  0.80355  0.46936  0.69443  1.0000
  S   S133      1.0  0.69727  0.45226  0.60988  1.0000
  H   H538      1.0  0.82317  0.55668  0.70736  1.0000
  C   C338      1.0  0.80589  0.53273  0.70393  1.0000
  H   H539      1.0  0.78885  0.53041  0.72799  1.0000
  H   H540      1.0  0.81893  0.44466  0.68936  1.0000
  H   H541      1.0  0.78710  0.46478  0.71857  1.0000
  Fe  Fe67      1.0  0.61196  0.35063  0.60756  1.0000
  H   H542      1.0  0.83576  0.49254  0.75541  1.0000
  H   H543      1.0  0.61775  0.52622  0.70700  1.0000
  Fe  Fe68      1.0  0.59700  0.39298  0.67447  1.0000
  C   C339      1.0  0.74321  0.44394  0.61005  1.0000
  S   S134      1.0  0.60536  0.40869  0.61753  1.0000
  C   C340      1.0  0.81679  0.43090  0.60718  1.0000
  H   H544      1.0  0.60724  0.46372  0.68880  1.0000
  S   S135      1.0  0.09327  0.37807  0.98967  1.0000
  C   C341      1.0  0.84931  0.50465  0.66646  1.0000
  C   C342      1.0  0.85121  0.49505  0.73033  1.0000
  H   H545      1.0  0.86740  0.47052  0.72768  1.0000
  H   H546      1.0  0.87032  0.51762  0.73392  1.0000
  H   H547      1.0  0.86813  0.52756  0.66886  1.0000
  H   H548      1.0  0.86550  0.48052  0.66132  1.0000
  H   H549      1.0  0.01869  0.40644  0.69672  1.0000
  S   S136      1.0  0.97983  0.55242  0.60757  1.0000
  H   H550      1.0  0.97301  0.40439  0.60795  1.0000
  H   H551      1.0  0.96038  0.43287  0.64399  1.0000
  H   H552      1.0  0.92406  0.47739  0.69814  1.0000
  C   C343      1.0  0.97864  0.54786  0.71564  1.0000
  C   C344      1.0  0.98632  0.55791  0.68040  1.0000
  C   C345      1.0  0.97062  0.53964  0.65161  1.0000
  C   C346      1.0  0.94800  0.51069  0.65812  1.0000
  C   C347      1.0  0.94104  0.50013  0.69328  1.0000
  H   H553      1.0  0.93606  0.49625  0.63606  1.0000
  N   N35       1.0  0.01676  0.42229  0.64141  1.0000
  C   C348      1.0  0.97903  0.41131  0.63637  1.0000
  C   C349      1.0  0.04034  0.39333  0.62954  1.0000
  C   C350      1.0  0.02392  0.45448  0.61997  1.0000
  C   C351      1.0  0.95569  0.51917  0.72208  1.0000
  H   H554      1.0  0.99052  0.56236  0.73776  1.0000
  H   H555      1.0  0.05239  0.46290  0.62217  1.0000
  S   S137      1.0  0.02632  0.55177  0.81554  1.0000
  Fe  Fe69      1.0  0.96735  0.54718  0.80463  1.0000
  S   S138      1.0  0.94437  0.50737  0.76586  1.0000
  C   C352      1.0  0.02376  0.43011  0.67962  1.0000
  H   H556      1.0  0.03554  0.38685  0.60076  1.0000
  H   H557      1.0  0.06908  0.40078  0.63229  1.0000
  H   H558      1.0  0.97247  0.38755  0.65280  1.0000
  H   H559      1.0  0.00733  0.47725  0.62850  1.0000
  H   H560      1.0  0.03601  0.36855  0.64517  1.0000
  H   H561      1.0  0.00632  0.45195  0.68923  1.0000
  H   H562      1.0  0.05196  0.43861  0.68431  1.0000
  H   H563      1.0  0.00401  0.58014  0.67547  1.0000
  S   S139      1.0  0.86304  0.42416  0.60707  1.0000
  H   H564      1.0  0.09110  0.47260  0.90961  1.0000
  H   H565      1.0  0.93864  0.55238  0.02350  1.0000
  H   H566      1.0  0.86569  0.51591  0.96583  1.0000
  C   C353      1.0  0.94281  0.48426  0.00257  1.0000
  H   H567      1.0  0.05489  0.49432  0.98386  1.0000
  H   H568      1.0  0.96978  0.49526  0.00922  1.0000
  H   H569      1.0  0.03695  0.43423  0.00363  1.0000
  H   H570      1.0  0.88776  0.47476  0.95651  1.0000
  H   H571      1.0  0.90044  0.52850  0.03927  1.0000
  Fe  Fe70      1.0  0.01038  0.55725  0.87291  1.0000
  H   H572      1.0  0.94012  0.50781  0.93469  1.0000
  C   C354      1.0  0.02697  0.44449  0.97836  1.0000
  S   S140      1.0  0.03933  0.53408  0.92065  1.0000
  N   N36       1.0  0.91894  0.51189  0.98765  1.0000
  S   S141      1.0  0.99123  0.38143  0.97162  1.0000
  H   H573      1.0  0.89528  0.56098  0.00449  1.0000
  H   H574      1.0  0.93188  0.47232  0.02738  1.0000
  H   H575      1.0  0.96188  0.54037  0.96239  1.0000
  C   C355      1.0  0.91308  0.53958  0.01490  1.0000
  H   H576      1.0  0.94661  0.46228  0.98316  1.0000
  S   S142      1.0  0.95210  0.54743  0.86249  1.0000
  H   H577      1.0  0.87104  0.48313  0.00053  1.0000
  C   C356      1.0  0.02443  0.49212  0.93456  1.0000
  C   C357      1.0  0.00106  0.47175  0.91334  1.0000
  S   S143      1.0  0.04473  0.37125  0.06157  1.0000
  C   C358      1.0  0.03709  0.47854  0.96719  1.0000
  Fe  Fe71      1.0  0.03802  0.36043  0.00315  1.0000
  C   C359      1.0  0.99031  0.43785  0.92490  1.0000
  C   C360      1.0  0.88430  0.49568  0.97720  1.0000
  H   H578      1.0  0.99167  0.48186  0.88781  1.0000
  H   H579      1.0  0.97245  0.42197  0.90838  1.0000
  C   C361      1.0  0.93549  0.52799  0.95579  1.0000
  C   C362      1.0  0.00365  0.42403  0.95723  1.0000
  H   H580      1.0  0.91821  0.54895  0.94375  1.0000
  H   H581      1.0  0.09401  0.42917  0.92918  1.0000
  Fe  Fe72      1.0  0.65722  0.33961  0.67401  1.0000
  H   H582      1.0  0.91313  0.33987  0.00493  1.0000
  H   H583      1.0  0.96879  0.34213  0.04121  1.0000
  H   H584      1.0  0.80144  0.67122  0.19118  1.0000
  S   S144      1.0  0.75838  0.63285  0.13905  1.0000
  S   S145      1.0  0.64022  0.62552  0.32072  1.0000
  S   S146      1.0  0.74008  0.65516  0.30474  1.0000
  H   H585      1.0  0.79382  0.68002  0.25645  1.0000
  H   H586      1.0  0.70670  0.69781  0.13694  1.0000
  H   H587      1.0  0.66434  0.76773  0.13200  1.0000
  Fe  Fe73      1.0  0.69918  0.61651  0.32458  1.0000
  C   C363      1.0  0.75310  0.64040  0.18481  1.0000
  C   C364      1.0  0.72321  0.62631  0.20193  1.0000
  C   C365      1.0  0.71917  0.63081  0.23883  1.0000
  C   C366      1.0  0.74475  0.64999  0.25855  1.0000
  C   C367      1.0  0.77408  0.66507  0.24123  1.0000
  C   C368      1.0  0.77839  0.66010  0.20436  1.0000
  H   H588      1.0  0.69608  0.61974  0.25195  1.0000
  N   N37       1.0  0.69010  0.73793  0.17418  1.0000
  C   C369      1.0  0.65797  0.74764  0.15295  1.0000
  C   C370      1.0  0.71692  0.72230  0.15039  1.0000
  C   C371      1.0  0.68044  0.71174  0.20198  1.0000
  C   C372      1.0  0.70533  0.77006  0.19135  1.0000
  H   H589      1.0  0.63692  0.75921  0.17001  1.0000
  H   H590      1.0  0.64619  0.72417  0.13897  1.0000
  H   H591      1.0  0.74152  0.71475  0.16553  1.0000
  H   H592      1.0  0.70408  0.70447  0.21884  1.0000
  H   H593      1.0  0.65979  0.72228  0.22017  1.0000
  H   H594      1.0  0.66985  0.68672  0.18991  1.0000
  H   H595      1.0  0.68589  0.78260  0.20962  1.0000
  H   H596      1.0  0.70318  0.61184  0.18666  1.0000
  S   S147      1.0  0.80068  0.72390  0.11392  1.0000
  Fe  Fe74      1.0  0.80324  0.66447  0.11514  1.0000
  H   H597      1.0  0.72493  0.74137  0.12915  1.0000
  H   H598      1.0  0.71303  0.79030  0.17103  1.0000
  H   H599      1.0  0.72979  0.76364  0.20739  1.0000
  Fe  Fe75      1.0  0.85953  0.72175  0.12495  1.0000
  S   S148      1.0  0.86120  0.66249  0.13134  1.0000
  S   S149      1.0  0.88684  0.76102  0.16140  1.0000
  S   S150      1.0  0.04377  0.71439  0.20203  1.0000
  C   C373      1.0  0.93036  0.74802  0.17261  1.0000
  C   C374      1.0  0.93828  0.71227  0.17881  1.0000
  C   C375      1.0  0.97321  0.70221  0.18803  1.0000
  C   C376      1.0  0.00028  0.72784  0.19100  1.0000
  C   C377      1.0  0.99244  0.76354  0.18441  1.0000
  C   C378      1.0  0.95743  0.77365  0.17549  1.0000
  H   H600      1.0  0.97917  0.67454  0.19315  1.0000
  H   H601      1.0  0.01330  0.78334  0.18584  1.0000
  H   H602      1.0  0.95139  0.80129  0.17027  1.0000
  H   H603      1.0  0.91738  0.69244  0.17715  1.0000
  H   H604      1.0  0.02140  0.78930  0.31818  1.0000
  H   H605      1.0  0.98263  0.77853  0.34385  1.0000
  H   H606      1.0  0.95884  0.67996  0.11052  1.0000
  H   H607      1.0  0.00107  0.74926  0.26853  1.0000
  H   H608      1.0  0.02153  0.67375  0.13150  1.0000
  C   C379      1.0  0.99297  0.79641  0.32263  1.0000
  S   S151      1.0  0.07737  0.81572  0.21008  1.0000
  N   N38       1.0  0.97162  0.79354  0.28917  1.0000
  C   C380      1.0  0.97327  0.75671  0.27564  1.0000
  H   H609      1.0  0.96384  0.73721  0.29583  1.0000
  H   H610      1.0  0.05761  0.68672  0.10309  1.0000
  H   H611      1.0  0.95628  0.75321  0.25121  1.0000
  C   C381      1.0  0.02985  0.69331  0.11078  1.0000
  Fe  Fe76      1.0  0.08125  0.75741  0.22113  1.0000
  H   H612      1.0  0.03083  0.71988  0.12380  1.0000
  H   H613      1.0  0.01423  0.81149  0.25577  1.0000
  H   H614      1.0  0.92216  0.78484  0.31641  1.0000
  H   H615      1.0  0.97031  0.81746  0.23684  1.0000
  C   C382      1.0  0.98617  0.81821  0.26219  1.0000
  H   H616      1.0  0.91734  0.80101  0.27134  1.0000
  S   S152      1.0  0.08978  0.76411  0.28006  1.0000
  H   H617      1.0  0.96680  0.72677  0.10521  1.0000
  C   C383      1.0  0.93409  0.80290  0.29619  1.0000
  H   H618      1.0  0.99303  0.82408  0.33319  1.0000
  Fe  Fe77      1.0  0.09109  0.82231  0.26815  1.0000
  H   H619      1.0  0.93197  0.83061  0.30632  1.0000
  H   H620      1.0  0.60660  0.68722  0.47816  1.0000
  S   S153      1.0  0.66850  0.79364  0.43645  1.0000
  Fe  Fe78      1.0  0.64008  0.60718  0.37781  1.0000
  C   C384      1.0  0.66502  0.72855  0.40400  1.0000
  S   S154      1.0  0.61260  0.63605  0.42193  1.0000
  S   S155      1.0  0.69938  0.60297  0.38264  1.0000
  C   C385      1.0  0.79145  0.65821  0.46167  1.0000
  C   C386      1.0  0.63067  0.67882  0.42695  1.0000
  C   C387      1.0  0.62224  0.69889  0.45706  1.0000
  C   C388      1.0  0.75849  0.67335  0.40779  1.0000
  H   H621      1.0  0.79174  0.65720  0.49145  1.0000
  H   H622      1.0  0.77670  0.72757  0.45124  1.0000
  C   C389      1.0  0.75413  0.71052  0.46010  1.0000
  H   H623      1.0  0.75330  0.71172  0.48983  1.0000
  H   H624      1.0  0.70145  0.66290  0.44966  1.0000
  H   H625      1.0  0.73293  0.68322  0.39592  1.0000
  N   N39       1.0  0.75786  0.67358  0.44736  1.0000
  C   C390      1.0  0.65248  0.69350  0.40060  1.0000
  H   H626      1.0  0.62662  0.74977  0.48299  1.0000
  S   S156      1.0  0.61747  0.81805  0.52489  1.0000
  H   H627      1.0  0.78033  0.69040  0.39731  1.0000
  H   H628      1.0  0.76279  0.64611  0.39718  1.0000
  H   H629      1.0  0.68140  0.74009  0.38334  1.0000
  Fe  Fe79      1.0  0.62589  0.82284  0.46586  1.0000
  H   H630      1.0  0.65927  0.67811  0.37733  1.0000
  H   H631      1.0  0.72902  0.72282  0.44966  1.0000
  C   C391      1.0  0.72727  0.65222  0.45991  1.0000
  C   C392      1.0  0.63388  0.73419  0.45996  1.0000
  C   C393      1.0  0.65511  0.74912  0.43335  1.0000
  H   H632      1.0  0.72905  0.62427  0.45072  1.0000
  H   H633      1.0  0.79523  0.63042  0.45218  1.0000
  H   H634      1.0  0.81517  0.67382  0.45317  1.0000
  H   H635      1.0  0.72599  0.65174  0.48963  1.0000
  C   C394      1.0  0.00056  0.69301  0.76436  1.0000
  Fe  Fe80      1.0  0.02741  0.83255  0.72108  1.0000
  H   H636      1.0  0.95955  0.72876  0.74538  1.0000
  C   C395      1.0  0.98633  0.72658  0.75641  1.0000
  S   S157      1.0  0.98874  0.79905  0.75220  1.0000
  H   H637      1.0  0.98472  0.66939  0.75947  1.0000
  C   C396      1.0  0.00699  0.75725  0.76180  1.0000
  C   C397      1.0  0.04191  0.75431  0.77519  1.0000
  S   S158      1.0  0.05456  0.64833  0.78562  1.0000
  Fe  Fe81      1.0  0.01638  0.61046  0.81181  1.0000
  C   C398      1.0  0.05634  0.72074  0.78260  1.0000
  C   C399      1.0  0.03563  0.69008  0.77740  1.0000
  H   H638      1.0  0.05773  0.77794  0.78016  1.0000
  H   H639      1.0  0.92462  0.79390  0.84269  1.0000
  H   H640      1.0  0.96253  0.77655  0.82018  1.0000
  H   H641      1.0  0.04646  0.73611  0.66002  1.0000
  H   H642      1.0  0.05579  0.63701  0.66403  1.0000
  H   H643      1.0  0.05028  0.72518  0.70656  1.0000
  S   S159      1.0  0.02040  0.83509  0.66140  1.0000
  S   S160      1.0  0.95849  0.60557  0.79653  1.0000
  H   H644      1.0  0.98422  0.71614  0.83373  1.0000
  C   C400      1.0  0.04727  0.66426  0.67150  1.0000
  H   H645      1.0  0.03491  0.66236  0.69840  1.0000
  H   H646      1.0  0.92659  0.72459  0.80072  1.0000
  H   H647      1.0  0.02607  0.67260  0.65210  1.0000
  H   H648      1.0  0.88857  0.74163  0.82359  1.0000
  H   H649      1.0  0.90432  0.69757  0.83300  1.0000
  C   C401      1.0  0.91303  0.72523  0.82694  1.0000
  H   H650      1.0  0.08349  0.71856  0.79267  1.0000
  C   C402      1.0  0.06489  0.72533  0.68098  1.0000
  S   S161      1.0  0.08534  0.81813  0.71997  1.0000
  H   H651      1.0  0.07484  0.70011  0.61519  1.0000
  N   N40       1.0  0.07769  0.68948  0.67174  1.0000
  Fe  Fe82      1.0  0.07912  0.82488  0.66075  1.0000
  H   H652      1.0  0.08747  0.74447  0.68390  1.0000
  C   C403      1.0  0.09406  0.69047  0.63600  1.0000
  H   H653      1.0  0.09338  0.67755  0.72596  1.0000
  H   H654      1.0  0.65016  0.71658  0.99851  1.0000
  S   S162      1.0  0.63061  0.78424  0.06098  1.0000
  H   H655      1.0  0.74172  0.80976  0.99810  1.0000
  C   C404      1.0  0.69135  0.74453  0.06023  1.0000
  C   C405      1.0  0.67483  0.77595  0.04894  1.0000
  C   C406      1.0  0.72626  0.73694  0.04973  1.0000
  S   S163      1.0  0.78796  0.75094  0.01397  1.0000
  C   C407      1.0  0.69298  0.79945  0.02648  1.0000
  C   C408      1.0  0.72766  0.79151  0.01539  1.0000
  C   C409      1.0  0.74444  0.76045  0.02732  1.0000
  Fe  Fe83      1.0  0.81500  0.71806  0.05636  1.0000
  H   H656      1.0  0.73893  0.71257  0.05844  1.0000
  H   H657      1.0  0.65105  0.73925  0.88636  1.0000
  H   H658      1.0  0.70592  0.70990  0.96525  1.0000
  C   C410      1.0  0.63974  0.73338  0.97621  1.0000
  H   H659      1.0  0.70680  0.71882  0.91797  1.0000
  C   C411      1.0  0.64499  0.68578  0.93353  1.0000
  S   S164      1.0  0.81324  0.65863  0.05645  1.0000
  N   N41       1.0  0.65486  0.72304  0.94152  1.0000
  C   C412      1.0  0.64048  0.74648  0.91302  1.0000
  C   C413      1.0  0.69420  0.72667  0.94350  1.0000
  H   H660      1.0  0.70244  0.75459  0.94936  1.0000
  H   H661      1.0  0.65520  0.66736  0.95459  1.0000
  H   H662      1.0  0.65589  0.67703  0.90747  1.0000
  H   H663      1.0  0.67696  0.72576  0.07659  1.0000
  H   H664      1.0  0.68034  0.82375  0.01758  1.0000
  H   H665      1.0  0.61079  0.74476  0.91114  1.0000
  H   H666      1.0  0.64643  0.76136  0.98273  1.0000
  H   H667      1.0  0.64754  0.77482  0.91810  1.0000
  H   H668      1.0  0.61021  0.73127  0.97609  1.0000
  H   H669      1.0  0.61543  0.68225  0.93181  1.0000
  Fe  Fe84      1.0  0.60742  0.82883  0.02803  1.0000
  S   S165      1.0  0.61327  0.82900  0.96836  1.0000
  C   C414      1.0  0.94800  0.77599  0.84593  1.0000
  C   C415      1.0  0.96847  0.70059  0.09152  1.0000
  H   H670      1.0  0.96616  0.78763  0.86665  1.0000
  C   C416      1.0  0.96884  0.71671  0.85894  1.0000
  N   N42       1.0  0.93690  0.73946  0.85538  1.0000
  H   H671      1.0  0.96142  0.68877  0.86538  1.0000
  C   C417      1.0  0.88624  0.65368  0.98489  1.0000
  H   H672      1.0  0.94926  0.70085  0.06854  1.0000
  S   S166      1.0  0.91550  0.63081  0.04842  1.0000
  H   H673      1.0  0.01580  0.74768  0.06628  1.0000
  H   H674      1.0  0.98726  0.72630  0.88046  1.0000
  C   C418      1.0  0.01625  0.72079  0.05388  1.0000
  H   H675      1.0  0.99809  0.72140  0.03003  1.0000
  H   H676      1.0  0.90883  0.71275  0.89742  1.0000
  H   H677      1.0  0.03326  0.65090  0.05360  1.0000
  H   H678      1.0  0.93491  0.75028  0.91182  1.0000
  S   S167      1.0  0.87385  0.72177  0.06704  1.0000
  C   C419      1.0  0.94084  0.61988  0.98121  1.0000
  Fe  Fe85      1.0  0.87116  0.66261  0.07229  1.0000
  H   H679      1.0  0.86168  0.66825  0.93450  1.0000
  H   H680      1.0  0.89340  0.75677  0.88794  1.0000
  C   C420      1.0  0.91770  0.73992  0.88965  1.0000
  C   C421      1.0  0.91432  0.63559  0.00178  1.0000
  S   S168      1.0  0.00629  0.61659  0.87027  1.0000
  H   H681      1.0  0.95844  0.60791  0.92812  1.0000
  C   C422      1.0  0.90970  0.63807  0.92687  1.0000
  Fe  Fe86      1.0  0.94913  0.60637  0.85553  1.0000
  H   H682      1.0  0.04385  0.71608  0.04438  1.0000
  C   C423      1.0  0.88390  0.65487  0.94745  1.0000
  H   H683      1.0  0.86591  0.66631  0.00054  1.0000
  S   S169      1.0  0.90564  0.63834  0.88013  1.0000
  C   C424      1.0  0.00588  0.65796  0.06216  1.0000
  N   N43       1.0  0.00513  0.69314  0.07960  1.0000
  C   C425      1.0  0.93842  0.62096  0.94378  1.0000
  H   H684      1.0  0.98811  0.65728  0.03802  1.0000
  H   H685      1.0  0.99632  0.63668  0.08050  1.0000
  H   H686      1.0  0.96291  0.60629  0.99411  1.0000
  Fe  Fe87      1.0  0.02577  0.04926  0.30351  1.0000
  S   S170      1.0  0.04319  0.01659  0.25640  1.0000
  S   S171      1.0  0.96770  0.06060  0.31079  1.0000
  C   C426      1.0  0.04464  0.97134  0.26805  1.0000
  C   C427      1.0  0.05316  0.90036  0.28967  1.0000
  C   C428      1.0  0.03185  0.95998  0.30109  1.0000
  C   C429      1.0  0.06004  0.94665  0.24494  1.0000
  C   C430      1.0  0.03617  0.92461  0.31192  1.0000
  H   H687      1.0  0.01864  0.97842  0.31845  1.0000
  C   C431      1.0  0.06456  0.91118  0.25584  1.0000
  H   H688      1.0  0.06894  0.95505  0.21887  1.0000
  H   H689      1.0  0.96124  0.06207  0.14472  1.0000
  S   S172      1.0  0.05998  0.85685  0.30501  1.0000
  H   H690      1.0  0.98640  0.84617  0.27196  1.0000
  C   C432      1.0  0.96818  0.06620  0.17350  1.0000
  H   H691      1.0  0.94717  0.05295  0.18965  1.0000
  H   H692      1.0  0.02685  0.91625  0.33789  1.0000
  H   H693      1.0  0.99377  0.05219  0.17932  1.0000
  H   H694      1.0  0.07722  0.89239  0.23831  1.0000
  S   S173      1.0  0.61944  0.88200  0.46430  1.0000
  H   H695      1.0  0.67209  0.99998  0.37277  1.0000
  H   H696      1.0  0.64196  0.02351  0.40094  1.0000
  H   H697      1.0  0.72299  0.01984  0.41246  1.0000
  N   N44       1.0  0.67790  0.98846  0.42896  1.0000
  H   H698      1.0  0.67683  0.93209  0.41936  1.0000
  C   C433      1.0  0.65573  0.99765  0.39727  1.0000
  H   H699      1.0  0.71438  0.94756  0.44549  1.0000
  C   C434      1.0  0.69625  0.95441  0.42269  1.0000
  H   H700      1.0  0.71295  0.95560  0.39835  1.0000
  C   C435      1.0  0.70476  0.01675  0.43551  1.0000
  Fe  Fe88      1.0  0.79807  0.00949  0.55017  1.0000
  S   S174      1.0  0.77325  0.97463  0.50808  1.0000
  S   S175      1.0  0.80215  0.06889  0.54821  1.0000
  H   H701      1.0  0.72170  0.01072  0.45953  1.0000
  H   H702      1.0  0.72059  0.00509  0.55413  1.0000
  S   S176      1.0  0.62590  0.91607  0.56251  1.0000
  H   H703      1.0  0.67959  0.88460  0.51851  1.0000
  C   C436      1.0  0.73314  0.95774  0.52462  1.0000
  C   C437      1.0  0.72135  0.92390  0.51438  1.0000
  C   C438      1.0  0.68852  0.91086  0.52637  1.0000
  C   C439      1.0  0.66757  0.93158  0.54880  1.0000
  C   C440      1.0  0.67954  0.96525  0.55947  1.0000
  C   C441      1.0  0.71222  0.97842  0.54718  1.0000
  H   H704      1.0  0.73761  0.90772  0.49718  1.0000
  H   H705      1.0  0.63447  0.96368  0.45682  1.0000
  H   H706      1.0  0.64056  0.01026  0.46600  1.0000
  C   C442      1.0  0.65483  0.98506  0.46050  1.0000
  H   H707      1.0  0.67062  0.97826  0.48483  1.0000
  H   H708      1.0  0.69186  0.04287  0.44020  1.0000
  H   H709      1.0  0.63464  0.97720  0.39214  1.0000
  Fe  Fe89      1.0  0.60564  0.87632  0.52228  1.0000
  H   H710      1.0  0.66308  0.98153  0.57634  1.0000
  H   H711      1.0  0.98719  0.08609  0.56707  1.0000
  C   C443      1.0  0.97858  0.93408  0.50270  1.0000
  N   N45       1.0  0.94737  0.95112  0.51914  1.0000
  H   H712      1.0  0.90848  0.92483  0.48530  1.0000
  S   S177      1.0  0.94312  0.01985  0.40252  1.0000
  H   H713      1.0  0.93412  0.00152  0.54239  1.0000
  S   S178      1.0  0.03733  0.03682  0.36138  1.0000
  H   H714      1.0  0.97973  0.98804  0.54925  1.0000
  H   H715      1.0  0.89391  0.96621  0.50378  1.0000
  H   H716      1.0  0.95904  0.92859  0.57094  1.0000
  Fe  Fe90      1.0  0.98027  0.05252  0.36916  1.0000
  H   H717      1.0  0.00166  0.93283  0.52183  1.0000
  H   H718      1.0  0.88043  0.01678  0.44495  1.0000
  H   H719      1.0  0.92841  0.90309  0.54402  1.0000
  H   H720      1.0  0.96490  0.00396  0.50618  1.0000
  C   C444      1.0  0.89123  0.04961  0.49099  1.0000
  C   C445      1.0  0.89943  0.03441  0.45802  1.0000
  H   H721      1.0  0.98747  0.94905  0.47861  1.0000
  C   C446      1.0  0.91576  0.07221  0.50811  1.0000
  C   C447      1.0  0.94814  0.08044  0.49170  1.0000
  C   C448      1.0  0.95639  0.06512  0.45865  1.0000
  S   S179      1.0  0.85479  0.00083  0.56726  1.0000
  H   H722      1.0  0.92524  0.96596  0.46786  1.0000
  H   H723      1.0  0.86585  0.04377  0.50306  1.0000
  C   C449      1.0  0.91743  0.95203  0.49293  1.0000
  C   C450      1.0  0.93213  0.04182  0.44201  1.0000
  H   H724      1.0  0.91381  0.94330  0.56483  1.0000
  C   C451      1.0  0.93666  0.93065  0.55108  1.0000
  H   H725      1.0  0.97228  0.90642  0.49415  1.0000
  C   C452      1.0  0.95699  0.98777  0.52977  1.0000
  H   H726      1.0  0.98192  0.07050  0.44661  1.0000
  Fe  Fe91      1.0  0.85755  0.06024  0.57038  1.0000
  S   S180      1.0  0.90705  0.08766  0.55122  1.0000
  H   H727      1.0  0.75714  0.93014  0.69666  1.0000
  C   C453      1.0  0.71975  0.05382  0.74034  1.0000
  H   H728      1.0  0.69517  0.90591  0.70420  1.0000
  C   C454      1.0  0.68456  0.93246  0.69654  1.0000
  C   C455      1.0  0.75727  0.05696  0.68820  1.0000
  C   C456      1.0  0.75070  0.04394  0.72258  1.0000
  C   C457      1.0  0.69407  0.98656  0.66333  1.0000
  H   H729      1.0  0.72555  0.90401  0.64516  1.0000
  H   H730      1.0  0.66785  0.98396  0.64915  1.0000
  H   H731      1.0  0.78168  0.04985  0.67505  1.0000
  C   C458      1.0  0.74422  0.95608  0.69071  1.0000
  N   N46       1.0  0.70920  0.95142  0.67245  1.0000
  H   H732      1.0  0.69002  0.00292  0.68771  1.0000
  H   H733      1.0  0.71201  0.00197  0.64556  1.0000
  C   C459      1.0  0.71369  0.93048  0.63940  1.0000
  H   H734      1.0  0.77007  0.02692  0.73574  1.0000
  S   S181      1.0  0.71209  0.03808  0.78354  1.0000
  H   H735      1.0  0.68041  0.94772  0.72166  1.0000
  H   H736      1.0  0.65790  0.92833  0.68355  1.0000
  H   H737      1.0  0.76320  0.97160  0.67410  1.0000
  H   H738      1.0  0.74150  0.97039  0.71654  1.0000
  H   H739      1.0  0.73159  0.94426  0.62027  1.0000
  H   H740      1.0  0.68764  0.92587  0.62532  1.0000
  S   S182      1.0  0.77751  0.00731  0.60587  1.0000
  Fe  Fe92      1.0  0.78623  0.06608  0.60581  1.0000
  Fe  Fe93      1.0  0.68130  0.07988  0.81193  1.0000
  C   C460      1.0  0.69520  0.07659  0.72366  1.0000
  C   C461      1.0  0.73293  0.07996  0.67156  1.0000
  Fe  Fe94      1.0  0.83451  0.00428  0.62310  1.0000
  S   S183      1.0  0.62160  0.08192  0.81274  1.0000
  H   H741      1.0  0.67105  0.08403  0.73724  1.0000
  S   S184      1.0  0.84214  0.06310  0.62803  1.0000
  H   H742      1.0  0.66604  0.96457  0.88194  1.0000
  S   S185      1.0  0.59900  0.07026  0.91544  1.0000
  N   N47       1.0  0.99159  0.08557  0.62450  1.0000
  H   H743      1.0  0.01221  0.03708  0.60268  1.0000
  C   C462      1.0  0.01736  0.05590  0.62510  1.0000
  Fe  Fe95      1.0  0.03614  0.89232  0.66725  1.0000
  C   C463      1.0  0.89700  0.95832  0.65958  1.0000
  C   C464      1.0  0.91410  0.92903  0.67519  1.0000
  C   C465      1.0  0.95032  0.92268  0.66839  1.0000
  C   C466      1.0  0.96919  0.94567  0.64599  1.0000
  C   C467      1.0  0.91629  0.98172  0.63804  1.0000
  H   H744      1.0  0.89923  0.91091  0.69190  1.0000
  H   H745      1.0  0.96337  0.89970  0.67994  1.0000
  S   S186      1.0  0.03740  0.89122  0.72732  1.0000
  S   S187      1.0  0.85118  0.96506  0.66500  1.0000
  C   C468      1.0  0.95224  0.97526  0.63110  1.0000
  S   S188      1.0  0.01348  0.93728  0.63469  1.0000
  H   H746      1.0  0.90341  0.00477  0.62667  1.0000
  H   H747      1.0  0.96683  0.99279  0.61377  1.0000
  H   H748      1.0  0.01580  0.04031  0.65044  1.0000
  H   H749      1.0  0.94724  0.05311  0.60735  1.0000
  H   H750      1.0  0.04533  0.06567  0.62265  1.0000
  H   H751      1.0  0.95257  0.05664  0.65505  1.0000
  C   C469      1.0  0.95505  0.07148  0.62939  1.0000
  S   S189      1.0  0.09456  0.88225  0.66107  1.0000
  H   H752      1.0  0.09339  0.94829  0.71015  1.0000
  H   H753      1.0  0.09303  0.01358  0.70169  1.0000
  H   H754      1.0  0.78831  0.99173  0.97054  1.0000
  H   H755      1.0  0.74589  0.97700  0.98717  1.0000
  C   C470      1.0  0.63672  0.01136  0.89655  1.0000
  H   H756      1.0  0.64108  0.02448  0.87123  1.0000
  C   C471      1.0  0.61054  0.01037  0.95536  1.0000
  C   C472      1.0  0.61666  0.02789  0.92297  1.0000
  H   H757      1.0  0.61948  0.96277  0.98632  1.0000
  H   H758      1.0  0.75177  0.07244  0.92530  1.0000
  C   C473      1.0  0.76557  0.05444  0.94465  1.0000
  S   S190      1.0  0.68877  0.08818  0.87070  1.0000
  C   C474      1.0  0.73739  0.00180  0.92017  1.0000
  H   H759      1.0  0.72192  0.97711  0.92588  1.0000
  S   S191      1.0  0.66231  0.91759  0.94240  1.0000
  C   C475      1.0  0.64438  0.95978  0.93480  1.0000
  H   H760      1.0  0.77181  0.07016  0.96918  1.0000
  Fe  Fe96      1.0  0.62285  0.88735  0.97517  1.0000
  C   C476      1.0  0.62405  0.97615  0.96113  1.0000
  H   H761      1.0  0.71232  0.05028  0.99211  1.0000
  C   C477      1.0  0.76199  0.00098  0.98022  1.0000
  H   H762      1.0  0.69385  0.05135  0.94744  1.0000
  H   H763      1.0  0.79150  0.04680  0.93281  1.0000
  N   N48       1.0  0.74342  0.02296  0.95300  1.0000
  C   C478      1.0  0.70871  0.03454  0.96712  1.0000
  S   S192      1.0  0.62208  0.88639  0.03507  1.0000
  H   H764      1.0  0.69131  0.01140  0.97350  1.0000
  C   C479      1.0  0.65071  0.97739  0.90253  1.0000
  H   H765      1.0  0.76690  0.01621  0.00538  1.0000
  H   H766      1.0  0.76301  0.99358  0.90806  1.0000
  H   H767      1.0  0.72215  0.01709  0.89952  1.0000
  H   H768      1.0  0.59589  0.02344  0.97622  1.0000
  C   C480      1.0  0.70171  0.08951  0.68916  1.0000
