data_image0
_chemical_formula_structural       CSHNHCFeS2H2FeSHS2HSCHFeS2FeS2FeSFeS3C2FeS2FeS2Fe2S3C3H3CH2FeH3SCSH2CH2C7H3C6H5SH2SCH2CHC6H5CHCH4CHCSH2CHC2H4C3HSCSNH2CH6C2H2NSHCHCHCH7CHC2H3CH2NHCSHNC6HCHFeHFeCHSH2FeC3H3FeHCHNCHCH2SHSFeH3C2SHNH3CHC2H3C2HC3HSH2CHFeSHCH3C2H2CH3CH2C2HFeH2NCHC2H5NCH4C2FeH2NCHSC2HCH9CH4CH2CH8NSH2C2H3CH3S2FeSCH4FeH2C2SCH5FeS2FeSFeHFeS3CFeNHC2FeHFeSHS2CH2SHCH2SC6H4CHC5H5NHCHSNH2C2H4SC3SHCHSH2CHCH2CSH2CHCH8FeH3SCFeC2SH5C3HCHCSH3CFeHSHSHCHCH2CH2NHCH3NCH2C2HCHFeSHCSHFeSFeS2HSC2HCH3FeHSFeHC2SCH2C3HCH2C4HCH3CHSFeCH2FeSHCSHC2FeSCHCNCSH4SH2NH5CFeH5CNH3CSCHC3HNH2SHCSCHC2SH6S2C3FeSH3FeHFeHSH2S2CSC4SCHCH3SC2HFeH5CH3CHCHCHNHFeHCHCH3SHSHCHC2H2FeH2NCH3C4HCH2CH2C3FeHNC2SC2H8CHSHSC2SC4HCH4CSC2HSCH2CH2NC3HFe2H3CH2CH2CHNH4CHCH4CHCHSH3C2H3CFeS2H3FeSFeS4CH2C2HS2HCH2CH2CFeHNCHSHNH2C6H5CNFeCSFeCH5NHCH3CH3C5SH3CH3CHCH4C3HFeC2H3CFeH3NH4CH2C2H4NH2CH4FeS2FeSFeSFeS3CHCH2SHCH3CHCHCSHCFeCHSHNSHSHFeS2FeS2FeSFeS3C3HSHC4H6CHCHC8H5C3H2SH4CFeH3S2FeSC6H4C6H4SNH2SHCHNHNC4H3CH8NC4H14CFeHCFeH3SH2NC4H13CHSH3CH2CH2CFeCHSHCNCH5SFeHCHCHCH2CHCH7CHCHC2H2CSH3C2SCSCHC2HCFeH5NHSFeH3CHCH2CSNCHCH2C2H5CSC2NS2CSHCH4CH2C2FeHC4HC2HCSHCH2FeHSFeS2H2CHS2FeS2FeS2FeCFeS3FeS2FeSHFeSFeS3FeS2FeS2FeSFeS3C3H2C6H4C6H3C8H2C6H4C6H5C2H2SHCH3NH4C2HSCH2C3HC2H3SCHNHN2FeH6NC4H12NC4H13CH3SHCHCHFeC2SNHC4H3CH2SH2FeH2CH4CHNC2HCH5CH4CSH3FeSCH2CSH2FeH2C2HSH2FeCHC3H4SH2SCH4CFeC2H6C2HC3H4CH4SCH2CSHCS3FeS2FeHSHCHCS2CSH2C2FeS2FeHFeCSH3SCHC3H2SCFeHC5H3SHSH4FeCH2SHS2C2H4SC6H7SH3SHCH2NCFeHFeH2SC2H3CHCH2SHCHNCFeHC2SH2C6H3SC2NCFeH5C5SH5C3H3C5HCFeCFeSC2HCHSHCHFeH4CSNSFeCH4FeSCH3CHCHCHCSH5CH2CHC3NC2HSH3CH3C2H2NHC2H4CFeH8NC2HCH2CSH2SHSFeSFeSHFeSHFeSFeS3FeS2FeS2FeSFeS3FeS2FeCSFeCHS2CFeH5CSH5SHCH3CH3CHCFeSH3NC6H5CHCH6C6H4C5H3C6H4C6H4C2HC4H5S2H4NH2C2HFeSC2H3CH4SHC2HNCHCHCH5C2H4NC2H2SFeSCH2SH3C2NHC2H2SH4CHNC3H14C2H3CHNCH5C3HC2SH3FeH2CSHCHC2H2NHFeHNCHCHCFeH3CNHSCH2FeS2FeSHFeSFeS3C2NC2HC2HCFeCH2CH3CHSH2SH2SHFeC2H5CSC7H4CHC4H3C3SC2H2CHSC5H4FeH3CFeCH4SH7CNHSCS2CHCHFe2H5CSCNH4SCH2CS2CSCNCFeC2H3CHCH2C2NC4H13CH2CHNHSCH3CH4CH3CHCH2C3HSCHSH3CH2CH2C2HCSHFeSH2SH2SFeSCFeS2FeS2FeNFeS4CHC4HSH2NC6H4C6H4C2SHCSH2CH3SHSC2HC2NC4H10SHFeH3CHSH4CH2SCH2CHFeCHSCH2CH4C2SNCHFeHNCHC3HCHFeHSCH3SFeHSNHCHCH4CH8CH5FeHCFeHCHCHFeH2SCH2CH2FeCSH2SCS2H3NCHCHC3FeHCFeH2CH2C2SFeHC2HCH2FeH2CH2CH4C3H2NCH3CH4CHFeHSHSC3SCFeH2SHFeS2FeSFeSFeS3FeSNFeS2Fe2S3C2H2FeS2HC2H3FeH6SH4SCH2C2H2CHNH3C2H3CFeHC5H4C4HCH2C6H6C2FeH4NH4C4HCH4C6H4SC2H3CH3FeSNHCH3C2H3CHCH2CHNH2CS2H2SHFeH2CFeC2SFeSCH3CHCNHC2H2CH5CH5SC2SC2HSH4CHCNHSH2C2HSH5FeS2HCHC2H3SHSH3CFeNHC2HCSH2C2HCHSCH4CNFeH2NFeHSCHCHNHCFeHNCH2CHCHCH2CH2CFeHC4HC2SHCH3SC2HSHCHC2H3C2HCFeH2CHCH3SH2SH4SHSHSC2H2SH2C2H2C2H3CNSCHCHCH5CSH2CH4NHCH4FeCSCH2C2HFeC3HC2H5SCHC2H3FeCS2CH2SNCSC2H8FeSCH3SCH3C3NH3CHSH2FeSH4CH2C2SHCHCHCH
_chemical_formula_sum              "C960 S384 H1536 N96 Fe192"
_cell_length_a       77.3365
_cell_length_b       77.5845
_cell_length_c       78.5755
_cell_angle_alpha    76.9507
_cell_angle_beta     76.8802
_cell_angle_gamma    76.9768

_space_group_name_H-M_alt    "P 1"
_space_group_IT_number       1

loop_
  _space_group_symop_operation_xyz
  'x, y, z'

loop_
  _atom_site_type_symbol
  _atom_site_label
  _atom_site_symmetry_multiplicity
  _atom_site_fract_x
  _atom_site_fract_y
  _atom_site_fract_z
  _atom_site_occupancy
  C   C1        1.0  0.44209  0.18356  0.07536  1.0000
  S   S1        1.0  0.26159  0.04813  0.01307  1.0000
  H   H1        1.0  0.45036  0.12781  0.05567  1.0000
  N   N1        1.0  0.01075  0.17570  0.25366  1.0000
  H   H2        1.0  0.19751  0.00854  0.21022  1.0000
  C   C2        1.0  0.24154  0.02044  0.17070  1.0000
  Fe  Fe1       1.0  0.05484  0.19443  0.16002  1.0000
  S   S2        1.0  0.03668  0.17534  0.16047  1.0000
  S   S3        1.0  0.08101  0.19684  0.14086  1.0000
  H   H3        1.0  0.40439  0.07777  0.06179  1.0000
  H   H4        1.0  0.40142  0.05219  0.04890  1.0000
  Fe  Fe2       1.0  0.03785  0.16790  0.18950  1.0000
  S   S4        1.0  0.04243  0.14027  0.20587  1.0000
  H   H5        1.0  0.20224  0.11456  0.03952  1.0000
  S   S5        1.0  0.05756  0.18519  0.18862  1.0000
  S   S6        1.0  0.41960  0.20515  0.05339  1.0000
  H   H6        1.0  0.09898  0.14422  0.17572  1.0000
  S   S7        1.0  0.27813  0.11666  0.06250  1.0000
  C   C3        1.0  0.01816  0.12282  0.23065  1.0000
  H   H7        1.0  0.11350  0.12216  0.15582  1.0000
  Fe  Fe3       1.0  0.13833  0.12533  0.09198  1.0000
  S   S8        1.0  0.15815  0.12570  0.10878  1.0000
  S   S9        1.0  0.10839  0.13528  0.09554  1.0000
  Fe  Fe4       1.0  0.16614  0.10504  0.06644  1.0000
  S   S10       1.0  0.18867  0.10286  0.08071  1.0000
  S   S11       1.0  0.17052  0.09728  0.03988  1.0000
  Fe  Fe5       1.0  0.16830  0.09699  0.10551  1.0000
  S   S12       1.0  0.17732  0.07742  0.12883  1.0000
  Fe  Fe6       1.0  0.17707  0.13158  0.08284  1.0000
  S   S13       1.0  0.19541  0.15164  0.07606  1.0000
  S   S14       1.0  0.14684  0.09592  0.09103  1.0000
  S   S15       1.0  0.15621  0.13436  0.06634  1.0000
  C   C4        1.0  0.44041  0.19711  0.06036  1.0000
  C   C5        1.0  0.29788  0.15614  0.06621  1.0000
  Fe  Fe7       1.0  0.37640  0.17610  0.03715  1.0000
  S   S16       1.0  0.40639  0.17366  0.02978  1.0000
  S   S17       1.0  0.18990  0.01339  0.04359  1.0000
  Fe  Fe8       1.0  0.37748  0.16002  0.07594  1.0000
  S   S18       1.0  0.40773  0.15576  0.07205  1.0000
  S   S19       1.0  0.35841  0.15187  0.10104  1.0000
  Fe  Fe9       1.0  0.40420  0.18335  0.05512  1.0000
  Fe  Fe10      1.0  0.40699  0.14652  0.04722  1.0000
  S   S20       1.0  0.42532  0.12286  0.03717  1.0000
  S   S21       1.0  0.37390  0.18841  0.06098  1.0000
  S   S22       1.0  0.37712  0.14812  0.05265  1.0000
  C   C6        1.0  0.43234  0.11097  0.00576  1.0000
  C   C7        1.0  0.42065  0.12237  0.01655  1.0000
  C   C8        1.0  0.40483  0.13273  0.01118  1.0000
  H   H8        1.0  0.44468  0.10306  0.00975  1.0000
  H   H9        1.0  0.39588  0.14182  0.01923  1.0000
  H   H10       1.0  0.02904  0.11716  0.23797  1.0000
  C   C9        1.0  0.01293  0.18566  0.26677  1.0000
  H   H11       1.0  0.29225  0.14920  0.05834  1.0000
  H   H12       1.0  0.27612  0.01337  0.03203  1.0000
  Fe  Fe11      1.0  0.25054  0.02412  0.01209  1.0000
  H   H13       1.0  0.22908  0.06149  0.07251  1.0000
  H   H14       1.0  0.10513  0.15766  0.03886  1.0000
  H   H15       1.0  0.28843  0.00486  0.05982  1.0000
  S   S23       1.0  0.29449  0.02643  0.08246  1.0000
  C   C10       1.0  0.28447  0.05035  0.05346  1.0000
  S   S24       1.0  0.23314  0.00055  0.18066  1.0000
  H   H16       1.0  0.21176  0.10861  0.16510  1.0000
  H   H17       1.0  0.24331  0.10720  0.13352  1.0000
  C   C11       1.0  0.02126  0.13430  0.21422  1.0000
  H   H18       1.0  0.07379  0.11624  0.19189  1.0000
  H   H19       1.0  0.21709  0.12751  0.02343  1.0000
  C   C12       1.0  0.00426  0.15888  0.26292  1.0000
  C   C13       1.0  0.35160  0.09537  0.10029  1.0000
  C   C14       1.0  0.36789  0.10110  0.09211  1.0000
  C   C15       1.0  0.37020  0.11831  0.09277  1.0000
  C   C16       1.0  0.35636  0.12966  0.10198  1.0000
  C   C17       1.0  0.34042  0.12359  0.11095  1.0000
  C   C18       1.0  0.33800  0.10646  0.11003  1.0000
  H   H20       1.0  0.38276  0.12276  0.08628  1.0000
  H   H21       1.0  0.32983  0.13224  0.11834  1.0000
  H   H22       1.0  0.32572  0.10178  0.11703  1.0000
  C   C19       1.0  0.25513  0.12620  0.06670  1.0000
  C   C20       1.0  0.24915  0.14341  0.05752  1.0000
  C   C21       1.0  0.23081  0.15127  0.06061  1.0000
  C   C22       1.0  0.21832  0.14174  0.07254  1.0000
  C   C23       1.0  0.22426  0.12444  0.08157  1.0000
  C   C24       1.0  0.24268  0.11674  0.07881  1.0000
  H   H23       1.0  0.25871  0.15078  0.04811  1.0000
  H   H24       1.0  0.22625  0.16468  0.05364  1.0000
  H   H25       1.0  0.21470  0.11722  0.09098  1.0000
  H   H26       1.0  0.24720  0.10350  0.08595  1.0000
  H   H27       1.0  0.43032  0.17835  0.08320  1.0000
  S   S25       1.0  0.34820  0.07472  0.09740  1.0000
  H   H28       1.0  0.37866  0.09234  0.08509  1.0000
  H   H29       1.0  0.08499  0.15729  0.16028  1.0000
  S   S26       1.0  0.49601  0.17229  0.07377  1.0000
  C   C25       1.0  0.19094  0.02337  0.13621  1.0000
  H   H30       1.0  0.24531  0.05913  0.18200  1.0000
  H   H31       1.0  0.06657  0.11928  0.15459  1.0000
  C   C26       1.0  0.27825  0.02373  0.03807  1.0000
  H   H32       1.0  0.05590  0.13449  0.16964  1.0000
  C   C27       1.0  0.08836  0.18100  0.12675  1.0000
  C   C28       1.0  0.10689  0.17593  0.12051  1.0000
  C   C29       1.0  0.11315  0.16228  0.11035  1.0000
  C   C30       1.0  0.10084  0.15382  0.10628  1.0000
  C   C31       1.0  0.08228  0.15932  0.11196  1.0000
  C   C32       1.0  0.07605  0.17286  0.12226  1.0000
  H   H33       1.0  0.11643  0.18233  0.12385  1.0000
  H   H34       1.0  0.12749  0.15820  0.10587  1.0000
  H   H35       1.0  0.07272  0.15288  0.10874  1.0000
  H   H36       1.0  0.06173  0.17708  0.12662  1.0000
  H   H37       1.0  0.23410  0.08018  0.13054  1.0000
  C   C33       1.0  0.39853  0.06203  0.03671  1.0000
  H   H38       1.0  0.18710  0.10587  0.14071  1.0000
  C   C34       1.0  0.23983  0.03337  0.18112  1.0000
  H   H39       1.0  0.37467  0.06898  0.06606  1.0000
  H   H40       1.0  0.10077  0.13626  0.13989  1.0000
  H   H41       1.0  0.48434  0.20210  0.04709  1.0000
  H   H42       1.0  0.46041  0.16605  0.09165  1.0000
  C   C35       1.0  0.37248  0.07853  0.05349  1.0000
  H   H43       1.0  0.23055  0.11981  0.11684  1.0000
  C   C36       1.0  0.28812  0.03225  0.06162  1.0000
  S   S27       1.0  0.23989  0.00758  0.03798  1.0000
  H   H44       1.0  0.16985  0.02964  0.10121  1.0000
  H   H45       1.0  0.10384  0.11331  0.06892  1.0000
  C   C37       1.0  0.22023  0.08773  0.12962  1.0000
  H   H46       1.0  0.22833  0.08909  0.16072  1.0000
  C   C38       1.0  0.18511  0.04835  0.02616  1.0000
  C   C39       1.0  0.10774  0.14600  0.04974  1.0000
  H   H47       1.0  0.21091  0.07807  0.13581  1.0000
  H   H48       1.0  0.09797  0.11146  0.18633  1.0000
  H   H49       1.0  0.06696  0.14288  0.14767  1.0000
  H   H50       1.0  0.36295  0.07362  0.04782  1.0000
  C   C40       1.0  0.38322  0.19518  0.99013  1.0000
  C   C41       1.0  0.47260  0.19697  0.05509  1.0000
  C   C42       1.0  0.18325  0.03665  0.04255  1.0000
  H   H51       1.0  0.02268  0.17749  0.27527  1.0000
  S   S28       1.0  0.19011  0.99730  0.11816  1.0000
  C   C43       1.0  0.22968  0.11482  0.13138  1.0000
  S   S29       1.0  0.31124  0.07258  0.07407  1.0000
  N   N2        1.0  0.31777  0.15103  0.06369  1.0000
  H   H52       1.0  0.05421  0.05395  0.30863  1.0000
  H   H53       1.0  0.21329  0.08091  0.02241  1.0000
  C   C44       1.0  0.38695  0.22560  0.02106  1.0000
  H   H54       1.0  0.34066  0.15211  0.04221  1.0000
  H   H55       1.0  0.30530  0.01326  0.11712  1.0000
  H   H56       1.0  0.19829  0.01291  0.14486  1.0000
  H   H57       1.0  0.22700  0.09995  0.05577  1.0000
  H   H58       1.0  0.33798  0.20995  0.99269  1.0000
  H   H59       1.0  0.38984  0.05654  0.03052  1.0000
  C   C45       1.0  0.11605  0.11378  0.05821  1.0000
  C   C46       1.0  0.17511  0.03290  0.11146  1.0000
  H   H60       1.0  0.29389  0.00972  0.13993  1.0000
  H   H61       1.0  0.39575  0.10043  0.05199  1.0000
  N   N3        1.0  0.38971  0.07995  0.04092  1.0000
  S   S30       1.0  0.35649  0.18615  0.01877  1.0000
  H   H62       1.0  0.39283  0.18604  0.99751  1.0000
  C   C47       1.0  0.32469  0.16074  0.07411  1.0000
  H   H63       1.0  0.44839  0.14888  0.02605  1.0000
  C   C48       1.0  0.17272  0.05085  0.11338  1.0000
  H   H64       1.0  0.33967  0.15744  0.07223  1.0000
  C   C49       1.0  0.09805  0.12629  0.03547  1.0000
  H   H65       1.0  0.19783  0.11908  0.12104  1.0000
  H   H66       1.0  0.23334  0.03105  0.19496  1.0000
  H   H67       1.0  0.08471  0.10092  0.17702  1.0000
  H   H68       1.0  0.19258  0.99648  0.24293  1.0000
  H   H69       1.0  0.07491  0.14852  0.18250  1.0000
  H   H70       1.0  0.47594  0.15071  0.05836  1.0000
  H   H71       1.0  0.22675  0.12677  0.13787  1.0000
  C   C50       1.0  0.19006  0.99831  0.20895  1.0000
  H   H72       1.0  0.21756  0.02942  0.06551  1.0000
  C   C51       1.0  0.46894  0.15419  0.04680  1.0000
  C   C52       1.0  0.23898  0.04864  0.07244  1.0000
  H   H73       1.0  0.09965  0.11283  0.14600  1.0000
  H   H74       1.0  0.20482  0.11395  0.01645  1.0000
  H   H75       1.0  0.32095  0.17559  0.07008  1.0000
  C   C53       1.0  0.35231  0.20847  0.98731  1.0000
  H   H76       1.0  0.16572  0.06137  0.10450  1.0000
  H   H77       1.0  0.10146  0.11337  0.03046  1.0000
  N   N4        1.0  0.11283  0.12875  0.04323  1.0000
  H   H78       1.0  0.19522  0.99524  0.19534  1.0000
  C   C54       1.0  0.17691  0.04360  0.05823  1.0000
  S   S31       1.0  0.22605  0.02708  0.00033  1.0000
  H   H79       1.0  0.03859  0.16255  0.24938  1.0000
  N   N5        1.0  0.08493  0.12882  0.16562  1.0000
  C   C55       1.0  0.08541  0.11366  0.18087  1.0000
  C   C56       1.0  0.06786  0.13146  0.15909  1.0000
  C   C57       1.0  0.10040  0.12477  0.15124  1.0000
  C   C58       1.0  0.08603  0.14541  0.17127  1.0000
  C   C59       1.0  0.27378  0.04188  0.03040  1.0000
  C   C60       1.0  0.25010  0.02349  0.15282  1.0000
  H   H80       1.0  0.32233  0.17059  0.03965  1.0000
  C   C61       1.0  0.32566  0.15583  0.04464  1.0000
  H   H81       1.0  0.20420  0.04390  0.08041  1.0000
  Fe  Fe12      1.0  0.21654  0.00850  0.02535  1.0000
  H   H82       1.0  0.19334  0.04445  0.14881  1.0000
  Fe  Fe13      1.0  0.31897  0.07397  0.09941  1.0000
  C   C62       1.0  0.45559  0.20408  0.05049  1.0000
  H   H83       1.0  0.45433  0.21463  0.03895  1.0000
  S   S32       1.0  0.29533  0.09552  0.10651  1.0000
  H   H84       1.0  0.25162  0.01350  0.14478  1.0000
  H   H85       1.0  0.25135  0.05055  0.07623  1.0000
  Fe  Fe14      1.0  0.01422  0.19779  0.16842  1.0000
  C   C63       1.0  0.21510  0.09714  0.15789  1.0000
  C   C64       1.0  0.12951  0.12887  0.02957  1.0000
  C   C65       1.0  0.45907  0.17676  0.08025  1.0000
  H   H86       1.0  0.47213  0.11865  0.06142  1.0000
  H   H87       1.0  0.41501  0.08759  0.04007  1.0000
  H   H88       1.0  0.03369  0.18366  0.23466  1.0000
  Fe  Fe15      1.0  0.28642  0.09223  0.08246  1.0000
  H   H89       1.0  0.01308  0.15060  0.27232  1.0000
  C   C66       1.0  0.00084  0.11892  0.23777  1.0000
  H   H90       1.0  0.23397  0.09868  0.00049  1.0000
  N   N6        1.0  0.21574  0.10345  0.13857  1.0000
  C   C67       1.0  0.28540  0.01890  0.05370  1.0000
  H   H91       1.0  0.20480  0.08841  0.16372  1.0000
  C   C68       1.0  0.19792  0.11408  0.13547  1.0000
  H   H92       1.0  0.12012  0.10051  0.05386  1.0000
  H   H93       1.0  0.41262  0.23831  0.02999  1.0000
  S   S33       1.0  0.26375  0.07230  0.14735  1.0000
  H   H94       1.0  0.17553  0.00458  0.20980  1.0000
  S   S34       1.0  0.01364  0.18827  0.19751  1.0000
  Fe  Fe16      1.0  0.28130  0.07245  0.12049  1.0000
  H   H95       1.0  0.21937  0.09182  0.11531  1.0000
  H   H96       1.0  0.18957  0.04303  0.01399  1.0000
  H   H97       1.0  0.19409  0.12604  0.14204  1.0000
  C   C69       1.0  0.47441  0.18313  0.06981  1.0000
  C   C70       1.0  0.17484  0.07395  0.04111  1.0000
  S   S35       1.0  0.27002  0.07113  0.09708  1.0000
  H   H98       1.0  0.31689  0.12734  0.08405  1.0000
  N   N7        1.0  0.47221  0.13882  0.03762  1.0000
  H   H99       1.0  0.16836  0.06758  0.06973  1.0000
  H   H100      1.0  0.18209  0.07599  0.01267  1.0000
  H   H101      1.0  0.32063  0.14889  0.03631  1.0000
  C   C71       1.0  0.22029  0.08203  0.03293  1.0000
  H   H102      1.0  0.08530  0.12608  0.04550  1.0000
  C   C72       1.0  0.40026  0.13107  0.99545  1.0000
  C   C73       1.0  0.17931  0.05504  0.12681  1.0000
  H   H103      1.0  0.01794  0.19837  0.26005  1.0000
  H   H104      1.0  0.25745  0.01756  0.08823  1.0000
  H   H105      1.0  0.17537  0.03450  0.07085  1.0000
  C   C74       1.0  0.17296  0.06227  0.05756  1.0000
  C   C75       1.0  0.18073  0.06699  0.02542  1.0000
  H   H106      1.0  0.29147  0.15240  0.08039  1.0000
  C   C76       1.0  0.24659  0.04927  0.17379  1.0000
  C   C77       1.0  0.25534  0.05226  0.15604  1.0000
  C   C78       1.0  0.18460  0.01921  0.12257  1.0000
  H   H107      1.0  0.23948  0.00505  0.09287  1.0000
  S   S36       1.0  0.02907  0.22085  0.21692  1.0000
  H   H108      1.0  0.38003  0.10636  0.02694  1.0000
  H   H109      1.0  0.09536  0.14625  0.06030  1.0000
  C   C79       1.0  0.27744  0.05516  0.03777  1.0000
  H   H110      1.0  0.22188  0.02588  0.11264  1.0000
  Fe  Fe17      1.0  0.29572  0.05169  0.09089  1.0000
  S   S37       1.0  0.30572  0.05110  0.11561  1.0000
  H   H111      1.0  0.13400  0.11586  0.02469  1.0000
  C   C80       1.0  0.18821  0.04127  0.13838  1.0000
  H   H112      1.0  0.31948  0.15713  0.08863  1.0000
  H   H113      1.0  0.39048  0.23644  0.98543  1.0000
  H   H114      1.0  0.46600  0.11223  0.04323  1.0000
  C   C81       1.0  0.00723  0.14158  0.20474  1.0000
  C   C82       1.0  0.00866  0.23619  0.21691  1.0000
  H   H115      1.0  0.23920  0.03915  0.10730  1.0000
  H   H116      1.0  0.28655  0.06074  0.05946  1.0000
  C   C83       1.0  0.22708  0.03725  0.10302  1.0000
  H   H117      1.0  0.21651  0.04953  0.10429  1.0000
  H   H118      1.0  0.20913  0.02010  0.08811  1.0000
  H   H119      1.0  0.36557  0.09174  0.05722  1.0000
  C   C84       1.0  0.23650  0.10004  0.04280  1.0000
  H   H120      1.0  0.24794  0.08859  0.04455  1.0000
  H   H121      1.0  0.31795  0.12363  0.06213  1.0000
  C   C85       1.0  0.24490  0.01674  0.08402  1.0000
  C   C86       1.0  0.41701  0.22014  0.00357  1.0000
  H   H122      1.0  0.12759  0.13985  0.01793  1.0000
  Fe  Fe18      1.0  0.24028  0.00159  0.99051  1.0000
  H   H123      1.0  0.26380  0.04168  0.13175  1.0000
  H   H124      1.0  0.27442  0.06915  0.03163  1.0000
  N   N8        1.0  0.23145  0.03358  0.08472  1.0000
  C   C87       1.0  0.21489  0.03168  0.07944  1.0000
  H   H125      1.0  0.24890  0.01371  0.07034  1.0000
  C   C88       1.0  0.32286  0.13141  0.06979  1.0000
  C   C89       1.0  0.25706  0.03939  0.14549  1.0000
  H   H126      1.0  0.11857  0.14826  0.05578  1.0000
  H   H127      1.0  0.33777  0.12709  0.06847  1.0000
  H   H128      1.0  0.24616  0.11202  0.00779  1.0000
  H   H129      1.0  0.12704  0.11537  0.06434  1.0000
  H   H130      1.0  0.14089  0.13084  0.03500  1.0000
  N   N9        1.0  0.22737  0.09900  0.02854  1.0000
  C   C90       1.0  0.21227  0.11445  0.02687  1.0000
  H   H131      1.0  0.25191  0.08787  0.01231  1.0000
  H   H132      1.0  0.45427  0.15854  0.05177  1.0000
  H   H133      1.0  0.29353  0.17089  0.06197  1.0000
  H   H134      1.0  0.49488  0.12154  0.02480  1.0000
  C   C91       1.0  0.46490  0.12368  0.05002  1.0000
  C   C92       1.0  0.24042  0.09947  0.01154  1.0000
  Fe  Fe19      1.0  0.03333  0.20637  0.19423  1.0000
  H   H135      1.0  0.09521  0.13737  0.02413  1.0000
  H   H136      1.0  0.46506  0.13295  0.01488  1.0000
  N   N10       1.0  0.02882  0.04581  0.31102  1.0000
  C   C93       1.0  0.36469  0.19714  0.99728  1.0000
  H   H137      1.0  0.39162  0.21744  0.03330  1.0000
  S   S38       1.0  0.03233  0.21763  0.16552  1.0000
  C   C94       1.0  0.46318  0.14429  0.02204  1.0000
  C   C95       1.0  0.41183  0.11945  0.98479  1.0000
  H   H138      1.0  0.24280  0.04607  0.05857  1.0000
  C   C96       1.0  0.38618  0.09254  0.02438  1.0000
  H   H139      1.0  0.21030  0.08118  0.04561  1.0000
  H   H140      1.0  0.39889  0.09353  0.01447  1.0000
  H   H141      1.0  0.37688  0.08811  0.01800  1.0000
  H   H142      1.0  0.47386  0.16607  0.03779  1.0000
  H   H143      1.0  0.24211  0.11266  0.03981  1.0000
  H   H144      1.0  0.46850  0.15566  0.01240  1.0000
  H   H145      1.0  0.43714  0.10088  0.98151  1.0000
  H   H146      1.0  0.38778  0.13875  0.99160  1.0000
  H   H147      1.0  0.41159  0.06265  0.02722  1.0000
  C   C97       1.0  0.40172  0.08670  0.04906  1.0000
  H   H148      1.0  0.23134  0.07007  0.03402  1.0000
  H   H149      1.0  0.19449  0.99447  0.08033  1.0000
  H   H150      1.0  0.42839  0.22611  0.99464  1.0000
  H   H151      1.0  0.38227  0.21646  0.01475  1.0000
  C   C98       1.0  0.03218  0.04364  0.29228  1.0000
  H   H152      1.0  0.99989  0.18940  0.27577  1.0000
  H   H153      1.0  0.37500  0.23576  0.02530  1.0000
  C   C99       1.0  0.42805  0.10973  0.98974  1.0000
  H   H154      1.0  0.00375  0.15043  0.25339  1.0000
  H   H155      1.0  0.01925  0.04499  0.28767  1.0000
  H   H156      1.0  0.42234  0.21159  0.01536  1.0000
  H   H157      1.0  0.02492  0.07474  0.30433  1.0000
  H   H158      1.0  0.00967  0.15033  0.19197  1.0000
  H   H159      1.0  0.02706  0.16406  0.23156  1.0000
  H   H160      1.0  0.00175  0.23278  0.24547  1.0000
  H   H161      1.0  0.41321  0.21105  0.99650  1.0000
  N   N11       1.0  0.40148  0.23419  0.00883  1.0000
  S   S39       1.0  0.26585  0.00031  0.00001  1.0000
  H   H162      1.0  0.00223  0.19943  0.23519  1.0000
  H   H163      1.0  0.28207  0.01108  0.12227  1.0000
  C   C100      1.0  0.02829  0.17130  0.24182  1.0000
  C   C101      1.0  0.29525  0.00595  0.12676  1.0000
  H   H164      1.0  0.04030  0.03011  0.29054  1.0000
  H   H165      1.0  0.03967  0.05394  0.28336  1.0000
  H   H166      1.0  0.49545  0.14570  0.99198  1.0000
  C   C102      1.0  0.49184  0.13321  0.03173  1.0000
  H   H167      1.0  0.00452  0.06566  0.30920  1.0000
  H   H168      1.0  0.99846  0.11000  0.25042  1.0000
  H   H169      1.0  0.17086  0.99210  0.24228  1.0000
  S   S40       1.0  0.00526  0.04054  0.37491  1.0000
  S   S41       1.0  0.01619  0.99464  0.35687  1.0000
  Fe  Fe20      1.0  0.02117  0.01258  0.37337  1.0000
  S   S42       1.0  0.05062  0.01088  0.36143  1.0000
  C   C103      1.0  0.08962  0.99422  0.32622  1.0000
  H   H170      1.0  0.08145  0.00247  0.33551  1.0000
  H   H171      1.0  0.11458  0.99557  0.33326  1.0000
  H   H172      1.0  0.01700  0.03248  0.33656  1.0000
  H   H173      1.0  0.01557  0.06592  0.32686  1.0000
  Fe  Fe21      1.0  0.04599  0.99140  0.34665  1.0000
  H   H174      1.0  0.04404  0.04523  0.33096  1.0000
  H   H175      1.0  0.00514  0.03364  0.31902  1.0000
  C   C104      1.0  0.01802  0.06384  0.31288  1.0000
  C   C105      1.0  0.04621  0.04373  0.31680  1.0000
  S   S43       1.0  0.05803  0.99155  0.31780  1.0000
  C   C106      1.0  0.01879  0.03192  0.32224  1.0000
  H   H176      1.0  0.02601  0.01815  0.32049  1.0000
  H   H177      1.0  0.05460  0.03017  0.31576  1.0000
  H   H178      1.0  0.47126  0.08809  0.87904  1.0000
  H   H179      1.0  0.49079  0.18509  0.91986  1.0000
  H   H180      1.0  0.27490  0.00168  0.90561  1.0000
  Fe  Fe22      1.0  0.45067  0.07727  0.92627  1.0000
  S   S44       1.0  0.43031  0.10225  0.92035  1.0000
  S   S45       1.0  0.44869  0.05187  0.91646  1.0000
  Fe  Fe23      1.0  0.47130  0.09778  0.94416  1.0000
  S   S46       1.0  0.45194  0.12359  0.93834  1.0000
  Fe  Fe24      1.0  0.43077  0.10631  0.94753  1.0000
  H   H181      1.0  0.46818  0.08507  0.83307  1.0000
  Fe  Fe25      1.0  0.45395  0.11640  0.91181  1.0000
  S   S47       1.0  0.45642  0.13408  0.88478  1.0000
  S   S48       1.0  0.44974  0.08039  0.95457  1.0000
  S   S49       1.0  0.47471  0.09146  0.91654  1.0000
  C   C107      1.0  0.35836  0.21832  0.97058  1.0000
  Fe  Fe26      1.0  0.44689  0.22263  0.90794  1.0000
  N   N12       1.0  0.45546  0.08728  0.86002  1.0000
  H   H182      1.0  0.27916  0.02063  0.91261  1.0000
  C   C108      1.0  0.47937  0.19972  0.97034  1.0000
  C   C109      1.0  0.38931  0.20511  0.97334  1.0000
  Fe  Fe27      1.0  0.44903  0.21085  0.94665  1.0000
  H   H183      1.0  0.48362  0.24052  0.97662  1.0000
  Fe  Fe28      1.0  0.39240  0.00974  0.86284  1.0000
  S   S50       1.0  0.39687  0.03572  0.86996  1.0000
  H   H184      1.0  0.40645  0.17077  0.90516  1.0000
  S   S51       1.0  0.39976  0.00129  0.83579  1.0000
  S   S52       1.0  0.45906  0.21561  0.88112  1.0000
  C   C110      1.0  0.45068  0.10713  0.85588  1.0000
  H   H185      1.0  0.41820  0.14948  0.94931  1.0000
  H   H186      1.0  0.39719  0.13994  0.93419  1.0000
  S   S53       1.0  0.38390  0.23017  0.94313  1.0000
  H   H187      1.0  0.43649  0.08252  0.84607  1.0000
  C   C111      1.0  0.38764  0.18498  0.93370  1.0000
  H   H188      1.0  0.42151  0.17777  0.91539  1.0000
  H   H189      1.0  0.45723  0.16406  0.85591  1.0000
  S   S54       1.0  0.43239  0.20438  0.93005  1.0000
  C   C112      1.0  0.43348  0.04736  0.90436  1.0000
  C   C113      1.0  0.43685  0.03060  0.89891  1.0000
  C   C114      1.0  0.42564  0.02662  0.88884  1.0000
  C   C115      1.0  0.41084  0.03942  0.88384  1.0000
  C   C116      1.0  0.40742  0.05617  0.88937  1.0000
  C   C117      1.0  0.41849  0.06006  0.89965  1.0000
  H   H190      1.0  0.44829  0.02056  0.90246  1.0000
  H   H191      1.0  0.42862  0.01369  0.88475  1.0000
  H   H192      1.0  0.39602  0.06621  0.88574  1.0000
  H   H193      1.0  0.41545  0.07293  0.90384  1.0000
  C   C118      1.0  0.45956  0.19270  0.88203  1.0000
  H   H194      1.0  0.46455  0.06683  0.88126  1.0000
  C   C119      1.0  0.45886  0.18667  0.86677  1.0000
  C   C120      1.0  0.45819  0.15644  0.88385  1.0000
  C   C121      1.0  0.45946  0.16234  0.89898  1.0000
  C   C122      1.0  0.46021  0.18044  0.89806  1.0000
  C   C123      1.0  0.27735  0.00638  0.91711  1.0000
  H   H195      1.0  0.46224  0.11354  0.85579  1.0000
  H   H196      1.0  0.45989  0.15299  0.91137  1.0000
  H   H197      1.0  0.46146  0.18488  0.90971  1.0000
  H   H198      1.0  0.38056  0.15681  0.92426  1.0000
  H   H199      1.0  0.47490  0.06595  0.84952  1.0000
  N   N13       1.0  0.39951  0.16714  0.93371  1.0000
  H   H200      1.0  0.39906  0.16175  0.96191  1.0000
  C   C124      1.0  0.38852  0.15339  0.93509  1.0000
  H   H201      1.0  0.45845  0.19607  0.85432  1.0000
  S   S55       1.0  0.40567  0.11672  0.96563  1.0000
  N   N14       1.0  0.29321  0.99490  0.92405  1.0000
  H   H202      1.0  0.39552  0.19570  0.93240  1.0000
  H   H203      1.0  0.49545  0.15913  0.90461  1.0000
  C   C125      1.0  0.41301  0.16750  0.91701  1.0000
  C   C126      1.0  0.30951  0.99589  0.91001  1.0000
  H   H204      1.0  0.38017  0.18883  0.92246  1.0000
  H   H205      1.0  0.41689  0.17293  0.94876  1.0000
  H   H206      1.0  0.42226  0.15425  0.91663  1.0000
  H   H207      1.0  0.33099  0.99211  0.79783  1.0000
  S   S56       1.0  0.24342  0.99857  0.96211  1.0000
  C   C127      1.0  0.46015  0.08170  0.87791  1.0000
  C   C128      1.0  0.47113  0.08092  0.84679  1.0000
  C   C129      1.0  0.29558  0.00126  0.93960  1.0000
  S   S57       1.0  0.46437  0.18940  0.96426  1.0000
  H   H208      1.0  0.48318  0.08642  0.84701  1.0000
  C   C130      1.0  0.37684  0.21691  0.96370  1.0000
  H   H209      1.0  0.40362  0.20374  0.96793  1.0000
  S   S58       1.0  0.36441  0.00313  0.86660  1.0000
  H   H210      1.0  0.26485  0.00626  0.92745  1.0000
  H   H211      1.0  0.44267  0.06441  0.86365  1.0000
  C   C131      1.0  0.45811  0.16858  0.86769  1.0000
  H   H212      1.0  0.44838  0.08548  0.88835  1.0000
  C   C132      1.0  0.47556  0.21831  0.97004  1.0000
  H   H213      1.0  0.37894  0.15189  0.94804  1.0000
  H   H214      1.0  0.37750  0.18529  0.94627  1.0000
  C   C133      1.0  0.40883  0.16266  0.94906  1.0000
  S   S59       1.0  0.46531  0.22683  0.92405  1.0000
  H   H215      1.0  0.47429  0.16056  0.93405  1.0000
  H   H216      1.0  0.44657  0.11191  0.84269  1.0000
  C   C134      1.0  0.48604  0.15325  0.94032  1.0000
  H   H217      1.0  0.48612  0.13856  0.94228  1.0000
  C   C135      1.0  0.43991  0.07936  0.85957  1.0000
  H   H218      1.0  0.46340  0.22642  0.96596  1.0000
  H   H219      1.0  0.31235  0.00982  0.90584  1.0000
  H   H220      1.0  0.48994  0.23120  0.88680  1.0000
  H   H221      1.0  0.48357  0.15683  0.95370  1.0000
  H   H222      1.0  0.42763  0.08456  0.86881  1.0000
  H   H223      1.0  0.43931  0.11238  0.86605  1.0000
  H   H224      1.0  0.29778  0.01543  0.93601  1.0000
  H   H225      1.0  0.30740  0.99284  0.94521  1.0000
  Fe  Fe29      1.0  0.37317  0.99126  0.84135  1.0000
  H   H226      1.0  0.48027  0.12991  0.97670  1.0000
  H   H227      1.0  0.34869  0.22733  0.96310  1.0000
  H   H228      1.0  0.28341  0.00081  0.95039  1.0000
  S   S60       1.0  0.49513  0.09883  0.95713  1.0000
  C   C136      1.0  0.49531  0.18941  0.97531  1.0000
  Fe  Fe30      1.0  0.41368  0.22958  0.93620  1.0000
  C   C137      1.0  0.48709  0.22636  0.97592  1.0000
  C   C138      1.0  0.49427  0.12500  0.97787  1.0000
  S   S61       1.0  0.42906  0.23454  0.95500  1.0000
  H   H229      1.0  0.30792  0.99159  0.89796  1.0000
  H   H230      1.0  0.38259  0.25539  0.99642  1.0000
  H   H231      1.0  0.40502  0.25210  0.98356  1.0000
  H   H232      1.0  0.39596  0.25674  0.02216  1.0000
  H   H233      1.0  0.41833  0.25270  0.00906  1.0000
  C   C139      1.0  0.39460  0.24500  0.99287  1.0000
  C   C140      1.0  0.40733  0.24604  0.01789  1.0000
  C   C141      1.0  0.00307  0.24467  0.20085  1.0000
  H   H234      1.0  0.01187  0.24268  0.18838  1.0000
  C   C142      1.0  0.48044  0.29280  0.92003  1.0000
  H   H235      1.0  0.45142  0.46858  0.94015  1.0000
  C   C143      1.0  0.48569  0.26079  0.93148  1.0000
  S   S62       1.0  0.49001  0.43180  0.90678  1.0000
  H   H236      1.0  0.42261  0.48555  0.93110  1.0000
  H   H237      1.0  0.46073  0.25224  0.88450  1.0000
  H   H238      1.0  0.48915  0.28734  0.86682  1.0000
  C   C144      1.0  0.47372  0.27688  0.92739  1.0000
  Fe  Fe31      1.0  0.44390  0.25028  0.93077  1.0000
  H   H239      1.0  0.48060  0.24863  0.93791  1.0000
  S   S63       1.0  0.42660  0.24758  0.91245  1.0000
  H   H240      1.0  0.47122  0.30531  0.91686  1.0000
  S   S64       1.0  0.45047  0.27714  0.93041  1.0000
  H   H241      1.0  0.46648  0.26531  0.89782  1.0000
  C   C145      1.0  0.42842  0.48292  0.91741  1.0000
  H   H242      1.0  0.47147  0.46519  0.92356  1.0000
  C   C146      1.0  0.46785  0.26338  0.88396  1.0000
  H   H243      1.0  0.49508  0.27728  0.88808  1.0000
  H   H244      1.0  0.42457  0.47027  0.91633  1.0000
  C   C147      1.0  0.45532  0.47810  0.89520  1.0000
  H   H245      1.0  0.49598  0.39415  0.92267  1.0000
  H   H246      1.0  0.47017  0.47717  0.89189  1.0000
  N   N15       1.0  0.48703  0.25938  0.87537  1.0000
  H   H247      1.0  0.48117  0.26838  0.84899  1.0000
  C   C148      1.0  0.45649  0.46657  0.92618  1.0000
  H   H248      1.0  0.45247  0.46518  0.89355  1.0000
  H   H249      1.0  0.45368  0.45341  0.92512  1.0000
  H   H250      1.0  0.46049  0.27589  0.87672  1.0000
  N   N16       1.0  0.44825  0.48155  0.91346  1.0000
  C   C149      1.0  0.48814  0.25634  0.85722  1.0000
  H   H251      1.0  0.48161  0.24479  0.85752  1.0000
  H   H252      1.0  0.49570  0.24487  0.89962  1.0000
  C   C150      1.0  0.49628  0.24302  0.88584  1.0000
  C   C151      1.0  0.49579  0.27471  0.87454  1.0000
  H   H253      1.0  0.44957  0.48917  0.88514  1.0000
  C   C152      1.0  0.32985  0.69156  0.63261  1.0000
  H   H254      1.0  0.30259  0.62499  0.62206  1.0000
  Fe  Fe32      1.0  0.02567  0.70504  0.50704  1.0000
  S   S65       1.0  0.05136  0.68586  0.49975  1.0000
  H   H255      1.0  0.00551  0.62294  0.52264  1.0000
  C   C153      1.0  0.01061  0.70213  0.47373  1.0000
  S   S66       1.0  0.04097  0.66150  0.53812  1.0000
  H   H256      1.0  0.28014  0.63776  0.62656  1.0000
  Fe  Fe33      1.0  0.05529  0.68539  0.52771  1.0000
  S   S67       1.0  0.08068  0.68704  0.53792  1.0000
  Fe  Fe34      1.0  0.03373  0.66461  0.51097  1.0000
  S   S68       1.0  0.03206  0.64124  0.49773  1.0000
  S   S69       1.0  0.03047  0.70597  0.53381  1.0000
  H   H257      1.0  0.23149  0.69363  0.57438  1.0000
  S   S70       1.0  0.13364  0.73400  0.61369  1.0000
  C   C154      1.0  0.02161  0.64638  0.43041  1.0000
  C   C155      1.0  0.22809  0.70860  0.54049  1.0000
  H   H258      1.0  0.02732  0.59335  0.46847  1.0000
  C   C156      1.0  0.22210  0.66479  0.60878  1.0000
  H   H259      1.0  0.05855  0.66497  0.56834  1.0000
  H   H260      1.0  0.02302  0.67793  0.40722  1.0000
  H   H261      1.0  0.04056  0.70903  0.58227  1.0000
  Fe  Fe35      1.0  0.16031  0.72198  0.59873  1.0000
  H   H262      1.0  0.07148  0.66947  0.60126  1.0000
  S   S71       1.0  0.17203  0.69260  0.60501  1.0000
  Fe  Fe36      1.0  0.27359  0.72854  0.58041  1.0000
  H   H263      1.0  0.00826  0.68161  0.42781  1.0000
  C   C157      1.0  0.09573  0.72786  0.56527  1.0000
  C   C158      1.0  0.34677  0.68089  0.63446  1.0000
  S   S72       1.0  0.32645  0.70444  0.61181  1.0000
  C   C159      1.0  0.19408  0.68657  0.60918  1.0000
  H   H264      1.0  0.06588  0.69369  0.59664  1.0000
  H   H265      1.0  0.03420  0.69063  0.61292  1.0000
  C   C160      1.0  0.23009  0.67675  0.61395  1.0000
  C   C161      1.0  0.21980  0.69330  0.61753  1.0000
  C   C162      1.0  0.20185  0.69835  0.61491  1.0000
  H   H266      1.0  0.00827  0.63570  0.40627  1.0000
  C   C163      1.0  0.02043  0.60624  0.47191  1.0000
  H   H267      1.0  0.03552  0.64742  0.42297  1.0000
  H   H268      1.0  0.19399  0.71122  0.61745  1.0000
  C   C164      1.0  0.08640  0.70356  0.54758  1.0000
  C   C165      1.0  0.10289  0.69974  0.55374  1.0000
  C   C166      1.0  0.10755  0.71175  0.56243  1.0000
  C   C167      1.0  0.20409  0.66968  0.60647  1.0000
  H   H269      1.0  0.22989  0.69364  0.54311  1.0000
  C   C168      1.0  0.07471  0.71983  0.55017  1.0000
  H   H270      1.0  0.11214  0.68729  0.55188  1.0000
  H   H271      1.0  0.12024  0.70842  0.56709  1.0000
  H   H272      1.0  0.22346  0.71407  0.58298  1.0000
  C   C169      1.0  0.00740  0.72071  0.47311  1.0000
  H   H273      1.0  0.99903  0.68453  0.40818  1.0000
  S   S73       1.0  0.01635  0.72920  0.48735  1.0000
  Fe  Fe37      1.0  0.26457  0.69662  0.60882  1.0000
  C   C170      1.0  0.30430  0.65973  0.61883  1.0000
  H   H274      1.0  0.29207  0.66544  0.61278  1.0000
  H   H275      1.0  0.02400  0.65044  0.39531  1.0000
  Fe  Fe38      1.0  0.01628  0.68242  0.54324  1.0000
  S   S74       1.0  0.27445  0.70511  0.62961  1.0000
  H   H276      1.0  0.19801  0.66046  0.60225  1.0000
  C   C171      1.0  0.07928  0.73173  0.55903  1.0000
  S   S75       1.0  0.28887  0.70057  0.58760  1.0000
  H   H277      1.0  0.00262  0.68030  0.46660  1.0000
  C   C172      1.0  0.02867  0.61489  0.48103  1.0000
  C   C173      1.0  0.02048  0.63170  0.48558  1.0000
  Fe  Fe39      1.0  0.26071  0.73272  0.61902  1.0000
  S   S76       1.0  0.00810  0.68408  0.51738  1.0000
  C   C174      1.0  0.00354  0.63967  0.48079  1.0000
  H   H278      1.0  0.04166  0.60842  0.48453  1.0000
  C   C175      1.0  0.20095  0.71090  0.56293  1.0000
  N   N17       1.0  0.04789  0.68021  0.58933  1.0000
  C   C176      1.0  0.06603  0.68126  0.59172  1.0000
  S   S77       1.0  0.25319  0.67140  0.61472  1.0000
  H   H279      1.0  0.20188  0.69601  0.56624  1.0000
  H   H280      1.0  0.04030  0.66649  0.61612  1.0000
  H   H281      1.0  0.02070  0.69336  0.48075  1.0000
  H   H282      1.0  0.30941  0.67120  0.62106  1.0000
  S   S78       1.0  0.15282  0.73163  0.57176  1.0000
  H   H283      1.0  0.35784  0.68108  0.62319  1.0000
  H   H284      1.0  0.07586  0.68150  0.57894  1.0000
  N   N18       1.0  0.30019  0.64688  0.63556  1.0000
  H   H285      1.0  0.02692  0.69656  0.57571  1.0000
  H   H286      1.0  0.24173  0.71225  0.53549  1.0000
  H   H287      1.0  0.21089  0.73086  0.63680  1.0000
  H   H288      1.0  0.05430  0.65159  0.59016  1.0000
  H   H289      1.0  0.04943  0.69757  0.56388  1.0000
  C   C177      1.0  0.04086  0.69659  0.57732  1.0000
  Fe  Fe40      1.0  0.29761  0.71166  0.60775  1.0000
  H   H290      1.0  0.31479  0.65321  0.60882  1.0000
  H   H291      1.0  0.00040  0.65795  0.39491  1.0000
  H   H292      1.0  0.22568  0.70214  0.62238  1.0000
  H   H293      1.0  0.03574  0.66322  0.57917  1.0000
  H   H294      1.0  0.22993  0.65191  0.60617  1.0000
  C   C178      1.0  0.03547  0.67874  0.60670  1.0000
  N   N19       1.0  0.00780  0.65693  0.41995  1.0000
  H   H295      1.0  0.02168  0.67793  0.60523  1.0000
  H   H296      1.0  0.19380  0.71614  0.57522  1.0000
  H   H297      1.0  0.22016  0.71389  0.52962  1.0000
  C   C179      1.0  0.00965  0.67607  0.41556  1.0000
  S   S79       1.0  0.24865  0.72373  0.60013  1.0000
  C   C180      1.0  0.04915  0.66426  0.58145  1.0000
  H   H298      1.0  0.24370  0.71196  0.56643  1.0000
  C   C181      1.0  0.00046  0.69471  0.46561  1.0000
  C   C182      1.0  0.22992  0.70856  0.57071  1.0000
  C   C183      1.0  0.29284  0.63231  0.63198  1.0000
  H   H299      1.0  0.19221  0.71635  0.55276  1.0000
  N   N20       1.0  0.21897  0.71596  0.55669  1.0000
  H   H300      1.0  0.06212  0.72329  0.54534  1.0000
  H   H301      1.0  0.02000  0.65115  0.44314  1.0000
  S   S80       1.0  0.48056  0.67439  0.64443  1.0000
  H   H302      1.0  0.02063  0.63185  0.43386  1.0000
  C   C184      1.0  0.01024  0.64994  0.40339  1.0000
  S   S81       1.0  0.28451  0.74022  0.59855  1.0000
  C   C185      1.0  0.31690  0.63919  0.64283  1.0000
  H   H303      1.0  0.32727  0.63157  0.63357  1.0000
  C   C186      1.0  0.00355  0.61393  0.46719  1.0000
  C   C187      1.0  0.21698  0.73579  0.55267  1.0000
  S   S82       1.0  0.99858  0.67935  0.57018  1.0000
  H   H304      1.0  0.27384  0.66224  0.64352  1.0000
  H   H305      1.0  0.23035  0.74010  0.54829  1.0000
  H   H306      1.0  0.32304  0.64993  0.64510  1.0000
  H   H307      1.0  0.28962  0.62233  0.64431  1.0000
  H   H308      1.0  0.35984  0.73680  0.64600  1.0000
  H   H309      1.0  0.40209  0.69716  0.78661  1.0000
  S   S83       1.0  0.38579  0.66460  0.68050  1.0000
  S   S84       1.0  0.39706  0.66234  0.71921  1.0000
  C   C188      1.0  0.35531  0.73732  0.66041  1.0000
  C   C189      1.0  0.44198  0.63866  0.67968  1.0000
  C   C190      1.0  0.45855  0.68048  0.79540  1.0000
  Fe  Fe41      1.0  0.38163  0.68245  0.70039  1.0000
  S   S85       1.0  0.36137  0.64898  0.76112  1.0000
  H   H310      1.0  0.46381  0.65241  0.79363  1.0000
  H   H311      1.0  0.44920  0.55129  0.72503  1.0000
  H   H312      1.0  0.43055  0.67772  0.71064  1.0000
  Fe  Fe42      1.0  0.47247  0.62388  0.77149  1.0000
  H   H313      1.0  0.36626  0.70142  0.72772  1.0000
  Fe  Fe43      1.0  0.44806  0.59739  0.79018  1.0000
  H   H314      1.0  0.44402  0.60641  0.72867  1.0000
  S   S86       1.0  0.41937  0.59422  0.80111  1.0000
  H   H315      1.0  0.42713  0.69149  0.75141  1.0000
  H   H316      1.0  0.38368  0.66658  0.78352  1.0000
  S   S87       1.0  0.47089  0.57384  0.79246  1.0000
  S   S88       1.0  0.46068  0.61553  0.80025  1.0000
  C   C191      1.0  0.46141  0.69792  0.67922  1.0000
  S   S89       1.0  0.35469  0.67582  0.71440  1.0000
  C   C192      1.0  0.40346  0.60951  0.78976  1.0000
  C   C193      1.0  0.38616  0.61513  0.79912  1.0000
  C   C194      1.0  0.37326  0.62732  0.79028  1.0000
  C   C195      1.0  0.41843  0.65957  0.76834  1.0000
  S   S90       1.0  0.45791  0.60760  0.76144  1.0000
  C   C196      1.0  0.40771  0.61590  0.77146  1.0000
  H   H317      1.0  0.38278  0.61017  0.81326  1.0000
  C   C197      1.0  0.38805  0.67676  0.77176  1.0000
  H   H318      1.0  0.39788  0.63212  0.74832  1.0000
  H   H319      1.0  0.40649  0.67409  0.79778  1.0000
  H   H320      1.0  0.46895  0.56020  0.72440  1.0000
  S   S91       1.0  0.37416  0.63310  0.71480  1.0000
  C   C198      1.0  0.46835  0.68672  0.75834  1.0000
  C   C199      1.0  0.38388  0.71954  0.71228  1.0000
  H   H321      1.0  0.47067  0.67747  0.70916  1.0000
  Fe  Fe44      1.0  0.48188  0.58574  0.76452  1.0000
  H   H322      1.0  0.40452  0.70424  0.75404  1.0000
  H   H323      1.0  0.34660  0.69495  0.67498  1.0000
  H   H324      1.0  0.46753  0.57282  0.83163  1.0000
  H   H325      1.0  0.45777  0.54617  0.85251  1.0000
  H   H326      1.0  0.41708  0.59448  0.72998  1.0000
  C   C200      1.0  0.37746  0.63349  0.77195  1.0000
  H   H327      1.0  0.45718  0.56729  0.70605  1.0000
  H   H328      1.0  0.45389  0.70062  0.66808  1.0000
  H   H329      1.0  0.41041  0.68657  0.74138  1.0000
  C   C201      1.0  0.39464  0.62763  0.76251  1.0000
  H   H330      1.0  0.38527  0.67296  0.75993  1.0000
  C   C202      1.0  0.44169  0.57318  0.74879  1.0000
  H   H331      1.0  0.42467  0.68448  0.78399  1.0000
  C   C203      1.0  0.31806  0.67985  0.66338  1.0000
  H   H332      1.0  0.37923  0.68998  0.77342  1.0000
  N   N21       1.0  0.44382  0.57858  0.72925  1.0000
  H   H333      1.0  0.41463  0.64940  0.78036  1.0000
  Fe  Fe45      1.0  0.39939  0.64367  0.70053  1.0000
  H   H334      1.0  0.46593  0.59199  0.72723  1.0000
  C   C204      1.0  0.47700  0.56331  0.83899  1.0000
  H   H335      1.0  0.43307  0.65963  0.76699  1.0000
  C   C205      1.0  0.49403  0.72088  0.69052  1.0000
  H   H336      1.0  0.36719  0.70293  0.67230  1.0000
  H   H337      1.0  0.46306  0.71470  0.76012  1.0000
  H   H338      1.0  0.46745  0.70063  0.71100  1.0000
  S   S92       1.0  0.33701  0.65354  0.68487  1.0000
  H   H339      1.0  0.48680  0.64068  0.66904  1.0000
  S   S93       1.0  0.42703  0.73145  0.75405  1.0000
  H   H340      1.0  0.46564  0.62215  0.68905  1.0000
  C   C206      1.0  0.44770  0.66442  0.65648  1.0000
  H   H341      1.0  0.35995  0.63178  0.79761  1.0000
  C   C207      1.0  0.20680  0.72439  0.65091  1.0000
  C   C208      1.0  0.45785  0.69812  0.78587  1.0000
  H   H342      1.0  0.44329  0.72309  0.69862  1.0000
  H   H343      1.0  0.45481  0.59847  0.70851  1.0000
  Fe  Fe46      1.0  0.36029  0.65580  0.69638  1.0000
  H   H344      1.0  0.42089  0.61157  0.76410  1.0000
  H   H345      1.0  0.17190  0.72656  0.65039  1.0000
  N   N22       1.0  0.44938  0.69502  0.69672  1.0000
  C   C209      1.0  0.32765  0.72725  0.66136  1.0000
  H   H346      1.0  0.41672  0.65473  0.75664  1.0000
  H   H347      1.0  0.42793  0.71611  0.68863  1.0000
  H   H348      1.0  0.17463  0.73534  0.68614  1.0000
  C   C210      1.0  0.45254  0.59456  0.72323  1.0000
  C   C211      1.0  0.43633  0.71181  0.69917  1.0000
  C   C212      1.0  0.47145  0.54829  0.85088  1.0000
  C   C213      1.0  0.41026  0.68358  0.78522  1.0000
  H   H349      1.0  0.44902  0.66776  0.69536  1.0000
  C   C214      1.0  0.45527  0.56364  0.72081  1.0000
  H   H350      1.0  0.41876  0.57135  0.72844  1.0000
  H   H351      1.0  0.43091  0.68414  0.68719  1.0000
  C   C215      1.0  0.41264  0.69052  0.75337  1.0000
  H   H352      1.0  0.44270  0.67624  0.64737  1.0000
  H   H353      1.0  0.36002  0.71482  0.75471  1.0000
  C   C216      1.0  0.43569  0.65382  0.66770  1.0000
  C   C217      1.0  0.42589  0.58300  0.72406  1.0000
  C   C218      1.0  0.46310  0.70115  0.76741  1.0000
  Fe  Fe47      1.0  0.37058  0.65387  0.73162  1.0000
  H   H354      1.0  0.45173  0.68692  0.72429  1.0000
  N   N23       1.0  0.40735  0.67759  0.76968  1.0000
  C   C219      1.0  0.39188  0.73397  0.71233  1.0000
  C   C220      1.0  0.18622  0.72686  0.67876  1.0000
  S   S94       1.0  0.44884  0.71656  0.79652  1.0000
  C   C221      1.0  0.47841  0.73122  0.72334  1.0000
  C   C222      1.0  0.47899  0.73491  0.69184  1.0000
  H   H355      1.0  0.43540  0.56099  0.75373  1.0000
  H   H356      1.0  0.30693  0.67949  0.67459  1.0000
  H   H357      1.0  0.45453  0.67808  0.80973  1.0000
  H   H358      1.0  0.43291  0.58399  0.75564  1.0000
  H   H359      1.0  0.46824  0.70949  0.67757  1.0000
  H   H360      1.0  0.42163  0.65731  0.66687  1.0000
  H   H361      1.0  0.42704  0.58715  0.70937  1.0000
  H   H362      1.0  0.44709  0.51016  0.90526  1.0000
  C   C223      1.0  0.46026  0.68977  0.71092  1.0000
  H   H363      1.0  0.47235  0.68924  0.74403  1.0000
  S   S95       1.0  0.42670  0.62619  0.69473  1.0000
  H   H364      1.0  0.21885  0.72183  0.65726  1.0000
  S   S96       1.0  0.49484  0.56836  0.74430  1.0000
  C   C224      1.0  0.47253  0.64452  0.66881  1.0000
  C   C225      1.0  0.37247  0.71258  0.72760  1.0000
  S   S97       1.0  0.38865  0.70997  0.69319  1.0000
  C   C226      1.0  0.46825  0.66915  0.76770  1.0000
  C   C227      1.0  0.43953  0.68051  0.69754  1.0000
  C   C228      1.0  0.33478  0.66878  0.66507  1.0000
  C   C229      1.0  0.37744  0.73419  0.74313  1.0000
  H   H365      1.0  0.35783  0.70406  0.65318  1.0000
  C   C230      1.0  0.46368  0.66596  0.78628  1.0000
  H   H366      1.0  0.19765  0.72405  0.68603  1.0000
  H   H367      1.0  0.47254  0.73539  0.73593  1.0000
  H   H368      1.0  0.47216  0.68592  0.67744  1.0000
  H   H369      1.0  0.49314  0.60673  0.73229  1.0000
  C   C231      1.0  0.48377  0.53570  0.86008  1.0000
  S   S98       1.0  0.47731  0.51585  0.87305  1.0000
  C   C232      1.0  0.36894  0.72016  0.74291  1.0000
  C   C233      1.0  0.46050  0.63387  0.68000  1.0000
  H   H370      1.0  0.45495  0.57010  0.75318  1.0000
  S   S99       1.0  0.47304  0.65173  0.75562  1.0000
  C   C234      1.0  0.28665  0.65633  0.64857  1.0000
  H   H371      1.0  0.20352  0.71113  0.65090  1.0000
  H   H372      1.0  0.42699  0.71014  0.71221  1.0000
  C   C235      1.0  0.49357  0.71736  0.72200  1.0000
  H   H373      1.0  0.31874  0.71728  0.66801  1.0000
  H   H374      1.0  0.18216  0.71381  0.67938  1.0000
  N   N24       1.0  0.34391  0.72374  0.66942  1.0000
  C   C236      1.0  0.46608  0.65996  0.65723  1.0000
  C   C237      1.0  0.35430  0.70563  0.66736  1.0000
  C   C238      1.0  0.49476  0.56592  0.83657  1.0000
  H   H375      1.0  0.42186  0.49410  0.90798  1.0000
  Fe  Fe48      1.0  0.43571  0.73814  0.77674  1.0000
  Fe  Fe49      1.0  0.48459  0.59290  0.79985  1.0000
  H   H376      1.0  0.31427  0.62994  0.65582  1.0000
  H   H377      1.0  0.28333  0.64708  0.66142  1.0000
  H   H378      1.0  0.44764  0.50179  0.92851  1.0000
  C   C239      1.0  0.17585  0.73931  0.65102  1.0000
  H   H379      1.0  0.29163  0.66752  0.65147  1.0000
  H   H380      1.0  0.36225  0.66101  0.65200  1.0000
  C   C240      1.0  0.34927  0.66955  0.65072  1.0000
  H   H381      1.0  0.32997  0.71448  0.69579  1.0000
  H   H382      1.0  0.33060  0.73817  0.69062  1.0000
  C   C241      1.0  0.31569  0.69140  0.64726  1.0000
  H   H383      1.0  0.36767  0.73501  0.66628  1.0000
  N   N25       1.0  0.19132  0.73595  0.66018  1.0000
  H   H384      1.0  0.47475  0.73384  0.81019  1.0000
  H   H385      1.0  0.44407  0.73723  0.82723  1.0000
  H   H386      1.0  0.35043  0.72204  0.69502  1.0000
  H   H387      1.0  0.46768  0.49807  0.91198  1.0000
  C   C242      1.0  0.45280  0.49862  0.91495  1.0000
  H   H388      1.0  0.49097  0.53775  0.81595  1.0000
  C   C243      1.0  0.33845  0.72468  0.68854  1.0000
  H   H389      1.0  0.49056  0.51542  0.81342  1.0000
  H   H390      1.0  0.40063  0.73950  0.70050  1.0000
  H   H391      1.0  0.31954  0.74090  0.66245  1.0000
  H   H392      1.0  0.33127  0.72632  0.64698  1.0000
  C   C244      1.0  0.47095  0.73984  0.70832  1.0000
  H   H393      1.0  0.30294  0.70028  0.64626  1.0000
  C   C245      1.0  0.28741  0.97703  0.14091  1.0000
  H   H394      1.0  0.05818  0.81403  0.28788  1.0000
  S   S100      1.0  0.26874  0.95805  0.03735  1.0000
  H   H395      1.0  0.30595  0.96740  0.10991  1.0000
  H   H396      1.0  0.25852  0.93395  0.01550  1.0000
  H   H397      1.0  0.25971  0.90356  0.99610  1.0000
  C   C246      1.0  0.12643  0.88158  0.30260  1.0000
  C   C247      1.0  0.18559  0.98643  0.24052  1.0000
  H   H398      1.0  0.25638  0.95336  0.98656  1.0000
  H   H399      1.0  0.27383  0.98105  0.13723  1.0000
  H   H400      1.0  0.09984  0.82549  0.29568  1.0000
  C   C248      1.0  0.22111  0.87960  0.27570  1.0000
  Fe  Fe50      1.0  0.24761  0.96042  0.13456  1.0000
  S   S101      1.0  0.24455  0.95446  0.16425  1.0000
  S   S102      1.0  0.27395  0.95087  0.11773  1.0000
  H   H401      1.0  0.18749  0.97428  0.25114  1.0000
  H   H402      1.0  0.20744  0.88660  0.27320  1.0000
  H   H403      1.0  0.24413  0.85336  0.29221  1.0000
  Fe  Fe51      1.0  0.23033  0.98317  0.16254  1.0000
  S   S103      1.0  0.12062  0.91271  0.27820  1.0000
  Fe  Fe52      1.0  0.21763  0.94853  0.16371  1.0000
  S   S104      1.0  0.20440  0.92638  0.18161  1.0000
  S   S105      1.0  0.22858  0.98311  0.01469  1.0000
  S   S106      1.0  0.22189  0.95208  0.13399  1.0000
  S   S107      1.0  0.20300  0.97673  0.16480  1.0000
  C   C249      1.0  0.05985  0.81132  0.30198  1.0000
  H   H404      1.0  0.28233  0.93356  0.01100  1.0000
  H   H405      1.0  0.20308  0.89911  0.30056  1.0000
  C   C250      1.0  0.21690  0.89206  0.30218  1.0000
  C   C251      1.0  0.29027  0.91712  0.98271  1.0000
  H   H406      1.0  0.19735  0.97206  0.05192  1.0000
  S   S108      1.0  0.15510  0.94487  0.27440  1.0000
  S   S109      1.0  0.20869  0.92722  0.26029  1.0000
  H   H407      1.0  0.23057  0.88882  0.26826  1.0000
  C   C252      1.0  0.25813  0.91769  0.98873  1.0000
  H   H408      1.0  0.22466  0.86729  0.26970  1.0000
  H   H409      1.0  0.18406  0.95613  0.06592  1.0000
  C   C253      1.0  0.25788  0.96511  0.08858  1.0000
  H   H410      1.0  0.08489  0.82946  0.28006  1.0000
  H   H411      1.0  0.22458  0.95462  0.06388  1.0000
  C   C254      1.0  0.25700  0.96710  0.07055  1.0000
  Fe  Fe53      1.0  0.18170  0.92703  0.27823  1.0000
  H   H412      1.0  0.18878  0.96390  0.20716  1.0000
  N   N26       1.0  0.19983  0.96626  0.07946  1.0000
  C   C255      1.0  0.09236  0.97706  0.30325  1.0000
  H   H413      1.0  0.29121  0.96214  0.14198  1.0000
  S   S110      1.0  0.17033  0.90174  0.28760  1.0000
  H   H414      1.0  0.22396  0.94954  0.08744  1.0000
  N   N27       1.0  0.22167  0.87527  0.29492  1.0000
  H   H415      1.0  0.30144  0.92334  0.98398  1.0000
  H   H416      1.0  0.08540  0.78145  0.30156  1.0000
  C   C256      1.0  0.20648  0.92444  0.20372  1.0000
  C   C257      1.0  0.22180  0.92833  0.20759  1.0000
  C   C258      1.0  0.22288  0.92800  0.22520  1.0000
  C   C259      1.0  0.20839  0.92436  0.23892  1.0000
  C   C260      1.0  0.19328  0.91987  0.23520  1.0000
  C   C261      1.0  0.19241  0.91976  0.21757  1.0000
  H   H417      1.0  0.23286  0.93150  0.19701  1.0000
  H   H418      1.0  0.23468  0.93125  0.22809  1.0000
  H   H419      1.0  0.18205  0.91700  0.24577  1.0000
  H   H420      1.0  0.18057  0.91668  0.21460  1.0000
  H   H421      1.0  0.21428  0.98724  0.06496  1.0000
  C   C262      1.0  0.09321  0.87261  0.30314  1.0000
  N   N28       1.0  0.30076  0.98632  0.12757  1.0000
  Fe  Fe54      1.0  0.15267  0.94750  0.30271  1.0000
  C   C263      1.0  0.26944  0.94557  0.98066  1.0000
  S   S111      1.0  0.18032  0.93218  0.30543  1.0000
  Fe  Fe55      1.0  0.14345  0.91984  0.28677  1.0000
  C   C264      1.0  0.09850  0.88791  0.29149  1.0000
  H   H422      1.0  0.08028  0.86932  0.30343  1.0000
  H   H423      1.0  0.21444  0.98189  0.08847  1.0000
  H   H424      1.0  0.08927  0.79665  0.28069  1.0000
  H   H425      1.0  0.08964  0.89638  0.28283  1.0000
  H   H426      1.0  0.08624  0.97206  0.29472  1.0000
  N   N29       1.0  0.27241  0.92677  0.99034  1.0000
  H   H427      1.0  0.25019  0.87479  0.29069  1.0000
  C   C265      1.0  0.11502  0.89253  0.29137  1.0000
  H   H428      1.0  0.11936  0.96410  0.29333  1.0000
  H   H429      1.0  0.16845  0.97411  0.22029  1.0000
  H   H430      1.0  0.05109  0.82257  0.30825  1.0000
  C   C266      1.0  0.21562  0.95160  0.07704  1.0000
  H   H431      1.0  0.24441  0.92485  0.99389  1.0000
  H   H432      1.0  0.19459  0.86985  0.30263  1.0000
  H   H433      1.0  0.24745  0.97259  0.09721  1.0000
  C   C267      1.0  0.18306  0.96854  0.22007  1.0000
  C   C268      1.0  0.27020  0.95687  0.05956  1.0000
  C   C269      1.0  0.28450  0.94502  0.06650  1.0000
  C   C270      1.0  0.28573  0.94350  0.08430  1.0000
  C   C271      1.0  0.27234  0.95336  0.09540  1.0000
  S   S112      1.0  0.23584  0.98973  0.13281  1.0000
  H   H434      1.0  0.27398  0.91278  0.01708  1.0000
  H   H435      1.0  0.29472  0.93708  0.05806  1.0000
  H   H436      1.0  0.29689  0.93437  0.08956  1.0000
  C   C272      1.0  0.18841  0.96181  0.09710  1.0000
  H   H437      1.0  0.19602  0.96009  0.10801  1.0000
  H   H438      1.0  0.17652  0.97277  0.09942  1.0000
  H   H439      1.0  0.06701  0.90605  0.31047  1.0000
  C   C273      1.0  0.11111  0.97261  0.30242  1.0000
  H   H440      1.0  0.18331  0.94915  0.09855  1.0000
  C   C274      1.0  0.06150  0.92068  0.30967  1.0000
  H   H441      1.0  0.24596  0.97618  0.06524  1.0000
  H   H442      1.0  0.31850  0.98332  0.14592  1.0000
  H   H443      1.0  0.17730  0.97974  0.06674  1.0000
  H   H444      1.0  0.28025  0.95271  0.98111  1.0000
  C   C275      1.0  0.18916  0.96857  0.06542  1.0000
  C   C276      1.0  0.08558  0.82629  0.29445  1.0000
  C   C277      1.0  0.27178  0.92671  0.00930  1.0000
  H   H445      1.0  0.21140  0.93860  0.07784  1.0000
  Fe  Fe56      1.0  0.25298  0.98390  0.02497  1.0000
  C   C278      1.0  0.30169  0.98210  0.10990  1.0000
  C   C279      1.0  0.21222  0.97426  0.22104  1.0000
  H   H446      1.0  0.13909  0.88513  0.30278  1.0000
  H   H447      1.0  0.06093  0.95566  0.30792  1.0000
  H   H448      1.0  0.06446  0.92734  0.29548  1.0000
  C   C280      1.0  0.20611  0.98319  0.07827  1.0000
  Fe  Fe57      1.0  0.20966  0.98089  0.13517  1.0000
  H   H449      1.0  0.22616  0.90162  0.29523  1.0000
  H   H450      1.0  0.18398  0.95644  0.23077  1.0000
  H   H451      1.0  0.29276  0.90274  0.98937  1.0000
  N   N30       1.0  0.07895  0.80945  0.30345  1.0000
  H   H452      1.0  0.07752  0.83797  0.30045  1.0000
  H   H453      1.0  0.09098  0.93531  0.29998  1.0000
  H   H454      1.0  0.10450  0.79260  0.29597  1.0000
  H   H455      1.0  0.32909  0.98698  0.12286  1.0000
  C   C281      1.0  0.09002  0.79436  0.29503  1.0000
  H   H456      1.0  0.05432  0.79897  0.30892  1.0000
  H   H457      1.0  0.21180  0.85047  0.29932  1.0000
  C   C282      1.0  0.31870  0.98024  0.13269  1.0000
  C   C283      1.0  0.24006  0.86610  0.29755  1.0000
  H   H458      1.0  0.21301  0.94668  0.98414  1.0000
  H   H459      1.0  0.28832  0.98630  0.10568  1.0000
  H   H460      1.0  0.32323  0.96545  0.13344  1.0000
  H   H461      1.0  0.21482  0.96251  0.23185  1.0000
  N   N31       1.0  0.19273  0.98189  0.22264  1.0000
  H   H462      1.0  0.21787  0.96969  0.20810  1.0000
  H   H463      1.0  0.21891  0.97630  0.98581  1.0000
  C   C284      1.0  0.20863  0.86336  0.30431  1.0000
  H   H464      1.0  0.22011  0.98434  0.22177  1.0000
  H   H465      1.0  0.28606  0.98018  0.15434  1.0000
  H   H466      1.0  0.31138  0.98918  0.09944  1.0000
  H   H467      1.0  0.24092  0.86268  0.31192  1.0000
  Fe  Fe58      1.0  0.14092  0.89259  0.42955  1.0000
  S   S113      1.0  0.12774  0.89793  0.45681  1.0000
  S   S114      1.0  0.15759  0.91132  0.41022  1.0000
  Fe  Fe59      1.0  0.12385  0.86012  0.43409  1.0000
  S   S115      1.0  0.10882  0.86258  0.46166  1.0000
  Fe  Fe60      1.0  0.10312  0.89214  0.45049  1.0000
  S   S116      1.0  0.10051  0.74337  0.57682  1.0000
  Fe  Fe61      1.0  0.13489  0.86806  0.46548  1.0000
  S   S117      1.0  0.14512  0.85668  0.49110  1.0000
  S   S118      1.0  0.11566  0.88917  0.42248  1.0000
  S   S119      1.0  0.15049  0.86314  0.43871  1.0000
  C   C285      1.0  0.28228  0.82668  0.46124  1.0000
  H   H468      1.0  0.01086  0.77958  0.42892  1.0000
  C   C286      1.0  0.06168  0.95738  0.42284  1.0000
  H   H469      1.0  0.20982  0.74186  0.56450  1.0000
  H   H470      1.0  0.22331  0.92615  0.61012  1.0000
  S   S120      1.0  0.17563  0.88574  0.33630  1.0000
  H   H471      1.0  0.10026  0.92390  0.39484  1.0000
  C   C287      1.0  0.06101  0.94208  0.43633  1.0000
  H   H472      1.0  0.02178  0.90340  0.44764  1.0000
  H   H473      1.0  0.16097  0.87897  0.63996  1.0000
  H   H474      1.0  0.12195  0.95264  0.34430  1.0000
  C   C288      1.0  0.06238  0.89310  0.42076  1.0000
  H   H475      1.0  0.03804  0.88525  0.40579  1.0000
  C   C289      1.0  0.03754  0.91722  0.41454  1.0000
  H   H476      1.0  0.04082  0.88600  0.45228  1.0000
  C   C290      1.0  0.01549  0.90603  0.36674  1.0000
  S   S121      1.0  0.17921  0.77175  0.54905  1.0000
  H   H477      1.0  0.17901  0.74670  0.63712  1.0000
  C   C291      1.0  0.01470  0.93264  0.34364  1.0000
  Fe  Fe62      1.0  0.03408  0.87268  0.34439  1.0000
  C   C292      1.0  0.26216  0.79892  0.63994  1.0000
  H   H478      1.0  0.29530  0.75612  0.56077  1.0000
  S   S122      1.0  0.17379  0.74509  0.59736  1.0000
  H   H479      1.0  0.28243  0.85912  0.46751  1.0000
  N   N32       1.0  0.03097  0.79439  0.41248  1.0000
  S   S123      1.0  0.02727  0.80843  0.34457  1.0000
  H   H480      1.0  0.02239  0.82083  0.39796  1.0000
  S   S124      1.0  0.26724  0.74145  0.55340  1.0000
  H   H481      1.0  0.21706  0.88939  0.31669  1.0000
  Fe  Fe63      1.0  0.22946  0.86479  0.51570  1.0000
  S   S125      1.0  0.21240  0.87664  0.53890  1.0000
  S   S126      1.0  0.22310  0.87081  0.48820  1.0000
  Fe  Fe64      1.0  0.25654  0.84056  0.53710  1.0000
  S   S127      1.0  0.24192  0.84967  0.56242  1.0000
  S   S128      1.0  0.28241  0.82038  0.53682  1.0000
  Fe  Fe65      1.0  0.21659  0.84833  0.55384  1.0000
  S   S129      1.0  0.19379  0.83798  0.57401  1.0000
  Fe  Fe66      1.0  0.23881  0.87732  0.54570  1.0000
  S   S130      1.0  0.24228  0.90107  0.55553  1.0000
  S   S131      1.0  0.23167  0.83620  0.53008  1.0000
  S   S132      1.0  0.25568  0.86837  0.52087  1.0000
  C   C293      1.0  0.23143  0.90109  0.57770  1.0000
  C   C294      1.0  0.22450  0.88605  0.58785  1.0000
  C   C295      1.0  0.12468  0.94431  0.37864  1.0000
  H   H482      1.0  0.22417  0.87513  0.58171  1.0000
  S   S133      1.0  0.12265  0.83932  0.41904  1.0000
  H   H483      1.0  0.01669  0.89162  0.37080  1.0000
  C   C296      1.0  0.26297  0.77638  0.53599  1.0000
  C   C297      1.0  0.26621  0.79404  0.53230  1.0000
  C   C298      1.0  0.27973  0.79807  0.53917  1.0000
  C   C299      1.0  0.29053  0.78427  0.54899  1.0000
  H   H484      1.0  0.15383  0.88062  0.60991  1.0000
  H   H485      1.0  0.25218  0.77337  0.53111  1.0000
  H   H486      1.0  0.25802  0.80454  0.52446  1.0000
  H   H487      1.0  0.30114  0.78729  0.55414  1.0000
  H   H488      1.0  0.19031  0.83595  0.63244  1.0000
  H   H489      1.0  0.28412  0.81172  0.46448  1.0000
  C   C300      1.0  0.03352  0.88642  0.42006  1.0000
  H   H490      1.0  0.27810  0.85557  0.63364  1.0000
  C   C301      1.0  0.04887  0.79772  0.41318  1.0000
  H   H491      1.0  0.09449  0.93520  0.32173  1.0000
  C   C302      1.0  0.27312  0.76280  0.54669  1.0000
  C   C303      1.0  0.01645  0.91394  0.34879  1.0000
  C   C304      1.0  0.18252  0.79058  0.55590  1.0000
  C   C305      1.0  0.19001  0.80411  0.54340  1.0000
  C   C306      1.0  0.19230  0.81933  0.54881  1.0000
  C   C307      1.0  0.18774  0.82077  0.56676  1.0000
  C   C308      1.0  0.17961  0.80760  0.57915  1.0000
  C   C309      1.0  0.17698  0.79253  0.57372  1.0000
  H   H492      1.0  0.19391  0.80293  0.52953  1.0000
  H   H493      1.0  0.19735  0.83006  0.53902  1.0000
  H   H494      1.0  0.17562  0.80885  0.59301  1.0000
  H   H495      1.0  0.17070  0.78247  0.58342  1.0000
  H   H496      1.0  0.01518  0.93879  0.32977  1.0000
  C   C310      1.0  0.26914  0.85467  0.47158  1.0000
  C   C311      1.0  0.02434  0.78240  0.42905  1.0000
  C   C312      1.0  0.18622  0.84443  0.62009  1.0000
  H   H497      1.0  0.04279  0.90915  0.44806  1.0000
  H   H498      1.0  0.29486  0.84510  0.61753  1.0000
  S   S134      1.0  0.01981  0.85355  0.36583  1.0000
  H   H499      1.0  0.16410  0.86251  0.59790  1.0000
  H   H500      1.0  0.06959  0.90291  0.42325  1.0000
  H   H501      1.0  0.06712  0.89149  0.40665  1.0000
  H   H502      1.0  0.01371  0.77516  0.35432  1.0000
  C   C313      1.0  0.10953  0.94956  0.35387  1.0000
  Fe  Fe67      1.0  0.03534  0.83262  0.34965  1.0000
  H   H503      1.0  0.11747  0.91329  0.35783  1.0000
  H   H504      1.0  0.04450  0.92708  0.41725  1.0000
  H   H505      1.0  0.07234  0.81705  0.32900  1.0000
  S   S135      1.0  0.04357  0.84521  0.40674  1.0000
  S   S136      1.0  0.01024  0.94839  0.39037  1.0000
  Fe  Fe68      1.0  0.05514  0.98694  0.38315  1.0000
  S   S137      1.0  0.14599  0.77454  0.63201  1.0000
  C   C314      1.0  0.16710  0.85987  0.49015  1.0000
  C   C315      1.0  0.17312  0.85873  0.50595  1.0000
  C   C316      1.0  0.19044  0.86178  0.50542  1.0000
  C   C317      1.0  0.20185  0.86585  0.48908  1.0000
  C   C318      1.0  0.19609  0.86638  0.47330  1.0000
  C   C319      1.0  0.17865  0.86361  0.47381  1.0000
  H   H506      1.0  0.16425  0.85586  0.51863  1.0000
  H   H507      1.0  0.19481  0.86123  0.51767  1.0000
  H   H508      1.0  0.20511  0.86894  0.46068  1.0000
  H   H509      1.0  0.17424  0.86418  0.46159  1.0000
  C   C320      1.0  0.16343  0.90406  0.38971  1.0000
  C   C321      1.0  0.16973  0.91558  0.37416  1.0000
  C   C322      1.0  0.17349  0.91005  0.35765  1.0000
  C   C323      1.0  0.17132  0.89285  0.35676  1.0000
  C   C324      1.0  0.16538  0.88125  0.37235  1.0000
  C   C325      1.0  0.16120  0.88693  0.38875  1.0000
  H   H510      1.0  0.17145  0.92885  0.37483  1.0000
  H   H511      1.0  0.17814  0.91906  0.34565  1.0000
  H   H512      1.0  0.16361  0.86797  0.37173  1.0000
  H   H513      1.0  0.15626  0.87797  0.40063  1.0000
  S   S138      1.0  0.04725  0.85236  0.32702  1.0000
  N   N33       1.0  0.27659  0.86801  0.60651  1.0000
  H   H514      1.0  0.01859  0.89086  0.42236  1.0000
  H   H515      1.0  0.03372  0.76921  0.43092  1.0000
  S   S139      1.0  0.24116  0.74967  0.63697  1.0000
  H   H516      1.0  0.28813  0.78580  0.62770  1.0000
  C   C326      1.0  0.28036  0.82845  0.49191  1.0000
  H   H517      1.0  0.29389  0.83229  0.48916  1.0000
  N   N34       1.0  0.11411  0.93653  0.36980  1.0000
  H   H518      1.0  0.27231  0.83435  0.50355  1.0000
  N   N35       1.0  0.13554  0.81069  0.53010  1.0000
  C   C327      1.0  0.15319  0.81222  0.51830  1.0000
  C   C328      1.0  0.13113  0.79296  0.53067  1.0000
  C   C329      1.0  0.12143  0.82519  0.52323  1.0000
  C   C330      1.0  0.13643  0.81241  0.54822  1.0000
  H   H519      1.0  0.16400  0.80100  0.52257  1.0000
  H   H520      1.0  0.15736  0.82506  0.51822  1.0000
  H   H521      1.0  0.15273  0.81199  0.50429  1.0000
  C   C331      1.0  0.27414  0.78472  0.63294  1.0000
  H   H522      1.0  0.13028  0.79121  0.51723  1.0000
  H   H523      1.0  0.14162  0.78175  0.53574  1.0000
  H   H524      1.0  0.10783  0.82421  0.53149  1.0000
  H   H525      1.0  0.12082  0.82475  0.50930  1.0000
  H   H526      1.0  0.12420  0.83872  0.52305  1.0000
  H   H527      1.0  0.12323  0.81171  0.55741  1.0000
  H   H528      1.0  0.29680  0.86630  0.62201  1.0000
  H   H529      1.0  0.20843  0.86014  0.31891  1.0000
  N   N36       1.0  0.17394  0.92080  0.45431  1.0000
  C   C332      1.0  0.16711  0.91128  0.47231  1.0000
  C   C333      1.0  0.15875  0.93292  0.44670  1.0000
  C   C334      1.0  0.18290  0.90752  0.44273  1.0000
  C   C335      1.0  0.18708  0.93151  0.45545  1.0000
  H   H530      1.0  0.17832  0.90236  0.47857  1.0000
  H   H531      1.0  0.15759  0.90260  0.47196  1.0000
  H   H532      1.0  0.15984  0.92087  0.48130  1.0000
  H   H533      1.0  0.15138  0.94294  0.45520  1.0000
  H   H534      1.0  0.16348  0.94038  0.43316  1.0000
  H   H535      1.0  0.14884  0.92527  0.44517  1.0000
  H   H536      1.0  0.18712  0.91420  0.42873  1.0000
  H   H537      1.0  0.17369  0.89846  0.44243  1.0000
  H   H538      1.0  0.19514  0.89895  0.44736  1.0000
  H   H539      1.0  0.18071  0.94177  0.46398  1.0000
  H   H540      1.0  0.19266  0.93870  0.44208  1.0000
  H   H541      1.0  0.19866  0.92278  0.46128  1.0000
  H   H542      1.0  0.08950  0.92597  0.37623  1.0000
  H   H543      1.0  0.25417  0.85436  0.61741  1.0000
  C   C336      1.0  0.09733  0.93271  0.38213  1.0000
  Fe  Fe69      1.0  0.06983  0.84732  0.34189  1.0000
  H   H544      1.0  0.19786  0.85069  0.61228  1.0000
  C   C337      1.0  0.03670  0.89938  0.44405  1.0000
  Fe  Fe70      1.0  0.04478  0.84850  0.37745  1.0000
  H   H545      1.0  0.10920  0.83784  0.38848  1.0000
  H   H546      1.0  0.27730  0.75808  0.62756  1.0000
  H   H547      1.0  0.01926  0.78283  0.39639  1.0000
  S   S140      1.0  0.26937  0.81889  0.63954  1.0000
  H   H548      1.0  0.19750  0.80268  0.63544  1.0000
  H   H549      1.0  0.10707  0.95565  0.41323  1.0000
  N   N37       1.0  0.23730  0.79369  0.58851  1.0000
  C   C338      1.0  0.22019  0.78796  0.59821  1.0000
  C   C339      1.0  0.25218  0.77799  0.58890  1.0000
  C   C340      1.0  0.24109  0.80729  0.59697  1.0000
  C   C341      1.0  0.23581  0.80156  0.56986  1.0000
  H   H550      1.0  0.20879  0.79963  0.59843  1.0000
  H   H551      1.0  0.22108  0.78155  0.61227  1.0000
  H   H552      1.0  0.21667  0.77805  0.59189  1.0000
  H   H553      1.0  0.26539  0.78198  0.58228  1.0000
  H   H554      1.0  0.25339  0.77134  0.60273  1.0000
  H   H555      1.0  0.25008  0.76772  0.58208  1.0000
  H   H556      1.0  0.25402  0.81179  0.59008  1.0000
  H   H557      1.0  0.24230  0.80178  0.61106  1.0000
  H   H558      1.0  0.23015  0.81940  0.59674  1.0000
  H   H559      1.0  0.24826  0.80662  0.56248  1.0000
  H   H560      1.0  0.22455  0.81315  0.56897  1.0000
  H   H561      1.0  0.23340  0.79161  0.56284  1.0000
  H   H562      1.0  0.24582  0.83456  0.46974  1.0000
  C   C342      1.0  0.21837  0.88489  0.60616  1.0000
  H   H563      1.0  0.29596  0.83029  0.45752  1.0000
  S   S141      1.0  0.02153  0.90038  0.33265  1.0000
  H   H564      1.0  0.18229  0.78606  0.62082  1.0000
  H   H565      1.0  0.25437  0.81474  0.48465  1.0000
  H   H566      1.0  0.13763  0.92208  0.35511  1.0000
  C   C343      1.0  0.08026  0.84102  0.39646  1.0000
  H   H567      1.0  0.07393  0.90372  0.33968  1.0000
  H   H568      1.0  0.07524  0.79339  0.32978  1.0000
  C   C344      1.0  0.23073  0.91570  0.58569  1.0000
  H   H569      1.0  0.23584  0.92750  0.57785  1.0000
  H   H570      1.0  0.10143  0.94440  0.34682  1.0000
  C   C345      1.0  0.08854  0.92833  0.31412  1.0000
  Fe  Fe71      1.0  0.14670  0.75846  0.61027  1.0000
  C   C346      1.0  0.00903  0.80167  0.36062  1.0000
  H   H571      1.0  0.11798  0.79120  0.53961  1.0000
  S   S142      1.0  0.13619  0.77046  0.58470  1.0000
  H   H572      1.0  0.04807  0.93873  0.44317  1.0000
  C   C347      1.0  0.01289  0.94335  0.35635  1.0000
  N   N38       1.0  0.04257  0.89902  0.42485  1.0000
  C   C348      1.0  0.12150  0.86589  0.31368  1.0000
  H   H573      1.0  0.14033  0.82538  0.54824  1.0000
  H   H574      1.0  0.07001  0.74415  0.56098  1.0000
  H   H575      1.0  0.04932  0.96554  0.41922  1.0000
  H   H576      1.0  0.05426  0.80673  0.40090  1.0000
  H   H577      1.0  0.01156  0.91074  0.39343  1.0000
  S   S143      1.0  0.07620  0.91025  0.45517  1.0000
  Fe  Fe72      1.0  0.12645  0.74448  0.58630  1.0000
  H   H578      1.0  0.05894  0.78500  0.41469  1.0000
  C   C349      1.0  0.06839  0.84372  0.42722  1.0000
  H   H579      1.0  0.04100  0.91738  0.39998  1.0000
  C   C350      1.0  0.07831  0.96217  0.41427  1.0000
  H   H580      1.0  0.02277  0.92238  0.41792  1.0000
  C   C351      1.0  0.25331  0.82961  0.48097  1.0000
  H   H581      1.0  0.06680  0.87996  0.42921  1.0000
  H   H582      1.0  0.28227  0.81355  0.49607  1.0000
  C   C352      1.0  0.09422  0.95173  0.41940  1.0000
  H   H583      1.0  0.07825  0.84052  0.38345  1.0000
  C   C353      1.0  0.08593  0.84289  0.42987  1.0000
  H   H584      1.0  0.08814  0.84356  0.44280  1.0000
  H   H585      1.0  0.03701  0.79465  0.38430  1.0000
  H   H586      1.0  0.13761  0.94699  0.36978  1.0000
  H   H587      1.0  0.04231  0.77286  0.39784  1.0000
  H   H588      1.0  0.12883  0.90962  0.37626  1.0000
  H   H589      1.0  0.11705  0.95736  0.38230  1.0000
  H   H590      1.0  0.27496  0.89375  0.61341  1.0000
  C   C354      1.0  0.21803  0.89926  0.61426  1.0000
  H   H591      1.0  0.10602  0.92750  0.43541  1.0000
  C   C355      1.0  0.10066  0.84069  0.41592  1.0000
  H   H592      1.0  0.21382  0.87293  0.61395  1.0000
  C   C356      1.0  0.07699  0.93092  0.44049  1.0000
  C   C357      1.0  0.22371  0.91491  0.60392  1.0000
  H   H593      1.0  0.03645  0.87270  0.42807  1.0000
  H   H594      1.0  0.04497  0.94805  0.32696  1.0000
  C   C358      1.0  0.12495  0.91963  0.36453  1.0000
  S   S144      1.0  0.05787  0.86947  0.35738  1.0000
  H   H595      1.0  0.26150  0.86120  0.48299  1.0000
  H   H596      1.0  0.12810  0.93509  0.39099  1.0000
  H   H597      1.0  0.05709  0.84503  0.43813  1.0000
  C   C359      1.0  0.06554  0.84308  0.41042  1.0000
  C   C360      1.0  0.16614  0.87020  0.60746  1.0000
  S   S145      1.0  0.05906  0.82594  0.36326  1.0000
  C   C361      1.0  0.17552  0.79047  0.63315  1.0000
  S   S146      1.0  0.05301  0.96720  0.36723  1.0000
  C   C362      1.0  0.09782  0.83954  0.39929  1.0000
  H   H598      1.0  0.24473  0.83545  0.49244  1.0000
  C   C363      1.0  0.03249  0.78579  0.39709  1.0000
  C   C364      1.0  0.26798  0.76908  0.63276  1.0000
  H   H599      1.0  0.10156  0.96257  0.35742  1.0000
  C   C365      1.0  0.01276  0.91683  0.37953  1.0000
  Fe  Fe73      1.0  0.02357  0.97237  0.37913  1.0000
  H   H600      1.0  0.27578  0.83131  0.44931  1.0000
  H   H601      1.0  0.18445  0.87605  0.63024  1.0000
  H   H602      1.0  0.00432  0.80964  0.41065  1.0000
  H   H603      1.0  0.07180  0.92374  0.34855  1.0000
  H   H604      1.0  0.26150  0.86016  0.46051  1.0000
  N   N39       1.0  0.27127  0.83485  0.47641  1.0000
  H   H605      1.0  0.08837  0.94533  0.38548  1.0000
  S   S147      1.0  0.09869  0.84203  0.32831  1.0000
  Fe  Fe74      1.0  0.16295  0.75629  0.57219  1.0000
  H   H606      1.0  0.29708  0.85892  0.58526  1.0000
  H   H607      1.0  0.27152  0.84341  0.60200  1.0000
  H   H608      1.0  0.28140  0.87892  0.57850  1.0000
  C   C366      1.0  0.09361  0.93585  0.43209  1.0000
  H   H609      1.0  0.04816  0.80448  0.42448  1.0000
  C   C367      1.0  0.01812  0.81168  0.41062  1.0000
  H   H610      1.0  0.14659  0.80141  0.55395  1.0000
  H   H611      1.0  0.29857  0.88013  0.59001  1.0000
  C   C368      1.0  0.28713  0.76667  0.55288  1.0000
  S   S148      1.0  0.02607  0.99045  0.39673  1.0000
  N   N40       1.0  0.16997  0.85814  0.62418  1.0000
  C   C369      1.0  0.28710  0.85837  0.62049  1.0000
  H   H612      1.0  0.01716  0.81894  0.42160  1.0000
  C   C370      1.0  0.01188  0.93543  0.37432  1.0000
  H   H613      1.0  0.02298  0.78851  0.44093  1.0000
  H   H614      1.0  0.25588  0.88307  0.62374  1.0000
  C   C371      1.0  0.26412  0.85683  0.60487  1.0000
  C   C372      1.0  0.28899  0.87165  0.58932  1.0000
  H   H615      1.0  0.25869  0.89316  0.60066  1.0000
  H   H616      1.0  0.25646  0.86342  0.59402  1.0000
  H   H617      1.0  0.01193  0.95776  0.35232  1.0000
  H   H618      1.0  0.17756  0.87733  0.60071  1.0000
  H   H619      1.0  0.05218  0.91743  0.34493  1.0000
  C   C373      1.0  0.00558  0.78423  0.36293  1.0000
  S   S149      1.0  0.07964  0.98006  0.39605  1.0000
  C   C374      1.0  0.06669  0.91789  0.33942  1.0000
  C   C375      1.0  0.26610  0.88523  0.61131  1.0000
  N   N41       1.0  0.06909  0.92853  0.32117  1.0000
  S   S150      1.0  0.13904  0.92386  0.31488  1.0000
  S   S151      1.0  0.21099  0.89762  0.63728  1.0000
  C   C376      1.0  0.15814  0.78665  0.64093  1.0000
  S   S152      1.0  0.22132  0.84489  0.64257  1.0000
  H   H620      1.0  0.14183  0.85902  0.63574  1.0000
  C   C377      1.0  0.17309  0.86872  0.63633  1.0000
  H   H621      1.0  0.18379  0.83530  0.61214  1.0000
  H   H622      1.0  0.20902  0.74185  0.54191  1.0000
  H   H623      1.0  0.06512  0.95368  0.32991  1.0000
  H   H624      1.0  0.09458  0.80443  0.32412  1.0000
  C   C378      1.0  0.24979  0.76782  0.63928  1.0000
  H   H625      1.0  0.00054  0.82692  0.36968  1.0000
  H   H626      1.0  0.15204  0.84046  0.62440  1.0000
  C   C379      1.0  0.15446  0.84911  0.63286  1.0000
  C   C380      1.0  0.08038  0.80582  0.32241  1.0000
  Fe  Fe75      1.0  0.16711  0.90810  0.31467  1.0000
  H   H627      1.0  0.13045  0.85738  0.32223  1.0000
  C   C381      1.0  0.08158  0.98759  0.31541  1.0000
  C   C382      1.0  0.05963  0.94727  0.32149  1.0000
  C   C383      1.0  0.99838  0.81333  0.37171  1.0000
  C   C384      1.0  0.18414  0.79994  0.64146  1.0000
  H   H628      1.0  0.09627  0.91435  0.31466  1.0000
  C   C385      1.0  0.10841  0.99040  0.32487  1.0000
  C   C386      1.0  0.10482  0.86149  0.31410  1.0000
  H   H629      1.0  0.04657  0.92214  0.31364  1.0000
  C   C387      1.0  0.11912  0.97938  0.31317  1.0000
  S   S153      1.0  0.14232  0.97311  0.31305  1.0000
  H   H630      1.0  0.15681  0.84030  0.64575  1.0000
  C   C388      1.0  0.19639  0.75326  0.66004  1.0000
  H   H631      1.0  0.41973  0.93057  0.90761  1.0000
  H   H632      1.0  0.13644  0.78956  0.66329  1.0000
  Fe  Fe76      1.0  0.20671  0.83397  0.66941  1.0000
  H   H633      1.0  0.41154  0.93494  0.85882  1.0000
  S   S154      1.0  0.18438  0.81844  0.66907  1.0000
  Fe  Fe77      1.0  0.22961  0.85109  0.68828  1.0000
  S   S155      1.0  0.24552  0.86195  0.66195  1.0000
  S   S156      1.0  0.23704  0.85494  0.71403  1.0000
  H   H634      1.0  0.47342  0.74176  0.68013  1.0000
  H   H635      1.0  0.47813  0.76434  0.82791  1.0000
  C   C389      1.0  0.37325  0.88694  0.77280  1.0000
  H   H636      1.0  0.38278  0.90087  0.89966  1.0000
  S   S157      1.0  0.20241  0.86027  0.67944  1.0000
  S   S158      1.0  0.23186  0.82355  0.68158  1.0000
  Fe  Fe78      1.0  0.27908  0.92826  0.90672  1.0000
  S   S159      1.0  0.27635  0.92455  0.93614  1.0000
  S   S160      1.0  0.28948  0.95137  0.88775  1.0000
  Fe  Fe79      1.0  0.26758  0.89330  0.90841  1.0000
  S   S161      1.0  0.26397  0.88607  0.93824  1.0000
  S   S162      1.0  0.26565  0.87459  0.89110  1.0000
  Fe  Fe80      1.0  0.25081  0.91506  0.93720  1.0000
  C   C390      1.0  0.29036  0.97607  0.92946  1.0000
  Fe  Fe81      1.0  0.28981  0.89610  0.93479  1.0000
  S   S163      1.0  0.31013  0.88377  0.95262  1.0000
  S   S164      1.0  0.25217  0.92156  0.90770  1.0000
  S   S165      1.0  0.29473  0.90058  0.90511  1.0000
  Fe  Fe82      1.0  0.29720  0.90384  0.75531  1.0000
  S   S166      1.0  0.28720  0.88435  0.77925  1.0000
  S   S167      1.0  0.28711  0.90400  0.72972  1.0000
  Fe  Fe83      1.0  0.31978  0.91844  0.77669  1.0000
  S   S168      1.0  0.31051  0.89929  0.80114  1.0000
  H   H637      1.0  0.36185  0.92871  0.81054  1.0000
  Fe  Fe84      1.0  0.31560  0.87861  0.78386  1.0000
  S   S169      1.0  0.33111  0.85065  0.79169  1.0000
  Fe  Fe85      1.0  0.28327  0.90713  0.79369  1.0000
  S   S170      1.0  0.25818  0.91540  0.81303  1.0000
  S   S171      1.0  0.32631  0.89700  0.75934  1.0000
  S   S172      1.0  0.29174  0.92747  0.76974  1.0000
  Fe  Fe86      1.0  0.40095  0.83266  0.86188  1.0000
  S   S173      1.0  0.38984  0.85373  0.84062  1.0000
  S   S174      1.0  0.40973  0.80450  0.85649  1.0000
  Fe  Fe87      1.0  0.39292  0.85887  0.88721  1.0000
  S   S175      1.0  0.38160  0.88216  0.86769  1.0000
  S   S176      1.0  0.39149  0.86228  0.91509  1.0000
  Fe  Fe88      1.0  0.36771  0.86202  0.86253  1.0000
  S   S177      1.0  0.33836  0.86842  0.86120  1.0000
  Fe  Fe89      1.0  0.40506  0.87139  0.84789  1.0000
  S   S178      1.0  0.42155  0.88708  0.82483  1.0000
  S   S179      1.0  0.37738  0.83947  0.88330  1.0000
  S   S180      1.0  0.41787  0.84972  0.86789  1.0000
  C   C391      1.0  0.42712  0.90546  0.83042  1.0000
  C   C392      1.0  0.41639  0.91324  0.84459  1.0000
  C   C393      1.0  0.35775  0.95528  0.81682  1.0000
  H   H638      1.0  0.40515  0.90740  0.85269  1.0000
  H   H639      1.0  0.18491  0.76254  0.66658  1.0000
  C   C394      1.0  0.33037  0.84878  0.81439  1.0000
  C   C395      1.0  0.34571  0.84069  0.82180  1.0000
  C   C396      1.0  0.34752  0.84521  0.83755  1.0000
  C   C397      1.0  0.33411  0.85791  0.84550  1.0000
  C   C398      1.0  0.31780  0.86383  0.83946  1.0000
  C   C399      1.0  0.31587  0.85906  0.82397  1.0000
  H   H640      1.0  0.35676  0.83216  0.81477  1.0000
  H   H641      1.0  0.35962  0.83955  0.84298  1.0000
  H   H642      1.0  0.30717  0.87317  0.84594  1.0000
  H   H643      1.0  0.30367  0.86452  0.81863  1.0000
  C   C400      1.0  0.33274  0.87839  0.94190  1.0000
  C   C401      1.0  0.33718  0.87918  0.92352  1.0000
  C   C402      1.0  0.35515  0.87402  0.91528  1.0000
  C   C403      1.0  0.36888  0.86851  0.92534  1.0000
  C   C404      1.0  0.36453  0.86812  0.94369  1.0000
  C   C405      1.0  0.34647  0.87287  0.95198  1.0000
  H   H644      1.0  0.32679  0.88355  0.91563  1.0000
  H   H645      1.0  0.35831  0.87435  0.90113  1.0000
  H   H646      1.0  0.37506  0.86383  0.95156  1.0000
  C   C406      1.0  0.39517  0.97278  0.77813  1.0000
  C   C407      1.0  0.31077  0.95210  0.89131  1.0000
  C   C408      1.0  0.32118  0.96373  0.87932  1.0000
  C   C409      1.0  0.33745  0.97818  0.80102  1.0000
  C   C410      1.0  0.34324  0.95619  0.89864  1.0000
  C   C411      1.0  0.33312  0.94411  0.91036  1.0000
  C   C412      1.0  0.31703  0.94186  0.90654  1.0000
  C   C413      1.0  0.46545  0.75877  0.83141  1.0000
  H   H647      1.0  0.33766  0.93658  0.92243  1.0000
  H   H648      1.0  0.30934  0.93247  0.91561  1.0000
  C   C414      1.0  0.26267  0.88573  0.86954  1.0000
  C   C415      1.0  0.26956  0.87669  0.85519  1.0000
  C   C416      1.0  0.26818  0.88575  0.83779  1.0000
  C   C417      1.0  0.25939  0.90369  0.83476  1.0000
  C   C418      1.0  0.25198  0.91256  0.84914  1.0000
  C   C419      1.0  0.25379  0.90366  0.86647  1.0000
  H   H649      1.0  0.27628  0.86277  0.85749  1.0000
  H   H650      1.0  0.27365  0.87879  0.82674  1.0000
  H   H651      1.0  0.24505  0.92641  0.84687  1.0000
  H   H652      1.0  0.24797  0.91059  0.87745  1.0000
  C   C420      1.0  0.25160  0.86834  0.71776  1.0000
  C   C421      1.0  0.25657  0.86514  0.73457  1.0000
  C   C422      1.0  0.26763  0.87559  0.73833  1.0000
  C   C423      1.0  0.27372  0.88974  0.72544  1.0000
  C   C424      1.0  0.26875  0.89294  0.70864  1.0000
  C   C425      1.0  0.25790  0.88232  0.70478  1.0000
  H   H653      1.0  0.25195  0.85434  0.74472  1.0000
  H   H654      1.0  0.27153  0.87260  0.75119  1.0000
  H   H655      1.0  0.27331  0.90377  0.69848  1.0000
  H   H656      1.0  0.25423  0.88512  0.69181  1.0000
  H   H657      1.0  0.41090  0.90459  0.93098  1.0000
  C   C426      1.0  0.41981  0.92902  0.84789  1.0000
  C   C427      1.0  0.38178  0.85866  0.79190  1.0000
  H   H658      1.0  0.25844  0.91719  0.97462  1.0000
  H   H659      1.0  0.36683  0.95115  0.82624  1.0000
  S   S181      1.0  0.34176  0.93136  0.78262  1.0000
  H   H660      1.0  0.38910  0.89996  0.79314  1.0000
  C   C428      1.0  0.34273  0.94725  0.79583  1.0000
  H   H661      1.0  0.39552  0.87893  0.80724  1.0000
  H   H662      1.0  0.31648  0.97159  0.86744  1.0000
  H   H663      1.0  0.43127  0.75911  0.83018  1.0000
  N   N42       1.0  0.45832  0.75914  0.81537  1.0000
  H   H664      1.0  0.40900  0.93762  0.88856  1.0000
  H   H665      1.0  0.38733  0.91436  0.93197  1.0000
  H   H666      1.0  0.29139  0.91713  0.96834  1.0000
  H   H667      1.0  0.15126  0.80586  0.67760  1.0000
  C   C429      1.0  0.35470  0.94244  0.80801  1.0000
  C   C430      1.0  0.44175  0.91308  0.82001  1.0000
  H   H668      1.0  0.39564  0.75183  0.72793  1.0000
  S   S182      1.0  0.40878  0.75421  0.78618  1.0000
  C   C431      1.0  0.40560  0.79084  0.82885  1.0000
  H   H669      1.0  0.24330  0.95121  0.93079  1.0000
  H   H670      1.0  0.40093  0.77996  0.83888  1.0000
  C   C432      1.0  0.23820  0.95652  0.94293  1.0000
  C   C433      1.0  0.36448  0.81946  0.76890  1.0000
  C   C434      1.0  0.40709  0.93116  0.90284  1.0000
  H   H671      1.0  0.39619  0.94032  0.91012  1.0000
  C   C435      1.0  0.15825  0.80163  0.66521  1.0000
  C   C436      1.0  0.41052  0.80492  0.83396  1.0000
  H   H672      1.0  0.32977  0.81584  0.77780  1.0000
  H   H673      1.0  0.33933  0.81036  0.79747  1.0000
  H   H674      1.0  0.32174  0.98703  0.91456  1.0000
  S   S183      1.0  0.22723  0.92449  0.95746  1.0000
  C   C437      1.0  0.33923  0.80544  0.78522  1.0000
  H   H675      1.0  0.34314  0.87221  0.96622  1.0000
  N   N43       1.0  0.35754  0.80239  0.77432  1.0000
  H   H676      1.0  0.31818  0.90192  0.83645  1.0000
  N   N44       1.0  0.37706  0.87840  0.79071  1.0000
  N   N45       1.0  0.40791  0.96377  0.79028  1.0000
  Fe  Fe90      1.0  0.41978  0.77759  0.76804  1.0000
  H   H677      1.0  0.31836  0.95120  0.83043  1.0000
  H   H678      1.0  0.46693  0.78384  0.80108  1.0000
  H   H679      1.0  0.28734  0.97119  0.91834  1.0000
  H   H680      1.0  0.40253  0.78008  0.80705  1.0000
  H   H681      1.0  0.28922  0.92028  0.82777  1.0000
  H   H682      1.0  0.45019  0.90697  0.80914  1.0000
  N   N46       1.0  0.31070  0.83943  0.90594  1.0000
  C   C438      1.0  0.29616  0.84817  0.91871  1.0000
  C   C439      1.0  0.31365  0.81972  0.91208  1.0000
  C   C440      1.0  0.32752  0.84602  0.90467  1.0000
  C   C441      1.0  0.30552  0.84385  0.88824  1.0000
  H   H683      1.0  0.29359  0.86299  0.91429  1.0000
  H   H684      1.0  0.29967  0.84539  0.93217  1.0000
  H   H685      1.0  0.28317  0.84368  0.91990  1.0000
  H   H686      1.0  0.32462  0.81276  0.90274  1.0000
  H   H687      1.0  0.31758  0.81597  0.92541  1.0000
  H   H688      1.0  0.30120  0.81434  0.91310  1.0000
  H   H689      1.0  0.33876  0.83969  0.89514  1.0000
  H   H690      1.0  0.33183  0.84323  0.91777  1.0000
  H   H691      1.0  0.32581  0.86081  0.89974  1.0000
  H   H692      1.0  0.31606  0.83729  0.87830  1.0000
  H   H693      1.0  0.30365  0.85862  0.88304  1.0000
  H   H694      1.0  0.29254  0.83966  0.88871  1.0000
  N   N47       1.0  0.23189  0.90661  0.77482  1.0000
  C   C442      1.0  0.21858  0.91794  0.78638  1.0000
  C   C443      1.0  0.22334  0.90340  0.76106  1.0000
  C   C444      1.0  0.23854  0.88920  0.78572  1.0000
  C   C445      1.0  0.24720  0.91590  0.76614  1.0000
  H   H695      1.0  0.20680  0.91139  0.79315  1.0000
  H   H696      1.0  0.21344  0.93127  0.77864  1.0000
  H   H697      1.0  0.22472  0.92046  0.79694  1.0000
  H   H698      1.0  0.23317  0.89508  0.75198  1.0000
  H   H699      1.0  0.21188  0.89617  0.76707  1.0000
  H   H700      1.0  0.21812  0.91625  0.75262  1.0000
  H   H701      1.0  0.24525  0.89114  0.79612  1.0000
  H   H702      1.0  0.24855  0.88026  0.77742  1.0000
  H   H703      1.0  0.22733  0.88188  0.79262  1.0000
  H   H704      1.0  0.25769  0.90755  0.75768  1.0000
  H   H705      1.0  0.25375  0.91888  0.77611  1.0000
  H   H706      1.0  0.24285  0.92888  0.75741  1.0000
  H   H707      1.0  0.45553  0.76694  0.84058  1.0000
  C   C446      1.0  0.43394  0.93707  0.83711  1.0000
  H   H708      1.0  0.44483  0.78667  0.81459  1.0000
  H   H709      1.0  0.43635  0.95921  0.79035  1.0000
  H   H710      1.0  0.28161  0.94254  0.83238  1.0000
  S   S184      1.0  0.38427  0.96402  0.85512  1.0000
  H   H711      1.0  0.30106  0.93795  0.81535  1.0000
  C   C447      1.0  0.29391  0.93246  0.82879  1.0000
  H   H712      1.0  0.30253  0.96682  0.93366  1.0000
  C   C448      1.0  0.44524  0.92884  0.82344  1.0000
  H   H713      1.0  0.36188  0.88206  0.77003  1.0000
  Fe  Fe91      1.0  0.40124  0.74999  0.76188  1.0000
  C   C449      1.0  0.40653  0.79089  0.81081  1.0000
  C   C450      1.0  0.39228  0.88511  0.79386  1.0000
  S   S185      1.0  0.43657  0.95812  0.83968  1.0000
  N   N48       1.0  0.30570  0.92819  0.84212  1.0000
  H   H714      1.0  0.16375  0.74763  0.65792  1.0000
  C   C451      1.0  0.34962  0.97347  0.81296  1.0000
  C   C452      1.0  0.36970  0.78893  0.78485  1.0000
  C   C453      1.0  0.32188  0.91485  0.83682  1.0000
  C   C454      1.0  0.33391  0.96524  0.79268  1.0000
  H   H715      1.0  0.32499  0.96944  0.78311  1.0000
  H   H716      1.0  0.41577  0.93746  0.80522  1.0000
  H   H717      1.0  0.42772  0.98038  0.77755  1.0000
  C   C455      1.0  0.31124  0.94480  0.84345  1.0000
  H   H718      1.0  0.37825  0.81768  0.76053  1.0000
  H   H719      1.0  0.41135  0.93755  0.78375  1.0000
  S   S186      1.0  0.45109  0.75611  0.71014  1.0000
  H   H720      1.0  0.39546  0.98743  0.77404  1.0000
  H   H721      1.0  0.38370  0.78690  0.77712  1.0000
  Fe  Fe92      1.0  0.37701  0.97594  0.87972  1.0000
  H   H722      1.0  0.33351  0.79287  0.78940  1.0000
  H   H723      1.0  0.35207  0.78257  0.76194  1.0000
  C   C456      1.0  0.40298  0.97200  0.80633  1.0000
  H   H724      1.0  0.38816  0.92046  0.88379  1.0000
  H   H725      1.0  0.23470  0.80810  0.65221  1.0000
  H   H726      1.0  0.43030  0.89956  0.90206  1.0000
  H   H727      1.0  0.42101  0.90634  0.88210  1.0000
  C   C457      1.0  0.41784  0.90108  0.89662  1.0000
  H   H728      1.0  0.37429  0.92277  0.90508  1.0000
  N   N49       1.0  0.40254  0.91308  0.90561  1.0000
  C   C458      1.0  0.39896  0.90570  0.92487  1.0000
  C   C459      1.0  0.36084  0.88293  0.80420  1.0000
  H   H729      1.0  0.39558  0.89204  0.92750  1.0000
  C   C460      1.0  0.38626  0.91436  0.89817  1.0000
  H   H730      1.0  0.41481  0.88737  0.89828  1.0000
  H   H731      1.0  0.37029  0.79333  0.79722  1.0000
  H   H732      1.0  0.37066  0.85331  0.78924  1.0000
  H   H733      1.0  0.36309  0.87665  0.81791  1.0000
  H   H734      1.0  0.38436  0.85166  0.80534  1.0000
  C   C461      1.0  0.44152  0.75166  0.82071  1.0000
  H   H735      1.0  0.34907  0.87818  0.80212  1.0000
  H   H736      1.0  0.46684  0.74828  0.79132  1.0000
  H   H737      1.0  0.30415  0.91798  0.86994  1.0000
  H   H738      1.0  0.35688  0.89771  0.80366  1.0000
  C   C462      1.0  0.14976  0.79235  0.65701  1.0000
  S   S187      1.0  0.41430  0.80507  0.77517  1.0000
  H   H739      1.0  0.32934  0.91973  0.82339  1.0000
  H   H740      1.0  0.36534  0.77561  0.78865  1.0000
  H   H741      1.0  0.28309  0.92993  0.86383  1.0000
  Fe  Fe93      1.0  0.24604  0.83546  0.65477  1.0000
  S   S188      1.0  0.40418  0.98282  0.87742  1.0000
  C   C463      1.0  0.40700  0.94442  0.79541  1.0000
  H   H742      1.0  0.39415  0.85470  0.78212  1.0000
  H   H743      1.0  0.36940  0.90184  0.77144  1.0000
  C   C464      1.0  0.41703  0.81926  0.80298  1.0000
  S   S189      1.0  0.41005  0.77460  0.74428  1.0000
  H   H744      1.0  0.44836  0.77886  0.79403  1.0000
  H   H745      1.0  0.38100  0.97155  0.78463  1.0000
  Fe  Fe94      1.0  0.41009  0.97415  0.85101  1.0000
  H   H746      1.0  0.38944  0.96992  0.81391  1.0000
  H   H747      1.0  0.34536  0.97471  0.87359  1.0000
  C   C465      1.0  0.29576  0.92058  0.85956  1.0000
  C   C466      1.0  0.33752  0.96558  0.88287  1.0000
  H   H748      1.0  0.32046  0.94202  0.85315  1.0000
  S   S190      1.0  0.44767  0.76184  0.76051  1.0000
  H   H749      1.0  0.33130  0.91171  0.84638  1.0000
  H   H750      1.0  0.40479  0.88191  0.78400  1.0000
  Fe  Fe95      1.0  0.21882  0.87000  0.65298  1.0000
  C   C467      1.0  0.17543  0.80569  0.65763  1.0000
  H   H751      1.0  0.24946  0.98051  0.93263  1.0000
  C   C468      1.0  0.24413  0.79733  0.64685  1.0000
  C   C469      1.0  0.41626  0.81913  0.82101  1.0000
  C   C470      1.0  0.41235  0.80505  0.79784  1.0000
  H   H752      1.0  0.37042  0.79344  0.74972  1.0000
  H   H753      1.0  0.38520  0.88392  0.76226  1.0000
  H   H754      1.0  0.42059  0.82978  0.82485  1.0000
  H   H755      1.0  0.29199  0.90761  0.85931  1.0000
  S   S191      1.0  0.35506  0.99099  0.82147  1.0000
  H   H756      1.0  0.34758  0.80541  0.75017  1.0000
  H   H757      1.0  0.45634  0.93492  0.81519  1.0000
  S   S192      1.0  0.36250  0.96021  0.90407  1.0000
  C   C471      1.0  0.47181  0.74820  0.80357  1.0000
  H   H758      1.0  0.36545  0.82464  0.78069  1.0000
  H   H759      1.0  0.35545  0.83011  0.76122  1.0000
  H   H760      1.0  0.42178  0.83013  0.79299  1.0000
  H   H761      1.0  0.29936  0.95490  0.84804  1.0000
  C   C472      1.0  0.35684  0.79570  0.75833  1.0000
  Fe  Fe96      1.0  0.43682  0.75643  0.73838  1.0000
  C   C473      1.0  0.23560  0.97984  0.95981  1.0000
  C   C474      1.0  0.42651  0.96592  0.78138  1.0000
  H   H762      1.0  0.20791  0.75129  0.66703  1.0000
  H   H763      1.0  0.39834  0.96685  0.76590  1.0000
  H   H764      1.0  0.34792  0.75119  0.66161  1.0000
  H   H765      1.0  0.40269  0.98677  0.80293  1.0000
  H   H766      1.0  0.41268  0.96606  0.81551  1.0000
  H   H767      1.0  0.27882  0.97470  0.94076  1.0000
  C   C475      1.0  0.24168  0.97314  0.94398  1.0000
  C   C476      1.0  0.22100  0.95406  0.97293  1.0000
  H   H768      1.0  0.22389  0.78096  0.65164  1.0000
  C   C477      1.0  0.22838  0.94669  0.95761  1.0000
  C   C478      1.0  0.45446  0.77793  0.80584  1.0000
  C   C479      1.0  0.23795  0.78184  0.64654  1.0000
  H   H769      1.0  0.43542  0.75231  0.80901  1.0000
  H   H770      1.0  0.39310  0.94227  0.80174  1.0000
  H   H771      1.0  0.46843  0.74479  0.83896  1.0000
  H   H772      1.0  0.43078  0.95993  0.76915  1.0000
  C   C480      1.0  0.22459  0.97068  0.97400  1.0000
  H   H773      1.0  0.48476  0.75329  0.79936  1.0000
  H   H774      1.0  0.26897  0.94619  0.96647  1.0000
  H   H775      1.0  0.17640  0.85992  0.64894  1.0000
  H   H776      1.0  0.20074  0.76028  0.64623  1.0000
  S   S193      1.0  0.37502  0.74207  0.76287  1.0000
  C   C481      1.0  0.38899  0.74102  0.72786  1.0000
  H   H777      1.0  0.91223  0.18280  0.23309  1.0000
  H   H778      1.0  0.99485  0.17956  0.23362  1.0000
  C   C482      1.0  0.50705  0.19753  0.98071  1.0000
  S   S194      1.0  0.93663  0.10582  0.28254  1.0000
  H   H779      1.0  0.99542  0.16869  0.16763  1.0000
  C   C483      1.0  0.96134  0.18039  0.29620  1.0000
  S   S195      1.0  0.97786  0.10826  0.28573  1.0000
  S   S196      1.0  0.82306  0.24054  0.09814  1.0000
  S   S197      1.0  0.94818  0.14541  0.27692  1.0000
  Fe  Fe97      1.0  0.90836  0.16434  0.17771  1.0000
  S   S198      1.0  0.88417  0.15097  0.18476  1.0000
  S   S199      1.0  0.93725  0.14987  0.17480  1.0000
  Fe  Fe98      1.0  0.95455  0.09625  0.30291  1.0000
  H   H780      1.0  0.55073  0.14142  0.09895  1.0000
  S   S200      1.0  0.63339  0.22981  0.12147  1.0000
  H   H781      1.0  0.94623  0.20657  0.28718  1.0000
  C   C484      1.0  0.98682  0.12613  0.22823  1.0000
  H   H782      1.0  0.89866  0.18317  0.28877  1.0000
  C   C485      1.0  0.53925  0.18596  0.08248  1.0000
  S   S201      1.0  0.89037  0.22810  0.18353  1.0000
  S   S202      1.0  0.96505  0.12181  0.23706  1.0000
  C   C486      1.0  0.89060  0.22558  0.24193  1.0000
  S   S203      1.0  0.67643  0.19475  0.11230  1.0000
  H   H783      1.0  0.57068  0.15968  0.10589  1.0000
  H   H784      1.0  0.61198  0.22886  0.03552  1.0000
  C   C487      1.0  0.95489  0.18890  0.23104  1.0000
  C   C488      1.0  0.59164  0.21926  0.07618  1.0000
  Fe  Fe99      1.0  0.55432  0.18051  0.03285  1.0000
  S   S204      1.0  0.52928  0.20078  0.03930  1.0000
  S   S205      1.0  0.58001  0.18250  0.04223  1.0000
  Fe  Fe100     1.0  0.51558  0.17687  0.04806  1.0000
  H   H785      1.0  0.69849  0.21772  0.08606  1.0000
  Fe  Fe101     1.0  0.52478  0.20026  0.01228  1.0000
  C   C489      1.0  0.83221  0.18986  0.12625  1.0000
  S   S206      1.0  0.54053  0.15623  0.04268  1.0000
  H   H786      1.0  0.93635  0.10825  0.19458  1.0000
  H   H787      1.0  0.92351  0.20091  0.20441  1.0000
  H   H788      1.0  0.94983  0.21091  0.15980  1.0000
  S   S207      1.0  0.89668  0.18753  0.15825  1.0000
  C   C490      1.0  0.92223  0.10904  0.20215  1.0000
  H   H789      1.0  0.62212  0.23538  0.01268  1.0000
  C   C491      1.0  0.92399  0.18442  0.23815  1.0000
  C   C492      1.0  0.53026  0.11222  0.98163  1.0000
  C   C493      1.0  0.93515  0.20205  0.20995  1.0000
  H   H790      1.0  0.95102  0.20105  0.23736  1.0000
  H   H791      1.0  0.94683  0.09655  0.22352  1.0000
  S   S208      1.0  0.98720  0.20784  0.16011  1.0000
  C   C494      1.0  0.92694  0.12959  0.21875  1.0000
  Fe  Fe102     1.0  0.53362  0.15974  0.01529  1.0000
  H   H792      1.0  0.89104  0.21848  0.30208  1.0000
  C   C495      1.0  0.60500  0.20534  0.07015  1.0000
  C   C496      1.0  0.60130  0.19452  0.05956  1.0000
  C   C497      1.0  0.58429  0.19751  0.05459  1.0000
  C   C498      1.0  0.57113  0.21179  0.06018  1.0000
  C   C499      1.0  0.99741  0.18700  0.24306  1.0000
  H   H793      1.0  0.61806  0.20258  0.07402  1.0000
  H   H794      1.0  0.61165  0.18356  0.05540  1.0000
  H   H795      1.0  0.55811  0.21465  0.05624  1.0000
  S   S209      1.0  0.77271  0.23299  0.10693  1.0000
  H   H796      1.0  0.53962  0.19889  0.08616  1.0000
  S   S210      1.0  0.76046  0.19200  0.09589  1.0000
  H   H797      1.0  0.52054  0.17039  0.11281  1.0000
  H   H798      1.0  0.96693  0.19071  0.22036  1.0000
  H   H799      1.0  0.91376  0.12007  0.19424  1.0000
  H   H800      1.0  0.53478  0.18332  0.11774  1.0000
  Fe  Fe103     1.0  0.95895  0.11976  0.26652  1.0000
  C   C500      1.0  0.83274  0.22069  0.11104  1.0000
  H   H801      1.0  0.93171  0.10009  0.24383  1.0000
  H   H802      1.0  0.70565  0.16776  0.12299  1.0000
  S   S211      1.0  0.89959  0.17856  0.20076  1.0000
  H   H803      1.0  0.49779  0.14431  0.02237  1.0000
  S   S212      1.0  0.51484  0.22447  0.99298  1.0000
  S   S213      1.0  0.64763  0.22755  0.07896  1.0000
  C   C501      1.0  0.52099  0.12741  0.98889  1.0000
  C   C502      1.0  0.97939  0.19879  0.31134  1.0000
  H   H804      1.0  0.92658  0.13245  0.23209  1.0000
  H   H805      1.0  0.91956  0.19647  0.24458  1.0000
  H   H806      1.0  0.57413  0.17003  0.08285  1.0000
  H   H807      1.0  0.95898  0.17706  0.24127  1.0000
  S   S214      1.0  0.59513  0.23279  0.09044  1.0000
  C   C503      1.0  0.88829  0.14763  0.28101  1.0000
  C   C504      1.0  0.89870  0.14897  0.26382  1.0000
  C   C505      1.0  0.89021  0.15269  0.24900  1.0000
  C   C506      1.0  0.87149  0.15404  0.25144  1.0000
  C   C507      1.0  0.86120  0.15255  0.26863  1.0000
  C   C508      1.0  0.86953  0.14972  0.28335  1.0000
  H   H808      1.0  0.91322  0.14710  0.26202  1.0000
  H   H809      1.0  0.89809  0.15400  0.23575  1.0000
  H   H810      1.0  0.84672  0.15356  0.27058  1.0000
  H   H811      1.0  0.87446  0.20497  0.24730  1.0000
  H   H812      1.0  0.91838  0.14106  0.21149  1.0000
  H   H813      1.0  0.94108  0.12916  0.21128  1.0000
  H   H814      1.0  0.64210  0.22279  0.04370  1.0000
  S   S215      1.0  0.55068  0.18154  0.00470  1.0000
  H   H815      1.0  0.82640  0.17784  0.12905  1.0000
  H   H816      1.0  0.71868  0.21065  0.14779  1.0000
  H   H817      1.0  0.97934  0.14257  0.20414  1.0000
  S   S216      1.0  0.89257  0.22320  0.26419  1.0000
  H   H818      1.0  0.81755  0.21805  0.14790  1.0000
  C   C509      1.0  0.96580  0.20842  0.30197  1.0000
  H   H819      1.0  0.54744  0.18572  0.06892  1.0000
  H   H820      1.0  0.81420  0.20485  0.10848  1.0000
  N   N50       1.0  0.93985  0.18632  0.22374  1.0000
  C   C510      1.0  0.70724  0.20667  0.09278  1.0000
  Fe  Fe104     1.0  0.88609  0.20089  0.18205  1.0000
  H   H821      1.0  0.73162  0.21680  0.07974  1.0000
  Fe  Fe105     1.0  0.87433  0.16751  0.20615  1.0000
  H   H822      1.0  0.71507  0.20822  0.12690  1.0000
  H   H823      1.0  0.55479  0.15270  0.07620  1.0000
  S   S217      1.0  0.85972  0.19116  0.18939  1.0000
  C   C511      1.0  0.95679  0.19921  0.29435  1.0000
  C   C512      1.0  0.50254  0.21579  0.98183  1.0000
  H   H824      1.0  0.94668  0.20339  0.19865  1.0000
  H   H825      1.0  0.52503  0.18605  0.08169  1.0000
  H   H826      1.0  0.86483  0.20605  0.13718  1.0000
  C   C513      1.0  0.53481  0.17080  0.11303  1.0000
  H   H827      1.0  0.65237  0.22986  0.02100  1.0000
  C   C514      1.0  0.69986  0.19307  0.10534  1.0000
  H   H828      1.0  0.53966  0.15915  0.12307  1.0000
  H   H829      1.0  0.90034  0.11631  0.24339  1.0000
  S   S218      1.0  0.85371  0.17144  0.15012  1.0000
  H   H830      1.0  0.97570  0.14594  0.17290  1.0000
  C   C515      1.0  0.64544  0.23472  0.03354  1.0000
  H   H831      1.0  0.89278  0.12530  0.22267  1.0000
  N   N51       1.0  0.54628  0.17031  0.09527  1.0000
  C   C516      1.0  0.95151  0.16571  0.17011  1.0000
  Fe  Fe106     1.0  0.92743  0.13038  0.29483  1.0000
  H   H832      1.0  0.99040  0.16175  0.27077  1.0000
  C   C517      1.0  0.54592  0.15358  0.08943  1.0000
  C   C518      1.0  0.90183  0.11393  0.22963  1.0000
  S   S219      1.0  0.50781  0.17878  0.02194  1.0000
  H   H833      1.0  0.91778  0.09625  0.20259  1.0000
  H   H834      1.0  0.93008  0.18854  0.16644  1.0000
  C   C519      1.0  0.88043  0.21581  0.21925  1.0000
  C   C520      1.0  0.95549  0.19681  0.16305  1.0000
  C   C521      1.0  0.84631  0.19024  0.13460  1.0000
  C   C522      1.0  0.93238  0.09773  0.23020  1.0000
  C   C523      1.0  0.56507  0.17098  0.09597  1.0000
  C   C524      1.0  0.94552  0.16996  0.21575  1.0000
  H   H835      1.0  0.94880  0.15774  0.22584  1.0000
  H   H836      1.0  0.89659  0.10143  0.23065  1.0000
  H   H837      1.0  0.53201  0.15297  0.08814  1.0000
  S   S220      1.0  0.53308  0.13717  0.00037  1.0000
  C   C525      1.0  0.71130  0.17842  0.11344  1.0000
  C   C526      1.0  0.89921  0.23789  0.22874  1.0000
  N   N52       1.0  0.92082  0.11254  0.22019  1.0000
  C   C527      1.0  0.97002  0.16015  0.17034  1.0000
  Fe  Fe107     1.0  0.87148  0.17554  0.16732  1.0000
  H   H838      1.0  0.87310  0.20724  0.21568  1.0000
  H   H839      1.0  0.73873  0.16672  0.11647  1.0000
  H   H840      1.0  0.95432  0.17338  0.29038  1.0000
  H   H841      1.0  0.92825  0.08458  0.23156  1.0000
  H   H842      1.0  0.56602  0.18382  0.09950  1.0000
  C   C528      1.0  0.94429  0.18408  0.16664  1.0000
  C   C529      1.0  0.73000  0.17784  0.10977  1.0000
  C   C530      1.0  0.71970  0.21709  0.13354  1.0000
  C   C531      1.0  0.50285  0.13386  0.98681  1.0000
  C   C532      1.0  0.73734  0.19198  0.09810  1.0000
  S   S221      1.0  0.86065  0.15630  0.23349  1.0000
  H   H843      1.0  0.87532  0.20420  0.30388  1.0000
  H   H844      1.0  0.95772  0.17085  0.20511  1.0000
  H   H845      1.0  0.68669  0.22852  0.15212  1.0000
  H   H846      1.0  0.56427  0.23316  0.07546  1.0000
  H   H847      1.0  0.92700  0.17257  0.24870  1.0000
  C   C533      1.0  0.99741  0.23920  0.23302  1.0000
  C   C534      1.0  0.72599  0.20619  0.08926  1.0000
  C   C535      1.0  0.90868  0.18581  0.29563  1.0000
  H   H848      1.0  0.73424  0.21708  0.12765  1.0000
  H   H849      1.0  0.93135  0.21469  0.21541  1.0000
  H   H850      1.0  0.93483  0.16782  0.20953  1.0000
  C   C536      1.0  0.98116  0.17298  0.16740  1.0000
  C   C537      1.0  0.82533  0.20511  0.11458  1.0000
  C   C538      1.0  0.89811  0.23946  0.21091  1.0000
  C   C539      1.0  0.97387  0.19135  0.16368  1.0000
  C   C540      1.0  0.80360  0.22524  0.15206  1.0000
  H   H851      1.0  0.54416  0.10692  0.98303  1.0000
  C   C541      1.0  0.97507  0.17078  0.30547  1.0000
  Fe  Fe108     1.0  0.65961  0.22151  0.10351  1.0000
  C   C542      1.0  0.85387  0.20575  0.13088  1.0000
  Fe  Fe109     1.0  0.76947  0.21868  0.08632  1.0000
  S   S222      1.0  0.79664  0.22183  0.06937  1.0000
  C   C543      1.0  0.84723  0.22088  0.11894  1.0000
  C   C544      1.0  0.88112  0.21458  0.23718  1.0000
  H   H852      1.0  0.79729  0.21626  0.16384  1.0000
  C   C545      1.0  0.88910  0.22813  0.20607  1.0000
  H   H853      1.0  0.85311  0.23285  0.11608  1.0000
  S   S223      1.0  0.89837  0.14347  0.29976  1.0000
  H   H854      1.0  0.82960  0.23426  0.16411  1.0000
  C   C546      1.0  0.57471  0.22239  0.07103  1.0000
  H   H855      1.0  0.95360  0.22923  0.17882  1.0000
  Fe  Fe110     1.0  0.79840  0.23851  0.08858  1.0000
  H   H856      1.0  0.79623  0.22665  0.14103  1.0000
  H   H857      1.0  0.68493  0.22577  0.13057  1.0000
  H   H858      1.0  0.98431  0.19134  0.25173  1.0000
  H   H859      1.0  0.70653  0.23661  0.10421  1.0000
  C   C547      1.0  0.99009  0.13724  0.21162  1.0000
  S   S224      1.0  0.93896  0.23542  0.25763  1.0000
  N   N53       1.0  0.70874  0.23543  0.13121  1.0000
  S   S225      1.0  0.98204  0.14740  0.30700  1.0000
  Fe  Fe111     1.0  0.62165  0.23747  0.09622  1.0000
  C   C548      1.0  0.81542  0.24040  0.16931  1.0000
  H   H860      1.0  0.86145  0.14863  0.29660  1.0000
  H   H861      1.0  0.81067  0.23130  0.18182  1.0000
  H   H862      1.0  0.91523  0.19676  0.28668  1.0000
  H   H863      1.0  0.51938  0.18947  0.98454  1.0000
  Fe  Fe112     1.0  0.96489  0.13271  0.29789  1.0000
  S   S226      1.0  0.96038  0.23191  0.29992  1.0000
  C   C549      1.0  0.68942  0.23440  0.13771  1.0000
  H   H864      1.0  0.49916  0.12929  0.04308  1.0000
  H   H865      1.0  0.91913  0.17337  0.29707  1.0000
  H   H866      1.0  0.65537  0.24022  0.03812  1.0000
  C   C550      1.0  0.61614  0.24044  0.02531  1.0000
  H   H867      1.0  0.71244  0.24056  0.15580  1.0000
  C   C551      1.0  0.88551  0.20671  0.31061  1.0000
  H   H868      1.0  0.97291  0.08684  0.33394  1.0000
  C   C552      1.0  0.91354  0.19484  0.32137  1.0000
  H   H869      1.0  0.96638  0.03258  0.33717  1.0000
  C   C553      1.0  0.98408  0.18004  0.31299  1.0000
  S   S227      1.0  0.94314  0.11967  0.31694  1.0000
  H   H870      1.0  0.91951  0.20652  0.31313  1.0000
  H   H871      1.0  0.88153  0.17225  0.31891  1.0000
  H   H872      1.0  0.92485  0.18317  0.32301  1.0000
  H   H873      1.0  0.90752  0.19825  0.33474  1.0000
  H   H874      1.0  0.99471  0.17268  0.32016  1.0000
  C   C554      1.0  0.96875  0.06034  0.33376  1.0000
  H   H875      1.0  0.87834  0.21066  0.32350  1.0000
  H   H876      1.0  0.90240  0.16313  0.32659  1.0000
  C   C555      1.0  0.97171  0.04213  0.34172  1.0000
  H   H877      1.0  0.88544  0.17866  0.33811  1.0000
  C   C556      1.0  0.89197  0.17557  0.32474  1.0000
  C   C557      1.0  0.97533  0.07272  0.33992  1.0000
  C   C558      1.0  0.98205  0.03612  0.35516  1.0000
  N   N54       1.0  0.89993  0.19074  0.31310  1.0000
  C   C559      1.0  0.98950  0.04829  0.36065  1.0000
  C   C560      1.0  0.98559  0.06669  0.35349  1.0000
  H   H878      1.0  0.98445  0.02202  0.36109  1.0000
  S   S228      1.0  0.95804  0.06692  0.31528  1.0000
  H   H879      1.0  0.98638  0.20583  0.31728  1.0000
  H   H880      1.0  0.99114  0.07618  0.35788  1.0000
  H   H881      1.0  0.51619  0.15252  0.95215  1.0000
  C   C561      1.0  0.50392  0.10997  0.97028  1.0000
  H   H882      1.0  0.51942  0.13375  0.94124  1.0000
  H   H883      1.0  0.53141  0.15193  0.93127  1.0000
  H   H884      1.0  0.52965  0.09218  0.96682  1.0000
  C   C562      1.0  0.52193  0.10374  0.97242  1.0000
  C   C563      1.0  0.51822  0.14864  0.93892  1.0000
  H   H885      1.0  0.51485  0.18170  0.91853  1.0000
  H   H886      1.0  0.49984  0.18228  0.93955  1.0000
  N   N55       1.0  0.50321  0.15794  0.92951  1.0000
  H   H887      1.0  0.51939  0.15519  0.90378  1.0000
  C   C564      1.0  0.50638  0.15219  0.91219  1.0000
  C   C565      1.0  0.50216  0.17762  0.92668  1.0000
  H   H888      1.0  0.50685  0.13742  0.91398  1.0000
  H   H889      1.0  0.49858  0.17516  0.97511  1.0000
  H   H890      1.0  0.51079  0.23961  0.87976  1.0000
  H   H891      1.0  0.67708  0.38979  0.00076  1.0000
  C   C566      1.0  0.69293  0.29765  0.22304  1.0000
  Fe  Fe113     1.0  0.64199  0.25702  0.11545  1.0000
  H   H892      1.0  0.70438  0.41019  0.17934  1.0000
  H   H893      1.0  0.67908  0.28193  0.12775  1.0000
  H   H894      1.0  0.65751  0.29666  0.23346  1.0000
  H   H895      1.0  0.64936  0.32550  0.02236  1.0000
  H   H896      1.0  0.73021  0.40365  0.19524  1.0000
  H   H897      1.0  0.69723  0.31806  0.08655  1.0000
  H   H898      1.0  0.72614  0.24369  0.10653  1.0000
  H   H899      1.0  0.72527  0.43797  0.15418  1.0000
  N   N56       1.0  0.94607  0.25705  0.16754  1.0000
  C   C567      1.0  0.78053  0.32612  0.02732  1.0000
  C   C568      1.0  0.57699  0.33959  0.98819  1.0000
  H   H900      1.0  0.69573  0.33196  0.22121  1.0000
  C   C569      1.0  0.83308  0.45619  0.29445  1.0000
  H   H901      1.0  0.62732  0.36817  0.99700  1.0000
  H   H902      1.0  0.86011  0.45537  0.27920  1.0000
  C   C570      1.0  0.93089  0.25435  0.16046  1.0000
  S   S229      1.0  0.73838  0.27660  0.10488  1.0000
  H   H903      1.0  0.93834  0.28591  0.16225  1.0000
  H   H904      1.0  0.66140  0.31045  0.21185  1.0000
  S   S230      1.0  0.78523  0.26431  0.07352  1.0000
  H   H905      1.0  0.95623  0.30918  0.29120  1.0000
  S   S231      1.0  0.70482  0.41097  0.99688  1.0000
  Fe  Fe114     1.0  0.75940  0.25746  0.09027  1.0000
  S   S232      1.0  0.66409  0.27073  0.04963  1.0000
  Fe  Fe115     1.0  0.72841  0.34511  0.01286  1.0000
  S   S233      1.0  0.72490  0.33710  0.04245  1.0000
  H   H906      1.0  0.92806  0.26491  0.14874  1.0000
  Fe  Fe116     1.0  0.71136  0.38401  0.01418  1.0000
  S   S234      1.0  0.70632  0.37973  0.04397  1.0000
  H   H907      1.0  0.77111  0.33867  0.03033  1.0000
  Fe  Fe117     1.0  0.73406  0.36280  0.04137  1.0000
  S   S235      1.0  0.75464  0.36079  0.05811  1.0000
  Fe  Fe118     1.0  0.69762  0.35458  0.04245  1.0000
  S   S236      1.0  0.67317  0.34594  0.06057  1.0000
  S   S237      1.0  0.74009  0.36936  0.01160  1.0000
  S   S238      1.0  0.70022  0.36019  0.01293  1.0000
  Fe  Fe119     1.0  0.74626  0.32432  0.16594  1.0000
  S   S239      1.0  0.72669  0.31872  0.19144  1.0000
  S   S240      1.0  0.77061  0.30400  0.15792  1.0000
  Fe  Fe120     1.0  0.72364  0.35984  0.15351  1.0000
  S   S241      1.0  0.70232  0.35674  0.17799  1.0000
  S   S242      1.0  0.71930  0.38404  0.13208  1.0000
  Fe  Fe121     1.0  0.72587  0.34789  0.19264  1.0000
  S   S243      1.0  0.72515  0.35963  0.21743  1.0000
  Fe  Fe122     1.0  0.70555  0.32811  0.17385  1.0000
  S   S244      1.0  0.68125  0.31450  0.17579  1.0000
  S   S245      1.0  0.74686  0.35253  0.16803  1.0000
  S   S246      1.0  0.72535  0.33228  0.14849  1.0000
  Fe  Fe123     1.0  0.78247  0.40947  0.26381  1.0000
  S   S247      1.0  0.76715  0.39947  0.29088  1.0000
  S   S248      1.0  0.78027  0.39938  0.23884  1.0000
  Fe  Fe124     1.0  0.80301  0.43132  0.28055  1.0000
  C   C571      1.0  0.71420  0.40637  0.16746  1.0000
  S   S249      1.0  0.82539  0.44751  0.27857  1.0000
  Fe  Fe125     1.0  0.79341  0.39557  0.30014  1.0000
  C   C572      1.0  0.98617  0.25600  0.20089  1.0000
  H   H908      1.0  0.77727  0.30332  0.06994  1.0000
  S   S250      1.0  0.80927  0.40377  0.27302  1.0000
  S   S251      1.0  0.77810  0.43840  0.26777  1.0000
  C   C573      1.0  0.94145  0.27465  0.17333  1.0000
  Fe  Fe126     1.0  0.91091  0.27723  0.27656  1.0000
  H   H909      1.0  0.86207  0.32282  0.26950  1.0000
  H   H910      1.0  0.70857  0.41353  0.15537  1.0000
  H   H911      1.0  0.82304  0.40317  0.30268  1.0000
  H   H912      1.0  0.86365  0.32644  0.29886  1.0000
  H   H913      1.0  0.77299  0.31833  0.02228  1.0000
  C   C574      1.0  0.73923  0.40012  0.18281  1.0000
  S   S252      1.0  0.74044  0.32743  0.99267  1.0000
  H   H914      1.0  0.61865  0.37907  0.01588  1.0000
  H   H915      1.0  0.65191  0.39411  0.98462  1.0000
  H   H916      1.0  0.78898  0.33888  0.05287  1.0000
  H   H917      1.0  0.80933  0.33007  0.03890  1.0000
  H   H918      1.0  0.54872  0.33792  0.99340  1.0000
  S   S253      1.0  0.95245  0.27039  0.21702  1.0000
  H   H919      1.0  0.64397  0.27004  0.02127  1.0000
  C   C575      1.0  0.87558  0.35155  0.27027  1.0000
  H   H920      1.0  0.64960  0.37344  0.02243  1.0000
  H   H921      1.0  0.76266  0.32287  0.06081  1.0000
  H   H922      1.0  0.87066  0.47065  0.29854  1.0000
  C   C576      1.0  0.69111  0.32185  0.09977  1.0000
  H   H923      1.0  0.97154  0.25210  0.24556  1.0000
  H   H924      1.0  0.60931  0.36058  0.01363  1.0000
  H   H925      1.0  0.94137  0.29315  0.29758  1.0000
  C   C577      1.0  0.81070  0.25485  0.13971  1.0000
  H   H926      1.0  0.66235  0.35102  0.02531  1.0000
  C   C578      1.0  0.85254  0.33599  0.26826  1.0000
  Fe  Fe127     1.0  0.93675  0.26445  0.24468  1.0000
  S   S254      1.0  0.61252  0.34320  0.98095  1.0000
  H   H927      1.0  0.74622  0.39054  0.15079  1.0000
  H   H928      1.0  0.50112  0.28251  0.99470  1.0000
  H   H929      1.0  0.81049  0.26847  0.14220  1.0000
  N   N57       1.0  0.73217  0.41039  0.16678  1.0000
  C   C579      1.0  0.76500  0.38757  0.23376  1.0000
  C   C580      1.0  0.77002  0.37992  0.21826  1.0000
  C   C581      1.0  0.75835  0.37095  0.21335  1.0000
  C   C582      1.0  0.74110  0.36981  0.22360  1.0000
  C   C583      1.0  0.73610  0.37738  0.23915  1.0000
  C   C584      1.0  0.74793  0.38606  0.24425  1.0000
  H   H930      1.0  0.78318  0.38081  0.21005  1.0000
  H   H931      1.0  0.76273  0.36495  0.20157  1.0000
  H   H932      1.0  0.72292  0.37660  0.24734  1.0000
  H   H933      1.0  0.74371  0.39183  0.25618  1.0000
  H   H934      1.0  0.77080  0.47984  0.26064  1.0000
  C   C585      1.0  0.85697  0.46816  0.30180  1.0000
  H   H935      1.0  0.98711  0.26556  0.30126  1.0000
  C   C586      1.0  0.84421  0.36570  0.27570  1.0000
  H   H936      1.0  0.69048  0.31298  0.25118  1.0000
  H   H937      1.0  0.87708  0.35780  0.25593  1.0000
  H   H938      1.0  0.88558  0.33875  0.27145  1.0000
  H   H939      1.0  0.79018  0.27610  0.99077  1.0000
  H   H940      1.0  0.63753  0.34045  0.04832  1.0000
  H   H941      1.0  0.67199  0.34109  0.22390  1.0000
  C   C587      1.0  0.74547  0.36816  0.07834  1.0000
  C   C588      1.0  0.75226  0.35893  0.09363  1.0000
  C   C589      1.0  0.74434  0.36391  0.11015  1.0000
  C   C590      1.0  0.72992  0.37843  0.11132  1.0000
  C   C591      1.0  0.72360  0.38814  0.09593  1.0000
  C   C592      1.0  0.73126  0.38289  0.07946  1.0000
  H   H942      1.0  0.76336  0.34763  0.09280  1.0000
  H   H943      1.0  0.74947  0.35650  0.12194  1.0000
  H   H944      1.0  0.71253  0.39946  0.09678  1.0000
  H   H945      1.0  0.72622  0.39031  0.06762  1.0000
  C   C593      1.0  0.65406  0.28444  0.14665  1.0000
  C   C594      1.0  0.68077  0.29601  0.14828  1.0000
  C   C595      1.0  0.67166  0.30281  0.16379  1.0000
  C   C596      1.0  0.65386  0.30014  0.17056  1.0000
  C   C597      1.0  0.64523  0.29118  0.16213  1.0000
  H   H946      1.0  0.69453  0.29768  0.14292  1.0000
  H   H947      1.0  0.64651  0.30517  0.18243  1.0000
  H   H948      1.0  0.63144  0.28947  0.16770  1.0000
  C   C598      1.0  0.66746  0.29123  0.05293  1.0000
  C   C599      1.0  0.65863  0.29772  0.06847  1.0000
  C   C600      1.0  0.66051  0.31450  0.07081  1.0000
  C   C601      1.0  0.67172  0.32459  0.05786  1.0000
  C   C602      1.0  0.68112  0.31788  0.04256  1.0000
  C   C603      1.0  0.67875  0.30132  0.03995  1.0000
  H   H949      1.0  0.65017  0.28994  0.07869  1.0000
  H   H950      1.0  0.65329  0.31958  0.08271  1.0000
  H   H951      1.0  0.69007  0.32548  0.03261  1.0000
  H   H952      1.0  0.68588  0.29619  0.02806  1.0000
  C   C604      1.0  0.74831  0.28189  0.12047  1.0000
  C   C605      1.0  0.76648  0.28367  0.11645  1.0000
  C   C606      1.0  0.77380  0.28963  0.12838  1.0000
  C   C607      1.0  0.76298  0.29346  0.14440  1.0000
  C   C608      1.0  0.74521  0.29046  0.14891  1.0000
  C   C609      1.0  0.73783  0.28488  0.13687  1.0000
  H   H953      1.0  0.77468  0.28133  0.10383  1.0000
  H   H954      1.0  0.78749  0.29213  0.12479  1.0000
  H   H955      1.0  0.73692  0.29308  0.16146  1.0000
  H   H956      1.0  0.72394  0.28316  0.14017  1.0000
  C   C610      1.0  0.77379  0.27509  0.01695  1.0000
  C   C611      1.0  0.77828  0.28248  0.99891  1.0000
  H   H957      1.0  0.54247  0.27692  0.98539  1.0000
  C   C612      1.0  0.75248  0.30675  0.00197  1.0000
  C   C613      1.0  0.74768  0.29913  0.01994  1.0000
  C   C614      1.0  0.75838  0.28333  0.02745  1.0000
  C   C615      1.0  0.50887  0.27099  0.98828  1.0000
  H   H958      1.0  0.76437  0.46715  0.29299  1.0000
  H   H959      1.0  0.73563  0.30525  0.02800  1.0000
  H   H960      1.0  0.75471  0.27750  0.04134  1.0000
  H   H961      1.0  0.83006  0.36398  0.28176  1.0000
  H   H962      1.0  0.64980  0.32065  0.23063  1.0000
  S   S255      1.0  0.94100  0.27355  0.26826  1.0000
  S   S256      1.0  0.78799  0.42260  0.30787  1.0000
  H   H963      1.0  0.69208  0.30925  0.10986  1.0000
  H   H964      1.0  0.77602  0.25331  0.15366  1.0000
  H   H965      1.0  0.95276  0.27726  0.17842  1.0000
  H   H966      1.0  0.61513  0.34475  0.04365  1.0000
  N   N58       1.0  0.67848  0.31212  0.22932  1.0000
  H   H967      1.0  0.80323  0.31863  0.06140  1.0000
  H   H968      1.0  0.66670  0.32189  0.25369  1.0000
  C   C616      1.0  0.85091  0.45942  0.29081  1.0000
  C   C617      1.0  0.97453  0.25828  0.21700  1.0000
  H   H969      1.0  0.74035  0.38539  0.18379  1.0000
  Fe  Fe128     1.0  0.65343  0.25516  0.07622  1.0000
  S   S257      1.0  0.90656  0.27109  0.25151  1.0000
  C   C618      1.0  0.76761  0.29822  0.99142  1.0000
  C   C619      1.0  0.68251  0.32982  0.21944  1.0000
  H   H970      1.0  0.84132  0.33938  0.30337  1.0000
  H   H971      1.0  0.70444  0.25808  0.11000  1.0000
  H   H972      1.0  0.85291  0.40923  0.30178  1.0000
  C   C620      1.0  0.63944  0.33556  0.01519  1.0000
  H   H973      1.0  0.72887  0.24745  0.13660  1.0000
  H   H974      1.0  0.98207  0.26271  0.18844  1.0000
  H   H975      1.0  0.67461  0.29796  0.25639  1.0000
  H   H976      1.0  0.70632  0.29886  0.22520  1.0000
  S   S258      1.0  0.78831  0.25626  0.02616  1.0000
  H   H977      1.0  0.75288  0.40256  0.18279  1.0000
  C   C621      1.0  0.74464  0.40517  0.15072  1.0000
  C   C622      1.0  0.73058  0.42985  0.16614  1.0000
  H   H978      1.0  0.75834  0.40805  0.14968  1.0000
  N   N59       1.0  0.63537  0.35296  0.02134  1.0000
  C   C623      1.0  0.66102  0.30987  0.22624  1.0000
  H   H979      1.0  0.68307  0.33103  0.20495  1.0000
  C   C624      1.0  0.96250  0.25652  0.15356  1.0000
  H   H980      1.0  0.78822  0.46133  0.29260  1.0000
  C   C625      1.0  0.63412  0.26388  0.01729  1.0000
  H   H981      1.0  0.70641  0.26034  0.13980  1.0000
  H   H982      1.0  0.77934  0.24261  0.17582  1.0000
  H   H983      1.0  0.84448  0.37201  0.26146  1.0000
  H   H984      1.0  0.92951  0.27520  0.18437  1.0000
  H   H985      1.0  0.74392  0.43329  0.16568  1.0000
  C   C626      1.0  0.79778  0.32623  0.04934  1.0000
  C   C627      1.0  0.62208  0.36579  0.01158  1.0000
  H   H986      1.0  0.69413  0.29806  0.20856  1.0000
  H   H987      1.0  0.64055  0.25971  0.00431  1.0000
  H   H988      1.0  0.84756  0.37547  0.28230  1.0000
  H   H989      1.0  0.61720  0.24326  0.05861  1.0000
  N   N60       1.0  0.85697  0.34837  0.27776  1.0000
  C   C628      1.0  0.66050  0.40402  0.98163  1.0000
  C   C629      1.0  0.77249  0.31070  0.05749  1.0000
  H   H990      1.0  0.91821  0.25471  0.17058  1.0000
  H   H991      1.0  0.72127  0.43421  0.17808  1.0000
  S   S259      1.0  0.64161  0.27318  0.13710  1.0000
  Fe  Fe129     1.0  0.76384  0.42784  0.29514  1.0000
  S   S260      1.0  0.66862  0.24800  0.09871  1.0000
  C   C630      1.0  0.67751  0.31118  0.24850  1.0000
  H   H992      1.0  0.62493  0.36296  0.04579  1.0000
  H   H993      1.0  0.79155  0.33009  0.01627  1.0000
  S   S261      1.0  0.62691  0.26580  0.09234  1.0000
  H   H994      1.0  0.83864  0.33321  0.27372  1.0000
  H   H995      1.0  0.73953  0.41236  0.13836  1.0000
  H   H996      1.0  0.71499  0.39175  0.16812  1.0000
  C   C631      1.0  0.67202  0.28692  0.13973  1.0000
  C   C632      1.0  0.65214  0.36029  0.01797  1.0000
  N   N61       1.0  0.78768  0.31549  0.04320  1.0000
  H   H997      1.0  0.80749  0.48531  0.28069  1.0000
  C   C633      1.0  0.79993  0.29890  0.03862  1.0000
  C   C634      1.0  0.62787  0.35017  0.04060  1.0000
  H   H998      1.0  0.57700  0.34071  0.00166  1.0000
  H   H999      1.0  0.76495  0.30204  0.05354  1.0000
  S   S262      1.0  0.89534  0.30217  0.28657  1.0000
  H   H1000     1.0  0.79265  0.29010  0.03457  1.0000
  H   H1001     1.0  0.80610  0.29082  0.05009  1.0000
  H   H1002     1.0  0.81113  0.30196  0.02738  1.0000
  H   H1003     1.0  0.67654  0.32738  0.09963  1.0000
  C   C635      1.0  0.85554  0.34029  0.29684  1.0000
  H   H1004     1.0  0.49900  0.26392  0.98561  1.0000
  N   N62       1.0  0.70027  0.33502  0.10350  1.0000
  C   C636      1.0  0.71940  0.32684  0.10397  1.0000
  C   C637      1.0  0.69925  0.35119  0.08937  1.0000
  C   C638      1.0  0.69136  0.34030  0.12078  1.0000
  H   H1005     1.0  0.72657  0.32276  0.09111  1.0000
  H   H1006     1.0  0.72064  0.31456  0.11447  1.0000
  H   H1007     1.0  0.72675  0.33632  0.10680  1.0000
  H   H1008     1.0  0.70580  0.36148  0.09188  1.0000
  H   H1009     1.0  0.68500  0.35752  0.08841  1.0000
  H   H1010     1.0  0.70610  0.34785  0.07619  1.0000
  H   H1011     1.0  0.69244  0.32867  0.13194  1.0000
  H   H1012     1.0  0.67674  0.34589  0.12109  1.0000
  H   H1013     1.0  0.69760  0.35074  0.12357  1.0000
  H   H1014     1.0  0.87944  0.36066  0.27732  1.0000
  H   H1015     1.0  0.69025  0.28409  0.23007  1.0000
  H   H1016     1.0  0.62213  0.27459  0.01516  1.0000
  H   H1017     1.0  0.85336  0.34167  0.25383  1.0000
  H   H1018     1.0  0.96812  0.26888  0.29077  1.0000
  C   C639      1.0  0.68589  0.41442  0.98687  1.0000
  C   C640      1.0  0.78240  0.48471  0.26298  1.0000
  H   H1019     1.0  0.90703  0.24601  0.23214  1.0000
  H   H1020     1.0  0.97437  0.25788  0.15865  1.0000
  H   H1021     1.0  0.62703  0.32974  0.01737  1.0000
  C   C641      1.0  0.62057  0.25467  0.04788  1.0000
  H   H1022     1.0  0.51637  0.26127  0.99808  1.0000
  N   N63       1.0  0.62907  0.24843  0.03098  1.0000
  C   C642      1.0  0.78511  0.25118  0.16340  1.0000
  H   H1023     1.0  0.64512  0.33715  0.00069  1.0000
  H   H1024     1.0  0.96067  0.26749  0.14190  1.0000
  H   H1025     1.0  0.98251  0.28536  0.28466  1.0000
  H   H1026     1.0  0.86059  0.34833  0.30404  1.0000
  H   H1027     1.0  0.65830  0.36239  0.00360  1.0000
  C   C643      1.0  0.67483  0.40150  0.99067  1.0000
  C   C644      1.0  0.98027  0.25008  0.23307  1.0000
  C   C645      1.0  0.97615  0.27600  0.29606  1.0000
  H   H1028     1.0  0.60782  0.26456  0.04674  1.0000
  C   C646      1.0  0.95044  0.29938  0.30253  1.0000
  C   C647      1.0  0.77627  0.47227  0.29431  1.0000
  S   S263      1.0  0.91068  0.24924  0.29218  1.0000
  H   H1029     1.0  0.80254  0.25659  0.12923  1.0000
  H   H1030     1.0  0.62971  0.26118  0.05241  1.0000
  H   H1031     1.0  0.60361  0.25040  0.02326  1.0000
  Fe  Fe130     1.0  0.78127  0.24736  0.05572  1.0000
  H   H1032     1.0  0.68063  0.24793  0.13570  1.0000
  H   H1033     1.0  0.90461  0.24914  0.20086  1.0000
  C   C648      1.0  0.84894  0.39695  0.30986  1.0000
  S   S264      1.0  0.73739  0.44343  0.30684  1.0000
  H   H1034     1.0  0.89355  0.33244  0.30251  1.0000
  C   C649      1.0  0.71157  0.24383  0.11219  1.0000
  H   H1035     1.0  0.79461  0.47400  0.26082  1.0000
  C   C650      1.0  0.71436  0.24640  0.14137  1.0000
  C   C651      1.0  0.90027  0.30347  0.30690  1.0000
  H   H1036     1.0  0.78471  0.26457  0.16659  1.0000
  H   H1037     1.0  0.82484  0.24928  0.13400  1.0000
  N   N64       1.0  0.77904  0.48875  0.28108  1.0000
  H   H1038     1.0  0.81578  0.25346  0.17275  1.0000
  Fe  Fe131     1.0  0.94051  0.24498  0.28197  1.0000
  H   H1039     1.0  0.52731  0.29819  0.98180  1.0000
  N   N65       1.0  0.96471  0.28565  0.31007  1.0000
  C   C652      1.0  0.83188  0.39349  0.31040  1.0000
  H   H1040     1.0  0.98239  0.30450  0.30644  1.0000
  C   C653      1.0  0.82146  0.46170  0.30956  1.0000
  H   H1041     1.0  0.77398  0.47464  0.30816  1.0000
  C   C654      1.0  0.56100  0.33804  0.98351  1.0000
  Fe  Fe132     1.0  0.90910  0.24259  0.26631  1.0000
  H   H1042     1.0  0.96614  0.24349  0.14871  1.0000
  H   H1043     1.0  0.96055  0.24440  0.18878  1.0000
  H   H1044     1.0  0.93377  0.24109  0.15621  1.0000
  C   C655      1.0  0.94946  0.24259  0.18288  1.0000
  N   N66       1.0  0.80370  0.24291  0.15613  1.0000
  H   H1045     1.0  0.93731  0.24238  0.19359  1.0000
  S   S265      1.0  0.75392  0.24290  0.07107  1.0000
  C   C656      1.0  0.89826  0.32035  0.31139  1.0000
  H   H1046     1.0  0.94184  0.30721  0.31266  1.0000
  H   H1047     1.0  0.79607  0.39624  0.34497  1.0000
  Fe  Fe133     1.0  0.74759  0.43273  0.40292  1.0000
  S   S266      1.0  0.75369  0.40885  0.42418  1.0000
  S   S267      1.0  0.72355  0.43483  0.39059  1.0000
  Fe  Fe134     1.0  0.77769  0.44928  0.40695  1.0000
  S   S268      1.0  0.78679  0.42690  0.42831  1.0000
  H   H1048     1.0  0.70844  0.45517  0.41980  1.0000
  Fe  Fe135     1.0  0.78257  0.40913  0.41135  1.0000
  S   S269      1.0  0.79999  0.38307  0.40575  1.0000
  Fe  Fe136     1.0  0.75726  0.42869  0.43924  1.0000
  S   S270      1.0  0.74737  0.42451  0.46877  1.0000
  S   S271      1.0  0.77633  0.43134  0.38881  1.0000
  S   S272      1.0  0.74833  0.45275  0.41915  1.0000
  C   C657      1.0  0.67629  0.44672  0.45656  1.0000
  C   C658      1.0  0.83846  0.36524  0.33040  1.0000
  N   N67       1.0  0.69460  0.44910  0.44687  1.0000
  C   C659      1.0  0.69489  0.45299  0.42750  1.0000
  C   C660      1.0  0.76058  0.39207  0.37930  1.0000
  H   H1049     1.0  0.89744  0.41233  0.38406  1.0000
  C   C661      1.0  0.95635  0.27265  0.32466  1.0000
  C   C662      1.0  0.90313  0.32176  0.32705  1.0000
  H   H1050     1.0  0.90202  0.43457  0.38097  1.0000
  C   C663      1.0  0.78638  0.39954  0.35714  1.0000
  Fe  Fe137     1.0  0.91566  0.47715  0.34461  1.0000
  C   C664      1.0  0.84807  0.40625  0.35610  1.0000
  H   H1051     1.0  0.77160  0.38614  0.33635  1.0000
  H   H1052     1.0  0.72156  0.43374  0.44436  1.0000
  C   C665      1.0  0.73709  0.45776  0.62144  1.0000
  H   H1053     1.0  0.85848  0.42751  0.32528  1.0000
  H   H1054     1.0  0.98109  0.40603  0.34530  1.0000
  H   H1055     1.0  0.83946  0.40254  0.36928  1.0000
  C   C666      1.0  0.93596  0.42489  0.38638  1.0000
  H   H1056     1.0  0.96671  0.26166  0.33016  1.0000
  S   S273      1.0  0.89239  0.46265  0.35018  1.0000
  H   H1057     1.0  0.90233  0.40556  0.41466  1.0000
  H   H1058     1.0  0.80321  0.45541  0.58933  1.0000
  S   S274      1.0  0.92532  0.35671  0.33237  1.0000
  H   H1059     1.0  0.98673  0.28463  0.32299  1.0000
  H   H1060     1.0  0.77306  0.35902  0.37143  1.0000
  S   S275      1.0  0.72931  0.48128  0.54067  1.0000
  H   H1061     1.0  0.92019  0.38579  0.39384  1.0000
  Fe  Fe138     1.0  0.91550  0.33774  0.35702  1.0000
  C   C667      1.0  0.84507  0.47453  0.31632  1.0000
  C   C668      1.0  0.93037  0.39476  0.38989  1.0000
  H   H1062     1.0  0.71324  0.46661  0.44466  1.0000
  H   H1063     1.0  0.97549  0.43941  0.34053  1.0000
  H   H1064     1.0  0.91454  0.42000  0.36598  1.0000
  H   H1065     1.0  0.83460  0.35278  0.33805  1.0000
  H   H1066     1.0  0.86491  0.35899  0.33723  1.0000
  C   C669      1.0  0.93590  0.43372  0.33261  1.0000
  S   S276      1.0  0.95859  0.38120  0.34553  1.0000
  C   C670      1.0  0.86091  0.38454  0.31947  1.0000
  C   C671      1.0  0.82300  0.38221  0.40481  1.0000
  C   C672      1.0  0.82902  0.39627  0.40884  1.0000
  C   C673      1.0  0.84742  0.39496  0.40879  1.0000
  C   C674      1.0  0.85991  0.38003  0.40378  1.0000
  C   C675      1.0  0.85390  0.36612  0.39952  1.0000
  C   C676      1.0  0.83545  0.36713  0.40021  1.0000
  H   H1067     1.0  0.81960  0.40816  0.41196  1.0000
  H   H1068     1.0  0.85205  0.40577  0.41207  1.0000
  H   H1069     1.0  0.86345  0.35437  0.39606  1.0000
  H   H1070     1.0  0.83088  0.35621  0.39707  1.0000
  C   C677      1.0  0.81435  0.46614  0.39766  1.0000
  H   H1071     1.0  0.88291  0.48869  0.42063  1.0000
  C   C678      1.0  0.82737  0.47011  0.38262  1.0000
  C   C679      1.0  0.85104  0.45755  0.39992  1.0000
  C   C680      1.0  0.83806  0.45308  0.41497  1.0000
  C   C681      1.0  0.81966  0.45725  0.41380  1.0000
  H   H1072     1.0  0.92345  0.44142  0.32874  1.0000
  H   H1073     1.0  0.84215  0.44695  0.42758  1.0000
  H   H1074     1.0  0.80956  0.45433  0.42551  1.0000
  C   C682      1.0  0.73861  0.44491  0.47645  1.0000
  C   C683      1.0  0.72921  0.44481  0.49395  1.0000
  C   C684      1.0  0.80754  0.48793  0.59206  1.0000
  S   S277      1.0  0.91115  0.48293  0.37217  1.0000
  C   C685      1.0  0.84565  0.46538  0.38366  1.0000
  C   C686      1.0  0.74012  0.46132  0.46492  1.0000
  H   H1075     1.0  0.72814  0.43216  0.50299  1.0000
  H   H1076     1.0  0.67568  0.44376  0.47122  1.0000
  C   C687      1.0  0.70762  0.43242  0.45142  1.0000
  H   H1077     1.0  0.74797  0.46159  0.45168  1.0000
  S   S278      1.0  0.79157  0.47260  0.39599  1.0000
  C   C688      1.0  0.74765  0.44231  0.33845  1.0000
  C   C689      1.0  0.74444  0.44086  0.35700  1.0000
  C   C690      1.0  0.72759  0.43808  0.36721  1.0000
  C   C691      1.0  0.71377  0.43740  0.35871  1.0000
  C   C692      1.0  0.71683  0.43926  0.34016  1.0000
  H   H1078     1.0  0.85146  0.48459  0.42519  1.0000
  H   H1079     1.0  0.75494  0.44212  0.36331  1.0000
  H   H1080     1.0  0.70067  0.43537  0.36647  1.0000
  H   H1081     1.0  0.80374  0.45534  0.61214  1.0000
  Fe  Fe139     1.0  0.93285  0.37040  0.35107  1.0000
  H   H1082     1.0  0.93004  0.43920  0.38731  1.0000
  H   H1083     1.0  0.76063  0.44458  0.33066  1.0000
  H   H1084     1.0  0.79443  0.39839  0.36758  1.0000
  C   C693      1.0  0.90837  0.42039  0.38015  1.0000
  Fe  Fe140     1.0  0.88593  0.47188  0.37624  1.0000
  C   C694      1.0  0.78263  0.36860  0.36698  1.0000
  H   H1085     1.0  0.85550  0.46806  0.37176  1.0000
  H   H1086     1.0  0.82333  0.47685  0.37009  1.0000
  H   H1087     1.0  0.73221  0.46754  0.57814  1.0000
  H   H1088     1.0  0.86047  0.39565  0.35509  1.0000
  S   S279      1.0  0.94436  0.46598  0.33358  1.0000
  H   H1089     1.0  0.94289  0.42468  0.37235  1.0000
  H   H1090     1.0  0.94091  0.38914  0.39823  1.0000
  H   H1091     1.0  0.76646  0.48167  0.58872  1.0000
  H   H1092     1.0  0.75331  0.40623  0.37696  1.0000
  H   H1093     1.0  0.76794  0.39051  0.39033  1.0000
  H   H1094     1.0  0.79065  0.36672  0.37761  1.0000
  H   H1095     1.0  0.79223  0.36458  0.35506  1.0000
  C   C695      1.0  0.69964  0.46422  0.45203  1.0000
  N   N68       1.0  0.92196  0.41351  0.39172  1.0000
  H   H1096     1.0  0.84071  0.40568  0.34567  1.0000
  S   S280      1.0  0.88726  0.35347  0.36210  1.0000
  C   C696      1.0  0.86178  0.42455  0.36832  1.0000
  S   S281      1.0  0.87374  0.45522  0.40147  1.0000
  S   S282      1.0  0.88302  0.37921  0.40212  1.0000
  C   C697      1.0  0.83587  0.43796  0.35452  1.0000
  H   H1097     1.0  0.94725  0.26616  0.32000  1.0000
  C   C698      1.0  0.82677  0.37743  0.32018  1.0000
  H   H1098     1.0  0.83892  0.45171  0.35260  1.0000
  Fe  Fe141     1.0  0.89830  0.36736  0.37822  1.0000
  Fe  Fe142     1.0  0.89777  0.37320  0.33875  1.0000
  H   H1099     1.0  0.94651  0.42015  0.39478  1.0000
  H   H1100     1.0  0.93698  0.39389  0.37591  1.0000
  H   H1101     1.0  0.70798  0.42914  0.46592  1.0000
  H   H1102     1.0  0.94824  0.27935  0.33582  1.0000
  H   H1103     1.0  0.75516  0.40343  0.34570  1.0000
  C   C699      1.0  0.70592  0.47046  0.61878  1.0000
  S   S283      1.0  0.75407  0.45004  0.63428  1.0000
  C   C700      1.0  0.94882  0.44257  0.33497  1.0000
  N   N69       1.0  0.77306  0.38740  0.36305  1.0000
  H   H1104     1.0  0.90790  0.27484  0.31524  1.0000
  H   H1105     1.0  0.87774  0.41866  0.33578  1.0000
  H   H1106     1.0  0.68992  0.47699  0.44918  1.0000
  H   H1107     1.0  0.85241  0.42371  0.38137  1.0000
  S   S284      1.0  0.92579  0.34983  0.37544  1.0000
  C   C701      1.0  0.72851  0.46640  0.59240  1.0000
  H   H1108     1.0  0.78315  0.45435  0.60598  1.0000
  H   H1109     1.0  0.75523  0.45358  0.59690  1.0000
  C   C702      1.0  0.71922  0.46368  0.62934  1.0000
  S   S285      1.0  0.90609  0.38865  0.35526  1.0000
  S   S286      1.0  0.88233  0.38925  0.31782  1.0000
  C   C703      1.0  0.76264  0.38941  0.34887  1.0000
  S   S287      1.0  0.91929  0.30835  0.35608  1.0000
  C   C704      1.0  0.96536  0.43258  0.33896  1.0000
  N   N70       1.0  0.79080  0.48038  0.59824  1.0000
  C   C705      1.0  0.95536  0.40481  0.33988  1.0000
  Fe  Fe143     1.0  0.87632  0.48942  0.34008  1.0000
  C   C706      1.0  0.96854  0.41372  0.34161  1.0000
  C   C707      1.0  0.73137  0.47755  0.47049  1.0000
  H   H1110     1.0  0.92971  0.40821  0.33207  1.0000
  H   H1111     1.0  0.69170  0.44164  0.42297  1.0000
  H   H1112     1.0  0.81781  0.47612  0.33110  1.0000
  C   C708      1.0  0.93934  0.41488  0.33473  1.0000
  H   H1113     1.0  0.82652  0.43562  0.36752  1.0000
  C   C709      1.0  0.72095  0.46110  0.49973  1.0000
  H   H1114     1.0  0.90174  0.33487  0.33019  1.0000
  H   H1115     1.0  0.75257  0.38033  0.35277  1.0000
  C   C710      1.0  0.85560  0.36880  0.33002  1.0000
  C   C711      1.0  0.74158  0.45863  0.60303  1.0000
  N   N71       1.0  0.80130  0.38003  0.46512  1.0000
  C   C712      1.0  0.78993  0.39403  0.47496  1.0000
  C   C713      1.0  0.80604  0.36328  0.47782  1.0000
  C   C714      1.0  0.81802  0.38631  0.45493  1.0000
  C   C715      1.0  0.79124  0.37647  0.45277  1.0000
  H   H1116     1.0  0.79695  0.39691  0.48461  1.0000
  H   H1117     1.0  0.77696  0.38999  0.48247  1.0000
  H   H1118     1.0  0.78630  0.40695  0.46582  1.0000
  H   H1119     1.0  0.81461  0.35246  0.47078  1.0000
  H   H1120     1.0  0.81368  0.36544  0.48735  1.0000
  H   H1121     1.0  0.79373  0.35816  0.48573  1.0000
  H   H1122     1.0  0.82668  0.37633  0.44687  1.0000
  H   H1123     1.0  0.82622  0.38871  0.46382  1.0000
  H   H1124     1.0  0.81494  0.39917  0.44553  1.0000
  H   H1125     1.0  0.77856  0.37165  0.45996  1.0000
  H   H1126     1.0  0.79948  0.36617  0.44490  1.0000
  H   H1127     1.0  0.78736  0.38881  0.44307  1.0000
  H   H1128     1.0  0.87324  0.41306  0.36953  1.0000
  C   C716      1.0  0.91301  0.41403  0.41037  1.0000
  H   H1129     1.0  0.70011  0.46153  0.46649  1.0000
  H   H1130     1.0  0.90631  0.42798  0.41213  1.0000
  C   C717      1.0  0.91136  0.28936  0.33424  1.0000
  H   H1131     1.0  0.77967  0.41384  0.35395  1.0000
  N   N72       1.0  0.85259  0.42425  0.35386  1.0000
  H   H1132     1.0  0.67209  0.43538  0.45298  1.0000
  S   S288      1.0  0.69450  0.48321  0.58703  1.0000
  C   C718      1.0  0.86466  0.42830  0.33652  1.0000
  H   H1133     1.0  0.91631  0.27735  0.34313  1.0000
  H   H1134     1.0  0.86715  0.43717  0.36601  1.0000
  H   H1135     1.0  0.78803  0.48051  0.62605  1.0000
  C   C719      1.0  0.91019  0.30632  0.33825  1.0000
  H   H1136     1.0  0.82852  0.43795  0.34388  1.0000
  H   H1137     1.0  0.75019  0.38335  0.38398  1.0000
  H   H1138     1.0  0.81538  0.48374  0.57946  1.0000
  H   H1139     1.0  0.92282  0.40895  0.41955  1.0000
  C   C720      1.0  0.90660  0.28793  0.31846  1.0000
  H   H1140     1.0  0.86781  0.44207  0.33408  1.0000
  H   H1141     1.0  0.69201  0.47455  0.62489  1.0000
  H   H1142     1.0  0.71353  0.46098  0.51320  1.0000
  C   C721      1.0  0.78071  0.48650  0.61483  1.0000
  H   H1143     1.0  0.76726  0.48241  0.61895  1.0000
  C   C722      1.0  0.71066  0.47232  0.60027  1.0000
  H   H1144     1.0  0.68501  0.46531  0.42355  1.0000
  H   H1145     1.0  0.70607  0.43874  0.33366  1.0000
  C   C723      1.0  0.79547  0.46050  0.60154  1.0000
  C   C724      1.0  0.73384  0.44142  0.33002  1.0000
  C   C725      1.0  0.82724  0.47124  0.32000  1.0000
  H   H1146     1.0  0.66609  0.45906  0.45347  1.0000
  S   S289      1.0  0.80631  0.37228  0.31859  1.0000
  C   C726      1.0  0.72173  0.47746  0.48787  1.0000
  H   H1147     1.0  0.96752  0.30199  0.32768  1.0000
  S   S290      1.0  0.85112  0.48775  0.32944  1.0000
  H   H1148     1.0  0.70433  0.42068  0.44771  1.0000
  H   H1149     1.0  0.78645  0.48144  0.57198  1.0000
  H   H1150     1.0  0.71561  0.46274  0.64361  1.0000
  C   C727      1.0  0.97587  0.29457  0.31709  1.0000
  H   H1151     1.0  0.81652  0.48350  0.60207  1.0000
  H   H1152     1.0  0.82088  0.48887  0.63005  1.0000
  C   C728      1.0  0.77951  0.48654  0.58440  1.0000
  H   H1153     1.0  0.73225  0.49020  0.46137  1.0000
  H   H1154     1.0  0.80778  0.45929  0.31285  1.0000
  C   C729      1.0  0.51073  0.28968  0.95912  1.0000
  C   C730      1.0  0.72231  0.39028  0.79052  1.0000
  H   H1155     1.0  0.51034  0.27214  0.86830  1.0000
  C   C731      1.0  0.74753  0.36994  0.77724  1.0000
  S   S291      1.0  0.76669  0.46101  0.67579  1.0000
  H   H1156     1.0  0.71942  0.35469  0.93434  1.0000
  Fe  Fe144     1.0  0.74371  0.45611  0.69859  1.0000
  S   S292      1.0  0.74661  0.43780  0.72479  1.0000
  H   H1157     1.0  0.66465  0.44520  0.95632  1.0000
  H   H1158     1.0  0.69282  0.39390  0.95444  1.0000
  S   S293      1.0  0.72408  0.45485  0.68189  1.0000
  H   H1159     1.0  0.68999  0.46918  0.70635  1.0000
  H   H1160     1.0  0.60427  0.38889  0.83930  1.0000
  S   S294      1.0  0.63491  0.35717  0.92993  1.0000
  Fe  Fe145     1.0  0.65910  0.36828  0.93039  1.0000
  S   S295      1.0  0.68709  0.35714  0.91754  1.0000
  C   C732      1.0  0.54787  0.39889  0.91236  1.0000
  Fe  Fe146     1.0  0.66362  0.40506  0.78496  1.0000
  S   S296      1.0  0.67066  0.41822  0.80446  1.0000
  S   S297      1.0  0.67357  0.40948  0.75545  1.0000
  Fe  Fe147     1.0  0.63921  0.38341  0.81336  1.0000
  S   S298      1.0  0.64400  0.39475  0.83537  1.0000
  S   S299      1.0  0.62073  0.36386  0.81689  1.0000
  Fe  Fe148     1.0  0.64115  0.42103  0.81635  1.0000
  N   N73       1.0  0.57588  0.39509  0.84961  1.0000
  Fe  Fe149     1.0  0.67296  0.39072  0.82156  1.0000
  S   S300      1.0  0.69765  0.37847  0.83373  1.0000
  S   S301      1.0  0.63386  0.41011  0.79542  1.0000
  S   S302      1.0  0.66838  0.37725  0.80097  1.0000
  S   S303      1.0  0.62599  0.44570  0.82713  1.0000
  C   C733      1.0  0.59125  0.42559  0.91619  1.0000
  H   H1161     1.0  0.68182  0.33606  0.87386  1.0000
  C   C734      1.0  0.61757  0.35054  0.83816  1.0000
  C   C735      1.0  0.60491  0.33916  0.84257  1.0000
  C   C736      1.0  0.60143  0.32923  0.85984  1.0000
  C   C737      1.0  0.62691  0.35179  0.85100  1.0000
  H   H1162     1.0  0.59770  0.33809  0.83266  1.0000
  S   S304      1.0  0.65174  0.37007  0.95931  1.0000
  H   H1163     1.0  0.63685  0.36032  0.84767  1.0000
  H   H1164     1.0  0.59182  0.32027  0.86308  1.0000
  N   N74       1.0  0.67246  0.47267  0.73128  1.0000
  C   C738      1.0  0.68977  0.36349  0.89431  1.0000
  C   C739      1.0  0.70670  0.35900  0.88376  1.0000
  C   C740      1.0  0.70897  0.36378  0.86519  1.0000
  C   C741      1.0  0.69432  0.37300  0.85706  1.0000
  C   C742      1.0  0.67736  0.37744  0.86760  1.0000
  C   C743      1.0  0.67507  0.37264  0.88620  1.0000
  H   H1165     1.0  0.71809  0.35188  0.88994  1.0000
  H   H1166     1.0  0.72213  0.36032  0.85711  1.0000
  H   H1167     1.0  0.66598  0.38451  0.86149  1.0000
  H   H1168     1.0  0.66184  0.37574  0.89419  1.0000
  C   C744      1.0  0.72714  0.42861  0.73374  1.0000
  C   C745      1.0  0.71894  0.42892  0.75151  1.0000
  C   C746      1.0  0.70252  0.42287  0.75840  1.0000
  C   C747      1.0  0.69441  0.41639  0.74753  1.0000
  C   C748      1.0  0.70285  0.41568  0.72990  1.0000
  C   C749      1.0  0.71918  0.42184  0.72299  1.0000
  H   H1169     1.0  0.72503  0.43436  0.75977  1.0000
  H   H1170     1.0  0.69600  0.42360  0.77195  1.0000
  H   H1171     1.0  0.69665  0.41056  0.72149  1.0000
  H   H1172     1.0  0.72562  0.42136  0.70932  1.0000
  C   C750      1.0  0.66754  0.43294  0.96582  1.0000
  C   C751      1.0  0.65687  0.41976  0.96919  1.0000
  S   S305      1.0  0.53452  0.27542  0.91510  1.0000
  H   H1173     1.0  0.66290  0.44635  0.88407  1.0000
  C   C752      1.0  0.57162  0.45147  0.90252  1.0000
  S   S306      1.0  0.53089  0.36372  0.87393  1.0000
  H   H1174     1.0  0.73407  0.34714  0.95041  1.0000
  H   H1175     1.0  0.56953  0.45135  0.87582  1.0000
  C   C753      1.0  0.56554  0.45679  0.82670  1.0000
  H   H1176     1.0  0.56980  0.37095  0.92774  1.0000
  H   H1177     1.0  0.50047  0.28338  0.95604  1.0000
  H   H1178     1.0  0.71184  0.39456  0.93652  1.0000
  S   S307      1.0  0.73371  0.48529  0.69966  1.0000
  H   H1179     1.0  0.65904  0.34412  0.88389  1.0000
  S   S308      1.0  0.50531  0.47667  0.90105  1.0000
  C   C754      1.0  0.54425  0.40965  0.93968  1.0000
  C   C755      1.0  0.58634  0.42717  0.88655  1.0000
  H   H1180     1.0  0.62179  0.42979  0.86661  1.0000
  C   C756      1.0  0.63573  0.42622  0.86951  1.0000
  C   C757      1.0  0.59630  0.44471  0.81376  1.0000
  N   N75       1.0  0.66884  0.31611  0.89305  1.0000
  C   C758      1.0  0.65054  0.31173  0.89934  1.0000
  C   C759      1.0  0.68123  0.30082  0.88591  1.0000
  C   C760      1.0  0.67533  0.31956  0.90805  1.0000
  C   C761      1.0  0.66824  0.33232  0.87891  1.0000
  H   H1181     1.0  0.64071  0.32302  0.90469  1.0000
  H   H1182     1.0  0.65035  0.29965  0.91011  1.0000
  H   H1183     1.0  0.64522  0.30894  0.88839  1.0000
  H   H1184     1.0  0.69516  0.30370  0.88104  1.0000
  H   H1185     1.0  0.68198  0.28835  0.89623  1.0000
  H   H1186     1.0  0.67665  0.29789  0.87457  1.0000
  H   H1187     1.0  0.67595  0.30765  0.91902  1.0000
  H   H1188     1.0  0.66627  0.33104  0.91370  1.0000
  H   H1189     1.0  0.68906  0.32305  0.90380  1.0000
  H   H1190     1.0  0.66329  0.33028  0.86739  1.0000
  S   S309      1.0  0.64692  0.39684  0.92106  1.0000
  H   H1191     1.0  0.50353  0.30203  0.96444  1.0000
  Fe  Fe150     1.0  0.52785  0.46645  0.85428  1.0000
  H   H1192     1.0  0.72243  0.36413  0.76107  1.0000
  H   H1193     1.0  0.50241  0.25327  0.85030  1.0000
  H   H1194     1.0  0.62775  0.43243  0.90278  1.0000
  C   C762      1.0  0.51803  0.38213  0.88315  1.0000
  H   H1195     1.0  0.69205  0.48343  0.73929  1.0000
  S   S310      1.0  0.55588  0.47145  0.90401  1.0000
  H   H1196     1.0  0.77135  0.30400  0.97752  1.0000
  H   H1197     1.0  0.54084  0.26518  0.95136  1.0000
  H   H1198     1.0  0.75207  0.35759  0.77126  1.0000
  H   H1199     1.0  0.70672  0.36109  0.80046  1.0000
  C   C763      1.0  0.50149  0.39550  0.90860  1.0000
  H   H1200     1.0  0.65069  0.46805  0.72110  1.0000
  H   H1201     1.0  0.69002  0.36579  0.97617  1.0000
  S   S311      1.0  0.54080  0.33497  0.96022  1.0000
  C   C764      1.0  0.65896  0.43560  0.87927  1.0000
  H   H1202     1.0  0.57265  0.44359  0.80407  1.0000
  H   H1203     1.0  0.55921  0.41960  0.83909  1.0000
  C   C765      1.0  0.60283  0.45025  0.82648  1.0000
  H   H1204     1.0  0.72755  0.35635  0.80825  1.0000
  Fe  Fe151     1.0  0.62194  0.38612  0.92304  1.0000
  C   C766      1.0  0.61064  0.33062  0.87271  1.0000
  H   H1205     1.0  0.51315  0.36731  0.90996  1.0000
  S   S312      1.0  0.60691  0.39616  0.90042  1.0000
  C   C767      1.0  0.50634  0.41419  0.87939  1.0000
  H   H1206     1.0  0.56846  0.39274  0.82555  1.0000
  H   H1207     1.0  0.55016  0.38701  0.90589  1.0000
  C   C768      1.0  0.59267  0.33877  0.95793  1.0000
  H   H1208     1.0  0.63651  0.41359  0.87963  1.0000
  H   H1209     1.0  0.55851  0.40696  0.90550  1.0000
  H   H1210     1.0  0.59754  0.41870  0.92737  1.0000
  H   H1211     1.0  0.66227  0.44966  0.74798  1.0000
  C   C769      1.0  0.70276  0.38564  0.94540  1.0000
  C   C770      1.0  0.72270  0.37573  0.96670  1.0000
  S   S313      1.0  0.55779  0.31577  0.88615  1.0000
  N   N76       1.0  0.54810  0.39340  0.93161  1.0000
  C   C771      1.0  0.58003  0.44247  0.91687  1.0000
  H   H1212     1.0  0.51356  0.24791  0.93072  1.0000
  Fe  Fe152     1.0  0.71631  0.48470  0.68071  1.0000
  H   H1213     1.0  0.56529  0.37915  0.87433  1.0000
  N   N77       1.0  0.71304  0.36975  0.95551  1.0000
  C   C772      1.0  0.59407  0.41775  0.90117  1.0000
  H   H1214     1.0  0.64554  0.48783  0.73098  1.0000
  C   C773      1.0  0.57767  0.44801  0.81384  1.0000
  C   C774      1.0  0.56185  0.41123  0.85208  1.0000
  C   C775      1.0  0.67973  0.48806  0.73319  1.0000
  H   H1215     1.0  0.60555  0.43811  0.80371  1.0000
  C   C776      1.0  0.57039  0.38464  0.83882  1.0000
  H   H1216     1.0  0.69902  0.45695  0.72552  1.0000
  Fe  Fe153     1.0  0.62620  0.36153  0.95815  1.0000
  H   H1217     1.0  0.59235  0.40814  0.82662  1.0000
  S   S314      1.0  0.61092  0.38953  0.95125  1.0000
  C   C777      1.0  0.59317  0.40070  0.84037  1.0000
  H   H1218     1.0  0.54885  0.40751  0.85970  1.0000
  H   H1219     1.0  0.69336  0.35308  0.95881  1.0000
  H   H1220     1.0  0.59724  0.40957  0.84748  1.0000
  S   S315      1.0  0.54218  0.45977  0.82773  1.0000
  Fe  Fe154     1.0  0.63718  0.39781  0.94987  1.0000
  H   H1221     1.0  0.55748  0.37998  0.84550  1.0000
  S   S316      1.0  0.60633  0.31835  0.89435  1.0000
  N   N78       1.0  0.64035  0.44095  0.87569  1.0000
  H   H1222     1.0  0.66889  0.43275  0.86709  1.0000
  C   C778      1.0  0.62759  0.44464  0.89214  1.0000
  H   H1223     1.0  0.72722  0.40193  0.78110  1.0000
  C   C779      1.0  0.63909  0.45736  0.86182  1.0000
  H   H1224     1.0  0.65975  0.48775  0.70944  1.0000
  H   H1225     1.0  0.50470  0.42727  0.87083  1.0000
  H   H1226     1.0  0.70418  0.38007  0.77046  1.0000
  H   H1227     1.0  0.61348  0.44915  0.88973  1.0000
  C   C780      1.0  0.49913  0.29250  0.91624  1.0000
  H   H1228     1.0  0.63089  0.45539  0.89747  1.0000
  H   H1229     1.0  0.56288  0.46963  0.84894  1.0000
  H   H1230     1.0  0.56584  0.41998  0.85939  1.0000
  H   H1231     1.0  0.72389  0.38752  0.75640  1.0000
  H   H1232     1.0  0.64837  0.45505  0.84912  1.0000
  H   H1233     1.0  0.64246  0.46880  0.86599  1.0000
  H   H1234     1.0  0.62520  0.46167  0.85877  1.0000
  H   H1235     1.0  0.75247  0.38124  0.76713  1.0000
  C   C781      1.0  0.62329  0.34199  0.86830  1.0000
  H   H1236     1.0  0.53464  0.40729  0.90987  1.0000
  H   H1237     1.0  0.62986  0.34363  0.87840  1.0000
  H   H1238     1.0  0.58079  0.37248  0.83649  1.0000
  H   H1239     1.0  0.75436  0.36793  0.78877  1.0000
  H   H1240     1.0  0.58853  0.37139  0.86564  1.0000
  Fe  Fe155     1.0  0.50436  0.45328  0.88943  1.0000
  H   H1241     1.0  0.79617  0.48692  0.65657  1.0000
  C   C782      1.0  0.59071  0.45946  0.83900  1.0000
  Fe  Fe156     1.0  0.75471  0.49027  0.67517  1.0000
  H   H1242     1.0  0.73610  0.36750  0.93435  1.0000
  C   C783      1.0  0.70046  0.35822  0.96693  1.0000
  H   H1243     1.0  0.52173  0.25424  0.96018  1.0000
  C   C784      1.0  0.57809  0.38374  0.86711  1.0000
  H   H1244     1.0  0.60488  0.33889  0.94801  1.0000
  Fe  Fe157     1.0  0.57653  0.31928  0.90256  1.0000
  H   H1245     1.0  0.58237  0.39105  0.87564  1.0000
  H   H1246     1.0  0.58902  0.42152  0.87466  1.0000
  S   S317      1.0  0.52460  0.32694  0.91908  1.0000
  C   C785      1.0  0.51111  0.27628  0.91988  1.0000
  H   H1247     1.0  0.57706  0.33512  0.94004  1.0000
  H   H1248     1.0  0.67925  0.45654  0.75576  1.0000
  C   C786      1.0  0.66743  0.46164  0.74899  1.0000
  H   H1249     1.0  0.69056  0.44028  0.97164  1.0000
  H   H1250     1.0  0.53076  0.41789  0.93791  1.0000
  Fe  Fe158     1.0  0.74637  0.46170  0.65913  1.0000
  C   C787      1.0  0.57685  0.33665  0.95340  1.0000
  S   S318      1.0  0.56067  0.34565  0.90892  1.0000
  H   H1251     1.0  0.55441  0.41846  0.93344  1.0000
  H   H1252     1.0  0.64501  0.42320  0.85705  1.0000
  S   S319      1.0  0.56387  0.30284  0.92755  1.0000
  C   C788      1.0  0.57211  0.46263  0.83915  1.0000
  S   S320      1.0  0.63914  0.42308  0.95771  1.0000
  S   S321      1.0  0.53399  0.44751  0.87912  1.0000
  H   H1253     1.0  0.52041  0.38989  0.93880  1.0000
  H   H1254     1.0  0.57680  0.39109  0.92882  1.0000
  H   H1255     1.0  0.59561  0.46395  0.84879  1.0000
  N   N79       1.0  0.72767  0.37380  0.78270  1.0000
  C   C789      1.0  0.49949  0.41247  0.89763  1.0000
  H   H1256     1.0  0.54445  0.40606  0.95418  1.0000
  C   C790      1.0  0.57525  0.44402  0.88721  1.0000
  H   H1257     1.0  0.51965  0.29398  0.94632  1.0000
  C   C791      1.0  0.59280  0.34019  0.97534  1.0000
  C   C792      1.0  0.72626  0.35932  0.94308  1.0000
  C   C793      1.0  0.56606  0.38288  0.93433  1.0000
  Fe  Fe159     1.0  0.53458  0.47260  0.88837  1.0000
  H   H1258     1.0  0.70736  0.39393  0.79424  1.0000
  C   C794      1.0  0.53420  0.38223  0.94008  1.0000
  Fe  Fe160     1.0  0.54082  0.34098  0.89457  1.0000
  H   H1259     1.0  0.53638  0.37012  0.93396  1.0000
  H   H1260     1.0  0.57751  0.44834  0.92866  1.0000
  C   C795      1.0  0.72165  0.35854  0.79607  1.0000
  H   H1261     1.0  0.70776  0.34633  0.97511  1.0000
  H   H1262     1.0  0.54379  0.29083  0.96369  1.0000
  C   C796      1.0  0.68638  0.46154  0.72002  1.0000
  C   C797      1.0  0.56091  0.33657  0.96610  1.0000
  S   S322      1.0  0.49793  0.46940  0.86345  1.0000
  Fe  Fe161     1.0  0.54329  0.30191  0.91187  1.0000
  H   H1263     1.0  0.52018  0.40028  0.85792  1.0000
  C   C798      1.0  0.71918  0.37647  0.76699  1.0000
  C   C799      1.0  0.68216  0.43017  0.97449  1.0000
  H   H1264     1.0  0.56649  0.37786  0.94871  1.0000
  C   C800      1.0  0.51116  0.38035  0.90142  1.0000
  H   H1265     1.0  0.72549  0.34582  0.79074  1.0000
  H   H1266     1.0  0.66036  0.42320  0.88961  1.0000
  Fe  Fe162     1.0  0.54640  0.32897  0.93269  1.0000
  H   H1267     1.0  0.53439  0.37729  0.95451  1.0000
  H   H1268     1.0  0.73206  0.38476  0.95861  1.0000
  C   C801      1.0  0.51518  0.39896  0.87210  1.0000
  H   H1269     1.0  0.69510  0.38163  0.93698  1.0000
  H   H1270     1.0  0.72782  0.38848  0.80287  1.0000
  C   C802      1.0  0.53427  0.28610  0.97588  1.0000
  H   H1271     1.0  0.50424  0.30473  0.91006  1.0000
  H   H1272     1.0  0.71313  0.38332  0.97647  1.0000
  H   H1273     1.0  0.65672  0.46947  0.75781  1.0000
  H   H1274     1.0  0.68166  0.44941  0.71879  1.0000
  C   C803      1.0  0.65637  0.47938  0.72285  1.0000
  C   C804      1.0  0.53115  0.26123  0.96374  1.0000
  C   C805      1.0  0.50436  0.26044  0.92757  1.0000
  H   H1275     1.0  0.73082  0.36412  0.97435  1.0000
  H   H1276     1.0  0.53890  0.25112  0.97307  1.0000
  N   N80       1.0  0.52126  0.27700  0.97176  1.0000
  C   C806      1.0  0.79478  0.49518  0.28349  1.0000
  H   H1277     1.0  0.76415  0.51539  0.27366  1.0000
  H   H1278     1.0  0.75990  0.50618  0.29706  1.0000
  H   H1279     1.0  0.79674  0.50808  0.27432  1.0000
  C   C807      1.0  0.76269  0.50279  0.28354  1.0000
  H   H1280     1.0  0.79335  0.49731  0.29734  1.0000
  H   H1281     1.0  0.78473  0.49677  0.25262  1.0000
  H   H1282     1.0  0.75055  0.49820  0.28201  1.0000
  H   H1283     1.0  0.95004  0.63952  0.54511  1.0000
  C   C808      1.0  0.67585  0.55545  0.56490  1.0000
  H   H1284     1.0  0.84361  0.70559  0.60825  1.0000
  Fe  Fe163     1.0  0.89519  0.50926  0.36108  1.0000
  H   H1285     1.0  0.95315  0.73279  0.53895  1.0000
  S   S323      1.0  0.89537  0.53440  0.37239  1.0000
  H   H1286     1.0  0.90686  0.70588  0.42827  1.0000
  S   S324      1.0  0.81875  0.59592  0.56049  1.0000
  C   C809      1.0  0.87789  0.62272  0.55079  1.0000
  C   C810      1.0  0.75308  0.57846  0.64578  1.0000
  C   C811      1.0  0.80069  0.53294  0.62557  1.0000
  S   S325      1.0  0.94335  0.71054  0.41274  1.0000
  C   C812      1.0  0.97585  0.68875  0.56948  1.0000
  Fe  Fe164     1.0  0.96154  0.71744  0.42752  1.0000
  H   H1287     1.0  0.66308  0.54171  0.61957  1.0000
  H   H1288     1.0  0.96093  0.61642  0.55065  1.0000
  S   S326      1.0  0.97055  0.71198  0.36447  1.0000
  H   H1289     1.0  0.78217  0.66146  0.54680  1.0000
  Fe  Fe165     1.0  0.95019  0.57921  0.42516  1.0000
  S   S327      1.0  0.93115  0.60443  0.41672  1.0000
  S   S328      1.0  0.94738  0.55313  0.41704  1.0000
  Fe  Fe166     1.0  0.97157  0.60106  0.44092  1.0000
  S   S329      1.0  0.95378  0.62713  0.43207  1.0000
  Fe  Fe167     1.0  0.93142  0.61128  0.44285  1.0000
  S   S330      1.0  0.90683  0.62158  0.46170  1.0000
  Fe  Fe168     1.0  0.95593  0.61690  0.40705  1.0000
  S   S331      1.0  0.96131  0.63083  0.37856  1.0000
  S   S332      1.0  0.94887  0.58526  0.45252  1.0000
  S   S333      1.0  0.97531  0.59164  0.41472  1.0000
  Fe  Fe169     1.0  0.88347  0.71285  0.52104  1.0000
  S   S334      1.0  0.91329  0.70715  0.52071  1.0000
  N   N81       1.0  0.95726  0.73590  0.51048  1.0000
  Fe  Fe170     1.0  0.87626  0.68232  0.55186  1.0000
  S   S335      1.0  0.90535  0.67388  0.55426  1.0000
  S   S336      1.0  0.85579  0.66784  0.57126  1.0000
  Fe  Fe171     1.0  0.90520  0.70332  0.55033  1.0000
  Fe  Fe172     1.0  0.91057  0.67822  0.52464  1.0000
  S   S337      1.0  0.93281  0.65826  0.51240  1.0000
  S   S338      1.0  0.87557  0.71152  0.55047  1.0000
  S   S339      1.0  0.88129  0.68429  0.52231  1.0000
  C   C813      1.0  0.95837  0.56438  0.36065  1.0000
  C   C814      1.0  0.88532  0.67215  0.45237  1.0000
  H   H1290     1.0  0.98821  0.61693  0.51453  1.0000
  H   H1291     1.0  0.70374  0.53222  0.64031  1.0000
  Fe  Fe173     1.0  0.69339  0.62133  0.60179  1.0000
  S   S340      1.0  0.66354  0.62890  0.60176  1.0000
  S   S341      1.0  0.71561  0.62814  0.57873  1.0000
  H   H1292     1.0  0.88915  0.61857  0.54066  1.0000
  C   C815      1.0  0.66380  0.56004  0.58017  1.0000
  C   C816      1.0  0.87705  0.73814  0.48099  1.0000
  H   H1293     1.0  0.86011  0.50114  0.44489  1.0000
  H   H1294     1.0  0.66415  0.54789  0.50523  1.0000
  H   H1295     1.0  0.68393  0.53054  0.50351  1.0000
  Fe  Fe174     1.0  0.68849  0.59780  0.63831  1.0000
  H   H1296     1.0  0.81748  0.63971  0.55794  1.0000
  H   H1297     1.0  0.68196  0.54743  0.51652  1.0000
  H   H1298     1.0  0.72526  0.63060  0.61144  1.0000
  H   H1299     1.0  0.65618  0.55030  0.58886  1.0000
  H   H1300     1.0  0.80738  0.63067  0.58013  1.0000
  H   H1301     1.0  0.77074  0.56374  0.51835  1.0000
  S   S342      1.0  0.90042  0.50392  0.33283  1.0000
  H   H1302     1.0  0.88866  0.51075  0.41206  1.0000
  H   H1303     1.0  0.80164  0.50864  0.55328  1.0000
  H   H1304     1.0  0.92941  0.56652  0.50191  1.0000
  H   H1305     1.0  0.79637  0.63208  0.56197  1.0000
  S   S343      1.0  0.69319  0.59189  0.61096  1.0000
  C   C817      1.0  0.70767  0.55208  0.48715  1.0000
  H   H1306     1.0  0.97589  0.68051  0.54508  1.0000
  H   H1307     1.0  0.93106  0.59066  0.36825  1.0000
  C   C818      1.0  0.94323  0.59044  0.37366  1.0000
  C   C819      1.0  0.96635  0.66314  0.35760  1.0000
  H   H1308     1.0  0.97154  0.69857  0.59392  1.0000
  H   H1309     1.0  0.68985  0.56171  0.45993  1.0000
  C   C820      1.0  0.99175  0.61950  0.52661  1.0000
  H   H1310     1.0  0.87483  0.68027  0.46112  1.0000
  N   N82       1.0  0.68788  0.55657  0.48829  1.0000
  H   H1311     1.0  0.71176  0.54036  0.61738  1.0000
  H   H1312     1.0  0.91134  0.58573  0.48059  1.0000
  H   H1313     1.0  0.91415  0.72499  0.45077  1.0000
  C   C821      1.0  0.60428  0.66817  0.61538  1.0000
  C   C822      1.0  0.68337  0.55333  0.47212  1.0000
  H   H1314     1.0  0.97693  0.59407  0.37341  1.0000
  H   H1315     1.0  0.95136  0.59584  0.33812  1.0000
  H   H1316     1.0  0.71157  0.55463  0.49903  1.0000
  C   C823      1.0  0.77738  0.55175  0.52609  1.0000
  Fe  Fe175     1.0  0.82604  0.54713  0.58663  1.0000
  H   H1317     1.0  0.68472  0.57842  0.50206  1.0000
  C   C824      1.0  0.75354  0.61934  0.60912  1.0000
  C   C825      1.0  0.73720  0.62501  0.60293  1.0000
  C   C826      1.0  0.73640  0.62363  0.58571  1.0000
  C   C827      1.0  0.75220  0.61727  0.57441  1.0000
  C   C828      1.0  0.76838  0.61083  0.58086  1.0000
  H   H1318     1.0  0.92092  0.69023  0.45417  1.0000
  H   H1319     1.0  0.96726  0.66192  0.52541  1.0000
  H   H1320     1.0  0.75176  0.61662  0.56092  1.0000
  H   H1321     1.0  0.77633  0.50147  0.58097  1.0000
  C   C829      1.0  0.90903  0.68344  0.45940  1.0000
  C   C830      1.0  0.78063  0.51967  0.53785  1.0000
  C   C831      1.0  0.86014  0.64574  0.56734  1.0000
  C   C832      1.0  0.87473  0.64019  0.55433  1.0000
  H   H1322     1.0  0.88338  0.69531  0.63050  1.0000
  C   C833      1.0  0.59108  0.67417  0.64494  1.0000
  H   H1323     1.0  0.88362  0.64931  0.54694  1.0000
  H   H1324     1.0  0.91373  0.67033  0.46776  1.0000
  C   C834      1.0  0.91396  0.62910  0.47791  1.0000
  C   C835      1.0  0.93239  0.62752  0.47764  1.0000
  C   C836      1.0  0.93811  0.63590  0.48883  1.0000
  C   C837      1.0  0.92541  0.64564  0.50053  1.0000
  C   C838      1.0  0.90701  0.64581  0.50196  1.0000
  C   C839      1.0  0.90126  0.63763  0.49058  1.0000
  H   H1325     1.0  0.94233  0.62013  0.46861  1.0000
  H   H1326     1.0  0.95238  0.63530  0.48802  1.0000
  H   H1327     1.0  0.89719  0.65239  0.51166  1.0000
  H   H1328     1.0  0.88698  0.63837  0.49129  1.0000
  H   H1329     1.0  0.93576  0.73408  0.49809  1.0000
  H   H1330     1.0  0.94342  0.60452  0.37448  1.0000
  C   C840      1.0  0.89542  0.69860  0.43390  1.0000
  C   C841      1.0  0.79109  0.55280  0.53454  1.0000
  Fe  Fe176     1.0  0.96063  0.72420  0.38893  1.0000
  H   H1331     1.0  0.85936  0.70301  0.63322  1.0000
  H   H1332     1.0  0.77715  0.54370  0.64305  1.0000
  H   H1333     1.0  0.99269  0.60665  0.53640  1.0000
  H   H1334     1.0  0.96420  0.60785  0.34624  1.0000
  N   N83       1.0  0.86020  0.51019  0.41694  1.0000
  H   H1335     1.0  0.68786  0.58479  0.47828  1.0000
  H   H1336     1.0  0.80211  0.54586  0.61735  1.0000
  H   H1337     1.0  0.71283  0.57894  0.57454  1.0000
  H   H1338     1.0  0.90080  0.68724  0.60188  1.0000
  C   C842      1.0  0.96868  0.68922  0.36856  1.0000
  C   C843      1.0  0.96720  0.67911  0.38583  1.0000
  C   C844      1.0  0.96482  0.66118  0.38905  1.0000
  C   C845      1.0  0.96430  0.65321  0.37494  1.0000
  H   H1339     1.0  0.67091  0.50794  0.63177  1.0000
  C   C846      1.0  0.96853  0.68112  0.35442  1.0000
  H   H1340     1.0  0.96822  0.68501  0.39664  1.0000
  H   H1341     1.0  0.96357  0.65351  0.40238  1.0000
  H   H1342     1.0  0.68086  0.55459  0.61266  1.0000
  H   H1343     1.0  0.97568  0.73338  0.44688  1.0000
  C   C847      1.0  0.90982  0.53903  0.38520  1.0000
  C   C848      1.0  0.92496  0.52666  0.39000  1.0000
  C   C849      1.0  0.93598  0.53108  0.39998  1.0000
  C   C850      1.0  0.93217  0.54792  0.40537  1.0000
  C   C851      1.0  0.91681  0.56016  0.40084  1.0000
  C   C852      1.0  0.90584  0.55577  0.39081  1.0000
  H   H1344     1.0  0.92834  0.51373  0.38587  1.0000
  H   H1345     1.0  0.94772  0.52140  0.40336  1.0000
  H   H1346     1.0  0.91336  0.57306  0.40502  1.0000
  H   H1347     1.0  0.89416  0.56547  0.38734  1.0000
  S   S344      1.0  0.79852  0.56254  0.58285  1.0000
  C   C853      1.0  0.79973  0.53726  0.54446  1.0000
  C   C854      1.0  0.67597  0.54323  0.62261  1.0000
  H   H1348     1.0  0.97882  0.66326  0.42322  1.0000
  H   H1349     1.0  0.67062  0.60268  0.57631  1.0000
  H   H1350     1.0  0.92706  0.67569  0.42773  1.0000
  C   C855      1.0  0.66209  0.57699  0.58445  1.0000
  H   H1351     1.0  0.91943  0.65602  0.44157  1.0000
  H   H1352     1.0  0.73325  0.58774  0.58956  1.0000
  H   H1353     1.0  0.85630  0.69996  0.58747  1.0000
  Fe  Fe177     1.0  0.66320  0.59977  0.61344  1.0000
  S   S345      1.0  0.72431  0.51630  0.56034  1.0000
  N   N84       1.0  0.90068  0.57557  0.50783  1.0000
  H   H1354     1.0  0.90367  0.58778  0.52875  1.0000
  C   C856      1.0  0.98964  0.65529  0.43053  1.0000
  H   H1355     1.0  0.94644  0.56496  0.35469  1.0000
  H   H1356     1.0  0.76775  0.55181  0.57005  1.0000
  H   H1357     1.0  0.86876  0.67988  0.63169  1.0000
  C   C857      1.0  0.87533  0.71729  0.60053  1.0000
  C   C858      1.0  0.90228  0.59139  0.51452  1.0000
  H   H1358     1.0  0.74539  0.57627  0.54423  1.0000
  H   H1359     1.0  0.71685  0.51668  0.62651  1.0000
  H   H1360     1.0  0.96983  0.68884  0.34102  1.0000
  C   C859      1.0  0.89431  0.72929  0.47432  1.0000
  H   H1361     1.0  0.61906  0.60971  0.63144  1.0000
  C   C860      1.0  0.88450  0.56842  0.51826  1.0000
  H   H1362     1.0  0.89901  0.69177  0.46830  1.0000
  H   H1363     1.0  0.98774  0.64102  0.43407  1.0000
  C   C861      1.0  0.91489  0.66948  0.43365  1.0000
  H   H1364     1.0  0.90949  0.66720  0.42253  1.0000
  N   N85       1.0  0.90118  0.68092  0.44482  1.0000
  H   H1365     1.0  0.88981  0.69722  0.42253  1.0000
  H   H1366     1.0  0.87901  0.67014  0.44173  1.0000
  C   C862      1.0  0.85710  0.51380  0.43518  1.0000
  S   S346      1.0  0.91678  0.71391  0.56863  1.0000
  S   S347      1.0  0.70976  0.49780  0.49416  1.0000
  H   H1367     1.0  0.66853  0.55653  0.47252  1.0000
  H   H1368     1.0  0.88913  0.65866  0.46046  1.0000
  S   S348      1.0  0.86985  0.58928  0.55501  1.0000
  H   H1369     1.0  0.80458  0.50292  0.58955  1.0000
  Fe  Fe178     1.0  0.74420  0.50346  0.53926  1.0000
  H   H1370     1.0  0.60283  0.66812  0.60201  1.0000
  H   H1371     1.0  0.88485  0.70745  0.44186  1.0000
  C   C863      1.0  0.79472  0.52066  0.54585  1.0000
  Fe  Fe179     1.0  0.80771  0.58548  0.58890  1.0000
  C   C864      1.0  0.76900  0.61173  0.59830  1.0000
  C   C865      1.0  0.79048  0.66797  0.55245  1.0000
  S   S349      1.0  0.53111  0.65101  0.64508  1.0000
  Fe  Fe180     1.0  0.84456  0.57791  0.56612  1.0000
  S   S350      1.0  0.78899  0.60343  0.60663  1.0000
  C   C866      1.0  0.60697  0.60314  0.63558  1.0000
  H   H1372     1.0  0.97440  0.71180  0.52090  1.0000
  H   H1373     1.0  0.99036  0.65479  0.51511  1.0000
  H   H1374     1.0  0.97422  0.64829  0.55564  1.0000
  C   C867      1.0  0.85186  0.61628  0.57326  1.0000
  H   H1375     1.0  0.90268  0.72069  0.48336  1.0000
  C   C868      1.0  0.96611  0.71693  0.51033  1.0000
  N   N86       1.0  0.97841  0.63409  0.53405  1.0000
  H   H1376     1.0  0.72083  0.56071  0.56251  1.0000
  C   C869      1.0  0.72235  0.56584  0.57412  1.0000
  C   C870      1.0  0.84887  0.63368  0.57698  1.0000
  H   H1377     1.0  0.71793  0.55629  0.58631  1.0000
  H   H1378     1.0  0.93950  0.71244  0.59315  1.0000
  C   C871      1.0  0.81126  0.50084  0.63283  1.0000
  H   H1379     1.0  0.93478  0.72895  0.53080  1.0000
  H   H1380     1.0  0.83384  0.50356  0.42042  1.0000
  H   H1381     1.0  0.83787  0.63772  0.58736  1.0000
  H   H1382     1.0  0.87204  0.57894  0.51791  1.0000
  H   H1383     1.0  0.77853  0.50140  0.61339  1.0000
  C   C872      1.0  0.86635  0.61081  0.56011  1.0000
  H   H1384     1.0  0.57427  0.59879  0.63229  1.0000
  H   H1385     1.0  0.84310  0.60703  0.58073  1.0000
  H   H1386     1.0  0.94341  0.69324  0.54497  1.0000
  H   H1387     1.0  0.66654  0.57956  0.49090  1.0000
  H   H1388     1.0  0.91861  0.55716  0.52377  1.0000
  S   S351      1.0  0.69268  0.51310  0.53992  1.0000
  C   C873      1.0  0.68554  0.56812  0.55350  1.0000
  C   C874      1.0  0.57433  0.60746  0.64177  1.0000
  S   S352      1.0  0.97997  0.72941  0.40371  1.0000
  C   C875      1.0  0.93938  0.70381  0.56898  1.0000
  C   C876      1.0  0.94959  0.69460  0.55552  1.0000
  H   H1389     1.0  0.63282  0.65736  0.61086  1.0000
  S   S353      1.0  0.83414  0.56939  0.59521  1.0000
  H   H1390     1.0  0.86406  0.72703  0.60662  1.0000
  H   H1391     1.0  0.95595  0.62544  0.52874  1.0000
  H   H1392     1.0  0.88242  0.55689  0.51320  1.0000
  H   H1393     1.0  0.56139  0.61735  0.64259  1.0000
  C   C877      1.0  0.74260  0.57469  0.58838  1.0000
  H   H1394     1.0  0.75223  0.54486  0.56032  1.0000
  C   C878      1.0  0.74611  0.58106  0.55635  1.0000
  N   N87       1.0  0.74114  0.56799  0.57268  1.0000
  H   H1395     1.0  0.76015  0.58331  0.55486  1.0000
  S   S354      1.0  0.77344  0.49913  0.54100  1.0000
  H   H1396     1.0  0.75033  0.54037  0.58403  1.0000
  H   H1397     1.0  0.69823  0.53277  0.59402  1.0000
  C   C879      1.0  0.75339  0.55047  0.57178  1.0000
  C   C880      1.0  0.67908  0.54510  0.50406  1.0000
  H   H1398     1.0  0.91418  0.59732  0.50679  1.0000
  S   S355      1.0  0.73210  0.52165  0.51694  1.0000
  H   H1399     1.0  0.81038  0.53798  0.55097  1.0000
  H   H1400     1.0  0.76836  0.64942  0.57745  1.0000
  H   H1401     1.0  0.76950  0.66923  0.58499  1.0000
  H   H1402     1.0  0.91623  0.54940  0.50465  1.0000
  H   H1403     1.0  0.77971  0.64737  0.59551  1.0000
  Fe  Fe181     1.0  0.70833  0.49558  0.56027  1.0000
  S   S356      1.0  0.64914  0.58187  0.60478  1.0000
  S   S357      1.0  0.70141  0.56235  0.53494  1.0000
  H   H1404     1.0  0.71481  0.56028  0.47527  1.0000
  C   C881      1.0  0.77725  0.65582  0.58248  1.0000
  H   H1405     1.0  0.86492  0.53685  0.40444  1.0000
  C   C882      1.0  0.96547  0.69751  0.58315  1.0000
  C   C883      1.0  0.58910  0.67363  0.62784  1.0000
  H   H1406     1.0  0.69078  0.59510  0.54867  1.0000
  H   H1407     1.0  0.71295  0.53762  0.48629  1.0000
  H   H1408     1.0  0.60165  0.63442  0.61356  1.0000
  S   S358      1.0  0.86938  0.49841  0.36669  1.0000
  H   H1409     1.0  0.80316  0.66936  0.54255  1.0000
  S   S359      1.0  0.83898  0.55410  0.55790  1.0000
  H   H1410     1.0  0.74306  0.58997  0.64043  1.0000
  H   H1411     1.0  0.78290  0.68176  0.55377  1.0000
  H   H1412     1.0  0.79858  0.68020  0.57850  1.0000
  C   C884      1.0  0.68326  0.58528  0.55742  1.0000
  Fe  Fe182     1.0  0.81203  0.57146  0.55496  1.0000
  N   N88       1.0  0.79439  0.65735  0.56974  1.0000
  H   H1413     1.0  0.78027  0.60506  0.57235  1.0000
  C   C885      1.0  0.67188  0.58957  0.57308  1.0000
  C   C886      1.0  0.80434  0.63918  0.56732  1.0000
  H   H1414     1.0  0.80865  0.65872  0.58978  1.0000
  C   C887      1.0  0.80553  0.66635  0.57669  1.0000
  S   S360      1.0  0.79663  0.57371  0.53349  1.0000
  H   H1415     1.0  0.68812  0.53894  0.47071  1.0000
  H   H1416     1.0  0.81869  0.66747  0.56749  1.0000
  C   C888      1.0  0.96795  0.68739  0.55558  1.0000
  C   C889      1.0  0.94735  0.70532  0.58273  1.0000
  H   H1417     1.0  0.73914  0.56510  0.60093  1.0000
  C   C890      1.0  0.99528  0.73206  0.46285  1.0000
  H   H1418     1.0  0.98835  0.57480  0.36356  1.0000
  S   S361      1.0  0.69101  0.62667  0.62915  1.0000
  C   C891      1.0  0.87931  0.50182  0.41178  1.0000
  H   H1419     1.0  0.73685  0.59434  0.55643  1.0000
  H   H1420     1.0  0.67273  0.54738  0.63580  1.0000
  H   H1421     1.0  0.76133  0.53457  0.52151  1.0000
  H   H1422     1.0  0.97058  0.55808  0.35206  1.0000
  C   C892      1.0  0.77200  0.53524  0.52794  1.0000
  N   N89       1.0  0.68951  0.52643  0.62240  1.0000
  Fe  Fe183     1.0  0.66117  0.63156  0.63018  1.0000
  H   H1423     1.0  0.69288  0.49947  0.63754  1.0000
  H   H1424     1.0  0.95673  0.55512  0.37374  1.0000
  N   N90       1.0  0.87240  0.69853  0.60695  1.0000
  Fe  Fe184     1.0  0.71070  0.53251  0.53813  1.0000
  H   H1425     1.0  0.67753  0.54217  0.56192  1.0000
  S   S362      1.0  0.82910  0.51875  0.60196  1.0000
  C   C893      1.0  0.97543  0.58072  0.37149  1.0000
  H   H1426     1.0  0.75653  0.57688  0.58754  1.0000
  C   C894      1.0  0.89902  0.58095  0.48891  1.0000
  H   H1427     1.0  0.89715  0.56955  0.48351  1.0000
  N   N91       1.0  0.59005  0.61664  0.63625  1.0000
  H   H1428     1.0  0.70415  0.50942  0.60373  1.0000
  C   C895      1.0  0.88783  0.68622  0.59860  1.0000
  Fe  Fe185     1.0  0.54555  0.67275  0.64575  1.0000
  H   H1429     1.0  0.84177  0.53406  0.40791  1.0000
  N   N92       1.0  0.95998  0.58242  0.36268  1.0000
  C   C896      1.0  0.98534  0.72463  0.45442  1.0000
  H   H1430     1.0  0.84281  0.52016  0.43952  1.0000
  H   H1431     1.0  0.85837  0.52512  0.39057  1.0000
  C   C897      1.0  0.81278  0.51745  0.62155  1.0000
  H   H1432     1.0  0.99700  0.65270  0.48389  1.0000
  C   C898      1.0  0.68145  0.57569  0.48990  1.0000
  H   H1433     1.0  0.94149  0.58276  0.38748  1.0000
  C   C899      1.0  0.62308  0.66195  0.63769  1.0000
  H   H1434     1.0  0.85319  0.68250  0.60641  1.0000
  H   H1435     1.0  0.88736  0.59215  0.48692  1.0000
  C   C900      1.0  0.78677  0.53179  0.64041  1.0000
  H   H1436     1.0  0.75404  0.62053  0.62242  1.0000
  H   H1437     1.0  0.88940  0.68959  0.58392  1.0000
  C   C901      1.0  0.96287  0.59417  0.34503  1.0000
  Fe  Fe186     1.0  0.71513  0.50089  0.52014  1.0000
  H   H1438     1.0  0.98189  0.63686  0.46863  1.0000
  C   C902      1.0  0.91696  0.56152  0.50962  1.0000
  C   C903      1.0  0.68230  0.51173  0.63568  1.0000
  C   C904      1.0  0.87089  0.69399  0.62647  1.0000
  C   C905      1.0  0.62122  0.66197  0.62040  1.0000
  H   H1439     1.0  0.88561  0.56361  0.53251  1.0000
  C   C906      1.0  0.85561  0.69660  0.60213  1.0000
  C   C907      1.0  0.98429  0.63778  0.54931  1.0000
  S   S363      1.0  0.56764  0.67817  0.62225  1.0000
  H   H1440     1.0  0.60807  0.59433  0.62583  1.0000
  C   C908      1.0  0.69353  0.52171  0.60452  1.0000
  H   H1441     1.0  0.97528  0.71535  0.49741  1.0000
  H   H1442     1.0  0.68138  0.51889  0.60103  1.0000
  H   H1443     1.0  0.97364  0.57191  0.38487  1.0000
  S   S364      1.0  0.65837  0.60290  0.64188  1.0000
  C   C909      1.0  0.99500  0.63071  0.47192  1.0000
  C   C910      1.0  0.85607  0.52731  0.40449  1.0000
  H   H1444     1.0  0.58924  0.61996  0.60848  1.0000
  S   S365      1.0  0.97353  0.69640  0.44797  1.0000
  H   H1445     1.0  0.88814  0.71910  0.60355  1.0000
  C   C911      1.0  0.70624  0.52905  0.62678  1.0000
  H   H1446     1.0  0.89008  0.60217  0.51364  1.0000
  C   C912      1.0  0.84837  0.49785  0.41635  1.0000
  C   C913      1.0  0.94537  0.73736  0.52791  1.0000
  H   H1447     1.0  0.97220  0.64833  0.50872  1.0000
  H   H1448     1.0  0.87649  0.72116  0.58582  1.0000
  H   H1449     1.0  0.57744  0.63898  0.61863  1.0000
  C   C914      1.0  0.90082  0.73181  0.45589  1.0000
  C   C915      1.0  0.97704  0.65053  0.52025  1.0000
  H   H1450     1.0  0.76526  0.57693  0.63511  1.0000
  C   C916      1.0  0.98745  0.70591  0.45642  1.0000
  Fe  Fe187     1.0  0.92760  0.73815  0.41464  1.0000
  H   H1451     1.0  0.95605  0.70805  0.51247  1.0000
  H   H1452     1.0  0.98614  0.62550  0.55971  1.0000
  C   C917      1.0  0.96058  0.62857  0.53996  1.0000
  H   H1453     1.0  0.96606  0.65701  0.34662  1.0000
  C   C918      1.0  0.58954  0.62798  0.61845  1.0000
  H   H1454     1.0  0.86586  0.52304  0.43606  1.0000
  H   H1455     1.0  0.97540  0.58856  0.33633  1.0000
  H   H1456     1.0  0.88599  0.67194  0.60272  1.0000
  S   S366      1.0  0.86861  0.73576  0.50389  1.0000
  H   H1457     1.0  0.85011  0.49506  0.40273  1.0000
  H   H1458     1.0  0.88216  0.49917  0.39803  1.0000
  S   S367      1.0  0.99470  0.60198  0.45487  1.0000
  H   H1459     1.0  0.98742  0.66038  0.44314  1.0000
  H   H1460     1.0  0.99740  0.64266  0.54509  1.0000
  H   H1461     1.0  0.95508  0.74101  0.48290  1.0000
  H   H1462     1.0  0.60144  0.63453  0.64595  1.0000
  S   S368      1.0  0.64374  0.65297  0.64468  1.0000
  H   H1463     1.0  0.73082  0.59573  0.67053  1.0000
  S   S369      1.0  0.68870  0.50207  0.68209  1.0000
  H   H1464     1.0  0.54020  0.50351  0.79767  1.0000
  S   S370      1.0  0.52027  0.69245  0.65323  1.0000
  C   C919      1.0  0.53367  0.58185  0.70245  1.0000
  C   C920      1.0  0.67875  0.53878  0.67235  1.0000
  H   H1465     1.0  0.52986  0.61829  0.74233  1.0000
  H   H1466     1.0  0.74698  0.56620  0.64840  1.0000
  S   S371      1.0  0.73668  0.49138  0.65624  1.0000
  H   H1467     1.0  0.72698  0.54692  0.67000  1.0000
  H   H1468     1.0  0.77837  0.59605  0.64726  1.0000
  C   C921      1.0  0.69238  0.52433  0.67709  1.0000
  C   C922      1.0  0.51525  0.60963  0.71016  1.0000
  H   H1469     1.0  0.52899  0.53028  0.82346  1.0000
  H   H1470     1.0  0.54536  0.62816  0.72413  1.0000
  C   C923      1.0  0.68272  0.55621  0.66620  1.0000
  C   C924      1.0  0.52256  0.57197  0.71592  1.0000
  H   H1471     1.0  0.53320  0.67365  0.73638  1.0000
  H   H1472     1.0  0.54725  0.66064  0.72062  1.0000
  H   H1473     1.0  0.51930  0.49529  0.80341  1.0000
  C   C925      1.0  0.70961  0.52753  0.67640  1.0000
  N   N93       1.0  0.52842  0.64666  0.74039  1.0000
  S   S372      1.0  0.54984  0.66200  0.67376  1.0000
  C   C926      1.0  0.71346  0.54484  0.67069  1.0000
  H   H1474     1.0  0.58867  0.62017  0.66297  1.0000
  C   C927      1.0  0.77022  0.56544  0.66926  1.0000
  H   H1475     1.0  0.75665  0.60973  0.65303  1.0000
  C   C928      1.0  0.53001  0.60069  0.69951  1.0000
  H   H1476     1.0  0.54952  0.62418  0.74647  1.0000
  H   H1477     1.0  0.78314  0.56315  0.65962  1.0000
  H   H1478     1.0  0.50996  0.63703  0.76363  1.0000
  H   H1479     1.0  0.52545  0.55742  0.71811  1.0000
  H   H1480     1.0  0.51233  0.62413  0.70787  1.0000
  C   C929      1.0  0.70016  0.55916  0.66530  1.0000
  S   S373      1.0  0.76772  0.51448  0.67026  1.0000
  H   H1481     1.0  0.55153  0.65636  0.74294  1.0000
  H   H1482     1.0  0.52051  0.55594  0.84475  1.0000
  C   C930      1.0  0.50440  0.59974  0.72398  1.0000
  H   H1483     1.0  0.52704  0.52983  0.77667  1.0000
  H   H1484     1.0  0.54508  0.57489  0.69423  1.0000
  H   H1485     1.0  0.50575  0.66494  0.73099  1.0000
  H   H1486     1.0  0.77359  0.56696  0.68180  1.0000
  N   N94       1.0  0.51660  0.52327  0.80470  1.0000
  H   H1487     1.0  0.72026  0.51669  0.67994  1.0000
  C   C931      1.0  0.52690  0.53481  0.80946  1.0000
  H   H1488     1.0  0.76433  0.55297  0.67229  1.0000
  H   H1489     1.0  0.50565  0.64162  0.73211  1.0000
  H   H1490     1.0  0.57952  0.67903  0.65439  1.0000
  H   H1491     1.0  0.50635  0.54410  0.78431  1.0000
  Fe  Fe188     1.0  0.52322  0.67982  0.68133  1.0000
  C   C932      1.0  0.74089  0.58409  0.67559  1.0000
  S   S374      1.0  0.70602  0.58036  0.65690  1.0000
  C   C933      1.0  0.58934  0.62807  0.64919  1.0000
  H   H1492     1.0  0.52954  0.64268  0.76816  1.0000
  H   H1493     1.0  0.49918  0.71062  0.73371  1.0000
  C   C934      1.0  0.51456  0.65176  0.72908  1.0000
  C   C935      1.0  0.79730  0.49971  0.64779  1.0000
  H   H1494     1.0  0.74368  0.58658  0.68801  1.0000
  Fe  Fe189     1.0  0.53334  0.64181  0.67373  1.0000
  C   C936      1.0  0.49884  0.52377  0.81673  1.0000
  C   C937      1.0  0.51955  0.64659  0.75916  1.0000
  C   C938      1.0  0.53879  0.62852  0.73827  1.0000
  H   H1495     1.0  0.51969  0.54907  0.80814  1.0000
  C   C939      1.0  0.78504  0.51524  0.65155  1.0000
  C   C940      1.0  0.51392  0.52996  0.78614  1.0000
  H   H1496     1.0  0.73423  0.57211  0.67921  1.0000
  H   H1497     1.0  0.51086  0.52906  0.86538  1.0000
  H   H1498     1.0  0.52092  0.65302  0.71481  1.0000
  H   H1499     1.0  0.66534  0.53645  0.67293  1.0000
  H   H1500     1.0  0.50036  0.51857  0.83083  1.0000
  S   S375      1.0  0.49762  0.60286  0.77189  1.0000
  C   C941      1.0  0.50682  0.55381  0.84645  1.0000
  H   H1501     1.0  0.60958  0.66875  0.66312  1.0000
  C   C942      1.0  0.52673  0.50455  0.80658  1.0000
  C   C943      1.0  0.54070  0.65985  0.73489  1.0000
  H   H1502     1.0  0.77021  0.59971  0.66975  1.0000
  H   H1503     1.0  0.51150  0.66010  0.76106  1.0000
  H   H1504     1.0  0.67232  0.56732  0.66223  1.0000
  Fe  Fe190     1.0  0.50615  0.66964  0.65499  1.0000
  C   C944      1.0  0.50806  0.58088  0.72684  1.0000
  S   S376      1.0  0.51921  0.69358  0.70462  1.0000
  S   S377      1.0  0.50690  0.65858  0.68378  1.0000
  C   C945      1.0  0.60811  0.66851  0.64981  1.0000
  H   H1505     1.0  0.52911  0.49921  0.82043  1.0000
  H   H1506     1.0  0.54044  0.53469  0.80076  1.0000
  S   S378      1.0  0.54448  0.61264  0.68285  1.0000
  N   N95       1.0  0.75757  0.58135  0.66213  1.0000
  C   C946      1.0  0.50141  0.53856  0.85802  1.0000
  S   S379      1.0  0.50252  0.58327  0.82013  1.0000
  C   C947      1.0  0.76609  0.59743  0.65788  1.0000
  C   C948      1.0  0.50121  0.71196  0.70565  1.0000
  H   H1507     1.0  0.50613  0.52163  0.78208  1.0000
  H   H1508     1.0  0.66963  0.49677  0.74164  1.0000
  H   H1509     1.0  0.68366  0.49665  0.72004  1.0000
  H   H1510     1.0  0.67719  0.51566  0.64892  1.0000
  H   H1511     1.0  0.50007  0.71702  0.67780  1.0000
  H   H1512     1.0  0.57424  0.59882  0.65519  1.0000
  H   H1513     1.0  0.57725  0.63905  0.64930  1.0000
  H   H1514     1.0  0.60786  0.59438  0.64880  1.0000
  Fe  Fe191     1.0  0.50062  0.49274  0.87448  1.0000
  S   S380      1.0  0.53012  0.49146  0.86280  1.0000
  C   C949      1.0  0.89771  0.81634  0.40600  1.0000
  H   H1515     1.0  0.88548  0.81351  0.41603  1.0000
  H   H1516     1.0  0.98937  0.76482  0.37854  1.0000
  H   H1517     1.0  0.93972  0.75650  0.49576  1.0000
  S   S381      1.0  0.94290  0.75137  0.38918  1.0000
  C   C950      1.0  0.92551  0.80387  0.38813  1.0000
  H   H1518     1.0  0.99305  0.74647  0.46199  1.0000
  H   H1519     1.0  0.93469  0.79147  0.38440  1.0000
  H   H1520     1.0  0.86410  0.75993  0.44187  1.0000
  C   C951      1.0  0.99184  0.77836  0.37665  1.0000
  C   C952      1.0  0.91520  0.78798  0.41759  1.0000
  C   C953      1.0  0.94647  0.74218  0.49620  1.0000
  N   N96       1.0  0.90942  0.79953  0.40141  1.0000
  H   H1521     1.0  0.90771  0.77712  0.39037  1.0000
  H   H1522     1.0  0.88722  0.78612  0.40377  1.0000
  H   H1523     1.0  0.93364  0.81090  0.39341  1.0000
  C   C954      1.0  0.98155  0.78998  0.38799  1.0000
  H   H1524     1.0  0.97654  0.81664  0.39392  1.0000
  S   S382      1.0  0.96518  0.78280  0.40597  1.0000
  H   H1525     1.0  0.92399  0.77524  0.41450  1.0000
  H   H1526     1.0  0.92314  0.79464  0.42350  1.0000
  Fe  Fe192     1.0  0.96043  0.75523  0.40658  1.0000
  S   S383      1.0  0.94397  0.74365  0.43214  1.0000
  H   H1527     1.0  0.97980  0.74712  0.49409  1.0000
  H   H1528     1.0  0.90347  0.78423  0.42789  1.0000
  H   H1529     1.0  0.92173  0.81260  0.37572  1.0000
  H   H1530     1.0  0.89308  0.82540  0.39409  1.0000
  C   C955      1.0  0.89927  0.78990  0.39396  1.0000
  H   H1531     1.0  0.89457  0.79818  0.38177  1.0000
  H   H1532     1.0  0.90500  0.82390  0.41168  1.0000
  C   C956      1.0  0.98467  0.80753  0.38534  1.0000
  C   C957      1.0  0.97116  0.74713  0.50748  1.0000
  S   S384      1.0  0.89758  0.74593  0.42111  1.0000
  H   H1533     1.0  0.93831  0.75145  0.52850  1.0000
  C   C958      1.0  0.87260  0.75145  0.45087  1.0000
  H   H1534     1.0  0.96502  0.76138  0.50840  1.0000
  C   C959      1.0  0.88992  0.74288  0.44417  1.0000
  H   H1535     1.0  0.85289  0.75606  0.47439  1.0000
  C   C960      1.0  0.86626  0.74925  0.46925  1.0000
  H   H1536     1.0  0.98035  0.74206  0.51731  1.0000
